@<TRIPOS>MOLECULE
tmp/5ck3B00.pdb
 151 146 0 0 0
SMALL
GASTEIGER

@<TRIPOS>ATOM
      1  N          3.1870   -1.2990  124.6600 N.3     9  SER9       -0.1202
      2  CA         4.5530   -1.8010  124.7250 C.3     9  SER9        0.2020
      3  C          4.9060   -2.2360  126.1380 C.2     9  SER9        0.2619
      4  O          4.3990   -1.6900  127.1150 O.2     9  SER9       -0.2717
      5  CB         5.5340   -0.7410  124.2400 C.3     9  SER9        0.2103
      6  OG         5.0330   -0.1010  123.0820 O.3     9  SER9       -0.2182
      7  N          5.7780   -3.2280  126.2400 N.am   10  GLY10      -0.1942
      8  CA         6.1480   -3.7750  127.5280 C.3    10  GLY10       0.2014
      9  C          5.1520   -4.7880  128.0560 C.2    10  GLY10       0.2639
     10  O          5.4170   -5.4440  129.0580 O.2    10  GLY10      -0.2714
     11  N          4.0090   -4.9180  127.3920 N.am   11  ALA11      -0.1963
     12  CA         3.0030   -5.8970  127.7920 C.3    11  ALA11       0.1728
     13  C          3.5460   -7.3160  127.7060 C.2    11  ALA11       0.2617
     14  O          3.0180   -8.2330  128.3330 O.2    11  ALA11      -0.2715
     15  CB         1.7580   -5.7640  126.9330 C.3    11  ALA11       0.0334
     16  N          4.6110   -7.4960  126.9340 N.am   12  GLY12      -0.1940
     17  CA         5.1300   -8.8250  126.6750 C.3    12  GLY12       0.2014
     18  C          4.3780   -9.4530  125.5180 C.2    12  GLY12       0.2639
     19  O          4.2870  -10.6740  125.4000 O.2    12  GLY12      -0.2714
     20  N          3.8300   -8.5900  124.6690 N.am   13  LYS13      -0.1963
     21  CA         3.0990   -8.9870  123.4710 C.3    13  LYS13       0.1728
     22  C          3.9570   -9.8950  122.5830 C.2    13  LYS13       0.2617
     23  O          3.6130  -11.0490  122.3320 O.2    13  LYS13      -0.2715
     24  CB         2.6520   -7.7320  122.7070 C.3    13  LYS13       0.0311
     25  CG         2.3700   -6.5340  123.6330 C.3    13  LYS13       0.0038
     26  CD         2.3410   -5.1890  122.9160 C.3    13  LYS13       0.0206
     27  CE         2.5560   -5.3380  121.4340 C.3    13  LYS13       0.1093
     28  NZ         3.9460   -5.7480  121.0900 N.3    13  LYS13      -0.1314
     29  N          5.0880   -9.3670  122.1290 N.am   14  THR14      -0.1937
     30  CA         6.0060  -10.1120  121.2780 C.3    14  THR14       0.2028
     31  C          6.6180  -11.3230  121.9680 C.2    14  THR14       0.2642
     32  O          7.0340  -12.2620  121.3030 O.2    14  THR14      -0.2714
     33  CB         7.1580   -9.2230  120.7910 C.3    14  THR14       0.1808
     34  OG1        6.6310   -8.0070  120.2520 O.3    14  THR14      -0.2208
     35  CG2        7.9760   -9.9420  119.7310 C.3    14  THR14       0.0379
     36  N          6.6880  -11.2980  123.2970 N.am   15  ALA15      -0.1977
     37  CA         7.3640  -12.3600  124.0450 C.3    15  ALA15       0.1597
     38  C          6.4280  -13.5270  124.3280 C.2    15  ALA15       0.2287
     39  O          6.8450  -14.6840  124.3080 O.2    15  ALA15      -0.2864
     40  CB         7.9390  -11.8140  125.3430 C.3    15  ALA15       0.0319
     41  N         11.1680  -18.9330  126.1220 N.3    51  VAL51      -0.1231
     42  CA        10.8710  -17.5990  125.6120 C.3    51  VAL51       0.1692
     43  C         12.1930  -16.8750  125.3790 C.2    51  VAL51       0.2592
     44  O         13.1450  -17.0630  126.1400 O.2    51  VAL51      -0.2718
     45  CB         9.9850  -16.7810  126.5730 C.3    51  VAL51       0.0266
     46  CG1       10.6450  -16.6510  127.9290 C.3    51  VAL51       0.0020
     47  CG2        9.7170  -15.4060  125.9900 C.3    51  VAL51       0.0020
     48  N         12.2650  -16.0630  124.3280 N.am   52  ALA52      -0.1966
     49  CA        13.5110  -15.3690  124.0110 C.3    52  ALA52       0.1728
     50  C         13.4280  -13.8920  124.3500 C.2    52  ALA52       0.2616
     51  O         12.3370  -13.3370  124.4700 O.2    52  ALA52      -0.2715
     52  CB        13.8670  -15.5480  122.5440 C.3    52  ALA52       0.0334
     53  N         14.5870  -13.2620  124.5120 N.am   53  GLN53      -0.1963
     54  CA        14.6350  -11.8260  124.7020 C.3    53  GLN53       0.1733
     55  C         13.9070  -11.1530  123.5540 C.2    53  GLN53       0.2617
     56  O         13.9370  -11.6280  122.4230 O.2    53  GLN53      -0.2715
     57  CB        16.0720  -11.3200  124.7670 C.3    53  GLN53       0.0408
     58  CG        17.0790  -12.3460  125.1970 C.3    53  GLN53       0.0908
     59  CD        18.2870  -11.7090  125.8420 C.2    53  GLN53       0.2608
     60  OE1       19.0980  -11.0660  125.1740 O.2    53  GLN53      -0.2717
     61  NE2       18.4070  -11.8700  127.1550 N.am   53  GLN53      -0.0878
     62  N         13.2500  -10.0440  123.8480 N.am   54  THR54      -0.1937
     63  CA        12.5950   -9.2620  122.8190 C.3    54  THR54       0.2028
     64  C         12.7490   -7.7800  123.1290 C.2    54  THR54       0.2642
     65  O         12.9720   -7.4040  124.2820 O.2    54  THR54      -0.2714
     66  CB        11.1040   -9.6090  122.7140 C.3    54  THR54       0.1808
     67  OG1       10.4640   -9.3010  123.9560 O.3    54  THR54      -0.2208
     68  CG2       10.9180  -11.0900  122.4170 C.3    54  THR54       0.0379
     69  N         12.6610   -6.9480  122.0940 N.am   55  HIS55      -0.1959
     70  CA        12.4930   -5.5100  122.2670 C.3    55  HIS55       0.1787
     71  C         11.2190   -5.1280  121.5390 C.2    55  HIS55       0.2621
     72  O         10.6020   -5.9910  120.9110 O.2    55  HIS55      -0.2715
     73  CB        13.7070   -4.7440  121.7520 C.3    55  HIS55       0.0785
     74  CG        14.9450   -4.9850  122.5590 C.ar   55  HIS55       0.0821
     75  ND1       15.0200   -4.6990  123.9050 N.ar   55  HIS55      -0.2267
     76  CD2       16.1480   -5.5050  122.2180 C.ar   55  HIS55       0.1154
     77  CE1       16.2160   -5.0290  124.3590 C.ar   55  HIS55       0.1986
     78  NE2       16.9210   -5.5180  123.3550 N.ar   55  HIS55      -0.2212
     79  N         10.8090   -3.8630  121.6290 N.am   56  THR56      -0.1937
     80  CA         9.4770   -3.4740  121.1530 C.3    56  THR56       0.2028
     81  C          9.2450   -3.8180  119.6810 C.2    56  THR56       0.2642
     82  O         10.0620   -3.5170  118.8110 O.2    56  THR56      -0.2714
     83  CB         9.1920   -1.9630  121.3630 C.3    56  THR56       0.1808
     84  OG1        7.9130   -1.6430  120.7990 O.3    56  THR56      -0.2208
     85  CG2       10.2480   -1.0970  120.7110 C.3    56  THR56       0.0379
     86  N          8.1240   -4.4800  119.4240 N.am   57  SER57      -0.1949
     87  CA         7.7570   -4.8640  118.0710 C.3    57  SER57       0.1924
     88  C          7.4810   -3.6170  117.2390 C.2    57  SER57       0.2314
     89  O          6.7130   -2.7410  117.6470 O.2    57  SER57      -0.2863
     90  CB         6.5320   -5.7860  118.0760 C.3    57  SER57       0.2116
     91  OG         6.2100   -6.2110  119.3890 O.3    57  SER57      -0.2180
     92  N          2.6690   -2.0890  119.8680 N.3    96  GLY96      -0.1225
     93  CA         1.9260   -1.4410  120.9320 C.3    96  GLY96       0.1811
     94  C          2.1070    0.0610  120.9620 C.2    96  GLY96       0.2280
     95  O          1.2820    0.7800  121.5220 O.2    96  GLY96      -0.2866
     96  N         -0.8960   -9.9210  132.1300 N.3   191  ASN191     -0.1225
     97  CA         0.3980  -10.5850  132.0920 C.3   191  ASN191      0.1785
     98  C          1.3390  -10.1110  133.2070 C.2   191  ASN191      0.2597
     99  O          0.9120   -9.4180  134.1330 O.2   191  ASN191     -0.2718
    100  CB         1.0340  -10.3640  130.7220 C.3   191  ASN191      0.1169
    101  CG         2.1110  -11.3620  130.4190 C.2   191  ASN191      0.2627
    102  OD1        2.3110  -12.3090  131.1710 O.2   191  ASN191     -0.2716
    103  ND2        2.8150  -11.1610  129.3140 N.am  191  ASN191     -0.0877
    104  N          2.6130  -10.4920  133.1100 N.am  192  LYS192     -0.1980
    105  CA         3.6330  -10.1430  134.1010 C.3   192  LYS192      0.1596
    106  C          3.2210  -10.6170  135.4860 C.2   192  LYS192      0.2287
    107  O          3.3080   -9.8720  136.4630 O.2   192  LYS192     -0.2864
    108  CB         3.8790   -8.6350  134.1190 C.3   192  LYS192      0.0298
    109  CG         4.2860   -8.0470  132.7810 C.3   192  LYS192      0.0038
    110  CD         5.7630   -8.2410  132.4860 C.3   192  LYS192      0.0206
    111  CE         6.1890   -7.3510  131.3310 C.3   192  LYS192      0.1093
    112  NZ         5.1240   -7.2970  130.2920 N.3   192  LYS192     -0.1314
    113  N          4.2230  -13.2810  137.4080 N.3   194  ASP194     -0.1225
    114  CA         5.1330  -13.8630  138.3770 C.3   194  ASP194      0.1805
    115  C          5.6390  -12.7750  139.3270 C.2   194  ASP194      0.2597
    116  O          6.0830  -13.0630  140.4420 O.2   194  ASP194     -0.2718
    117  CB         6.2940  -14.5630  137.6810 C.3   194  ASP194      0.1424
    118  CG         7.0390  -13.6510  136.7410 C.2   194  ASP194      0.3668
    119  OD1        8.2840  -13.5950  136.8490 O.co2 194  ASP194     -0.2456
    120  OD2        6.3810  -13.0010  135.8960 O.co2 194  ASP194     -0.2456
    121  N          5.5560  -11.5240  138.8820 N.am  195  LEU195     -0.1979
    122  CA         5.9500  -10.3850  139.7050 C.3   195  LEU195      0.1596
    123  C          4.9880  -10.2130  140.8810 C.2   195  LEU195      0.2287
    124  O          3.7880  -10.4380  140.7390 O.2   195  LEU195     -0.2864
    125  CB         5.9990   -9.1100  138.8630 C.3   195  LEU195      0.0297
    126  CG         7.0930   -9.0240  137.7950 C.3   195  LEU195      0.0022
    127  CD1        8.0380  -10.2110  137.8560 C.3   195  LEU195      0.0001
    128  CD2        6.4740   -8.9070  136.4220 C.3   195  LEU195      0.0001
    129  N          1.2780  -15.6000  133.0870 N.3   251  ASN251     -0.1225
    130  CA         2.6070  -15.0320  132.9950 C.3   251  ASN251      0.1785
    131  C          3.3750  -15.7210  131.8920 C.2   251  ASN251      0.2597
    132  O          3.2880  -16.9360  131.7290 O.2   251  ASN251     -0.2718
    133  CB         3.3460  -15.1670  134.3200 C.3   251  ASN251      0.1169
    134  CG         3.6250  -16.6030  134.6740 C.2   251  ASN251      0.2627
    135  OD1        2.7160  -17.3510  135.0230 O.2   251  ASN251     -0.2716
    136  ND2        4.8870  -17.0010  134.5790 N.am  251  ASN251     -0.0877
    137  N          4.1150  -14.9450  131.1170 N.am  252  VAL252     -0.1966
    138  CA         4.9370  -15.5330  130.0800 C.3   252  VAL252      0.1727
    139  C          6.1750  -16.1280  130.7250 C.2   252  VAL252      0.2616
    140  O          6.5800  -17.2440  130.4040 O.2   252  VAL252     -0.2715
    141  CB         5.3370  -14.5050  129.0190 C.3   252  VAL252      0.0290
    142  CG1        6.2510  -15.1480  127.9870 C.3   252  VAL252      0.0023
    143  CG2        4.0940  -13.9180  128.3620 C.3   252  VAL252      0.0023
    144  N          6.7490  -15.3860  131.6660 N.am  253  ILE253     -0.1977
    145  CA         8.0030  -15.7780  132.2990 C.3   253  ILE253      0.1596
    146  C          7.8510  -16.0660  133.7930 C.2   253  ILE253      0.2287
    147  O          6.8720  -15.6690  134.4190 O.2   253  ILE253     -0.2864
    148  CB         9.0690  -14.6860  132.1040 C.3   253  ILE253      0.0276
    149  CG1        9.2380  -14.3840  130.6210 C.3   253  ILE253      0.0022
    150  CG2       10.4020  -15.1130  132.6820 C.3   253  ILE253      0.0022
    151  CD1       10.4130  -13.4960  130.3330 C.3   253  ILE253      0.0001
@<TRIPOS>BOND
     1    88    89    2
     2    88    87    1
     3    87    90    1
     4    87    86    1
     5    90    91    1
     6    82    81    2
     7    86    81   am
     8    81    80    1
     9    35    33    1
    10    92    93    1
    11    34    33    1
    12    85    83    1
    13    33    30    1
    14    84    83    1
    15    72    71    2
    16    93    94    1
    17    94    95    2
    18    28    27    1
    19    80    83    1
    20    80    79    1
    21    30    31    1
    22    30    29    1
    23    32    31    2
    24    27    26    1
    25    71    79   am
    26    71    70    1
    27    73    70    1
    28    73    74    1
    29    31    36   am
    30    69    70    1
    31    69    64   am
    32    29    22   am
    33    76    74   ar
    34    76    78   ar
    35    23    22    2
    36    68    66    1
    37    56    55    2
    38    52    49    1
    39    74    75   ar
    40    22    21    1
    41    24    21    1
    42    24    25    1
    43    66    63    1
    44    66    67    1
    45    63    64    1
    46    63    62    1
    47    26    25    1
    48     6     5    1
    49    64    65    2
    50    36    37    1
    51    78    77   ar
    52    21    20    1
    53    55    62   am
    54    55    54    1
    55    75    77   ar
    56    49    48    1
    57    49    50    1
    58    37    38    1
    59    37    40    1
    60     5     2    1
    61    39    38    2
    62    48    43   am
    63    50    51    2
    64    50    53   am
    65    53    54    1
    66     1     2    1
    67    20    18   am
    68    54    57    1
    69     2     3    1
    70    57    58    1
    71    60    59    2
    72    58    59    1
    73    43    42    1
    74    43    44    2
    75    19    18    2
    76    18    17    1
    77    42    41    1
    78    42    45    1
    79    59    61   am
    80    47    45    1
    81     3     7   am
    82     3     4    2
    83     7     8    1
    84    45    46    1
    85    17    16    1
    86    15    12    1
    87    16    13   am
    88    11    12    1
    89    11     9   am
    90     8     9    1
    91    13    12    1
    92    13    14    2
    93   142   141    1
    94     9    10    2
    95   143   141    1
    96   141   138    1
    97   103   101   am
    98   138   139    1
    99   138   137    1
   100   112   111    1
   101   151   149    1
   102   140   139    2
   103   101   100    1
   104   101   102    2
   105   149   148    1
   106   100    97    1
   107   139   144   am
   108   137   131   am
   109   111   110    1
   110   144   145    1
   111   132   131    2
   112   131   130    1
   113    97    96    1
   114    97    98    1
   115   148   145    1
   116   148   150    1
   117   145   146    1
   118   110   109    1
   119   109   108    1
   120   130   129    1
   121   130   133    1
   122   104    98   am
   123   104   105    1
   124    98    99    2
   125   146   147    2
   126   105   108    1
   127   105   106    1
   128   133   134    1
   129   136   134   am
   130   134   135    2
   131   106   107    2
   132   120   118   ar
   133   128   126    1
   134   118   119   ar
   135   118   117    1
   136   113   114    1
   137   117   114    1
   138   126   127    1
   139   126   125    1
   140   114   115    1
   141   125   122    1
   142   121   115   am
   143   121   122    1
   144   115   116    2
   145   122   123    1
   146   124   123    2
