@<TRIPOS>MOLECULE
tmp/5ck3F00.pdb
 138 131 0 0 0
SMALL
GASTEIGER

@<TRIPOS>ATOM
      1  N         55.4450    7.8210  157.8460 N.3     6  SER6       -0.1202
      2  CA        54.9200    8.0210  156.5000 C.3     6  SER6        0.2020
      3  C         56.0850    8.2680  155.5570 C.2     6  SER6        0.2619
      4  O         57.0190    8.9960  155.8920 O.2     6  SER6       -0.2717
      5  CB        53.9300    9.1860  156.4470 C.3     6  SER6        0.2103
      6  OG        53.7170    9.7510  157.7280 O.3     6  SER6       -0.2182
      7  N         56.0360    7.6450  154.3850 N.am    7  GLY7       -0.1942
      8  CA        57.1450    7.7000  153.4520 C.3     7  GLY7        0.2014
      9  C         58.2190    6.6880  153.8060 C.2     7  GLY7        0.2639
     10  O         59.3600    6.7990  153.3610 O.2     7  GLY7       -0.2714
     11  N         57.8510    5.6960  154.6120 N.am    8  ALA8       -0.1963
     12  CA        58.7820    4.6500  155.0250 C.3     8  ALA8        0.1728
     13  C         59.1210    3.7060  153.8790 C.2     8  ALA8        0.2617
     14  O         60.2450    3.2180  153.7810 O.2     8  ALA8       -0.2715
     15  CB        58.2080    3.8580  156.1930 C.3     8  ALA8        0.0334
     16  N         58.1430    3.4480  153.0170 N.am    9  GLY9       -0.1940
     17  CA        58.2830    2.4360  151.9850 C.3     9  GLY9        0.2014
     18  C         57.4530    1.2190  152.3540 C.2     9  GLY9        0.2639
     19  O         57.4990    0.1840  151.6880 O.2     9  GLY9       -0.2714
     20  N         56.7050    1.3600  153.4440 N.am   10  LYS10      -0.1963
     21  CA        55.7420    0.3680  153.9030 C.3    10  LYS10       0.1728
     22  C         54.7630    0.0050  152.8040 C.2    10  LYS10       0.2617
     23  O         54.5940   -1.1640  152.4370 O.2    10  LYS10      -0.2715
     24  CB        54.9670    0.9210  155.0980 C.3    10  LYS10       0.0311
     25  CG        55.6980    2.0290  155.8410 C.3    10  LYS10       0.0038
     26  CD        55.1570    2.2650  157.2520 C.3    10  LYS10       0.0206
     27  CE        53.8420    3.0400  157.2650 C.3    10  LYS10       0.1093
     28  NZ        53.9040    4.2730  156.4270 N.3    10  LYS10      -0.1314
     29  N         54.1160    1.0520  152.3030 N.am   11  THR11      -0.1937
     30  CA        53.0600    0.9560  151.3150 C.3    11  THR11       0.2028
     31  C         53.5560    0.3060  150.0420 C.2    11  THR11       0.2642
     32  O         52.9340   -0.6180  149.5200 O.2    11  THR11      -0.2714
     33  CB        52.5030    2.3420  150.9950 C.3    11  THR11       0.1808
     34  OG1       52.1080    2.9760  152.2150 O.3    11  THR11      -0.2208
     35  CG2       51.3150    2.2400  150.0670 C.3    11  THR11       0.0379
     36  N         54.6850    0.7940  149.5460 N.am   12  ALA12      -0.1977
     37  CA        55.2980    0.2030  148.3730 C.3    12  ALA12       0.1597
     38  C         55.6490   -1.2560  148.6480 C.2    12  ALA12       0.2287
     39  O         55.5630   -2.0880  147.7590 O.2    12  ALA12      -0.2864
     40  CB        56.5350    0.9850  147.9580 C.3    12  ALA12       0.0319
     41  N         54.5850    1.9190  142.2120 N.3    31  GLN31      -0.1231
     42  CA        54.7640    3.1630  142.9410 C.3    31  GLN31       0.1698
     43  C         53.4650    3.5540  143.6320 C.2    31  GLN31       0.2593
     44  O         52.3710    3.3700  143.0970 O.2    31  GLN31      -0.2718
     45  CB        55.2410    4.2770  142.0080 C.3    31  GLN31       0.0381
     46  CG        54.1370    5.1560  141.4460 C.3    31  GLN31       0.0905
     47  CD        53.2370    4.4270  140.4720 C.2    31  GLN31       0.2608
     48  OE1       53.2420    3.1980  140.3980 O.2    31  GLN31      -0.2717
     49  NE2       52.4570    5.1860  139.7150 N.am   31  GLN31      -0.0878
     50  N         53.5990    4.0720  144.8430 N.am   32  THR32      -0.1939
     51  CA        52.4540    4.3600  145.6850 C.3    32  THR32       0.2028
     52  C         52.5350    5.7940  146.1680 C.2    32  THR32       0.2642
     53  O         53.4480    6.5270  145.7930 O.2    32  THR32      -0.2714
     54  CB        52.4010    3.4100  146.8940 C.3    32  THR32       0.1808
     55  OG1       53.5920    3.5730  147.6740 O.3    32  THR32      -0.2208
     56  CG2       52.2990    1.9630  146.4340 C.3    32  THR32       0.0379
     57  N         51.5810    6.1930  146.9980 N.am   33  HIS33      -0.1959
     58  CA        51.6320    7.5030  147.6350 C.3    33  HIS33       0.1787
     59  C         51.3680    7.3790  149.1310 C.2    33  HIS33       0.2621
     60  O         51.2570    6.2680  149.6530 O.2    33  HIS33      -0.2715
     61  CB        50.6350    8.4560  146.9780 C.3    33  HIS33       0.0785
     62  CG        51.1220    9.0210  145.6800 C.ar   33  HIS33       0.0821
     63  ND1       52.2250    9.8410  145.5960 N.ar   33  HIS33      -0.2267
     64  CD2       50.6670    8.8750  144.4120 C.ar   33  HIS33       0.1154
     65  CE1       52.4270   10.1820  144.3360 C.ar   33  HIS33       0.1986
     66  NE2       51.4930    9.6090  143.5970 N.ar   33  HIS33      -0.2212
     67  N         51.3060    8.5180  149.8150 N.am   34  THR34      -0.1937
     68  CA        50.9450    8.5440  151.2240 C.3    34  THR34       0.2028
     69  C         49.7080    7.6920  151.4430 C.2    34  THR34       0.2642
     70  O         48.6460    7.9660  150.8820 O.2    34  THR34      -0.2714
     71  CB        50.6770    9.9760  151.7230 C.3    34  THR34       0.1808
     72  OG1       51.8310   10.7920  151.4840 O.3    34  THR34      -0.2208
     73  CG2       50.3350    9.9780  153.2120 C.3    34  THR34       0.0379
     74  N         49.8700    6.6340  152.2290 N.am   35  SER35      -0.1949
     75  CA        48.7630    5.7750  152.6060 C.3    35  SER35       0.1924
     76  C         47.7860    6.5360  153.4700 C.2    35  SER35       0.2314
     77  O         48.1110    7.5880  154.0190 O.2    35  SER35      -0.2863
     78  CB        49.2650    4.5500  153.3650 C.3    35  SER35       0.2116
     79  OG        50.3530    3.9500  152.6880 O.3    35  SER35      -0.2180
     80  N         50.1930    0.0450  156.8080 N.3    46  THR46      -0.1218
     81  CA        49.7190    1.0580  157.7310 C.3    46  THR46       0.1862
     82  C         50.1210    2.4200  157.1960 C.2    46  THR46       0.2287
     83  O         51.0800    2.5280  156.4340 O.2    46  THR46      -0.2866
     84  CB        50.3100    0.8630  159.1310 C.3    46  THR46       0.1770
     85  OG1       49.6530    1.7290  160.0630 O.3    46  THR46      -0.2211
     86  CG2       51.7920    1.1840  159.1110 C.3    46  THR46       0.0375
     87  N         51.9440    6.0330  157.7120 N.3    48  GLY48      -0.1225
     88  CA        53.0140    6.4620  158.5810 C.3    48  GLY48       0.1811
     89  C         52.5680    7.6830  159.3500 C.2    48  GLY48       0.2280
     90  O         53.3350    8.2740  160.1070 O.2    48  GLY48      -0.2866
     91  N         65.1920    0.1140  155.1350 N.3    97  ASN97      -0.1225
     92  CA        64.6930    0.1390  153.7610 C.3    97  ASN97       0.1785
     93  C         65.4190    1.1750  152.9030 C.2    97  ASN97       0.2597
     94  O         66.1710    1.9990  153.4170 O.2    97  ASN97      -0.2718
     95  CB        63.1840    0.4170  153.7620 C.3    97  ASN97       0.1169
     96  CG        62.5500    0.2520  152.3900 C.2    97  ASN97       0.2627
     97  OD1       62.9770    0.8690  151.4180 O.2    97  ASN97      -0.2716
     98  ND2       61.5250   -0.5880  152.3090 N.am   97  ASN97      -0.0877
     99  N         65.1810    1.1300  151.5960 N.am   98  LYS98      -0.1980
    100  CA        65.7970    2.0700  150.6680 C.3    98  LYS98       0.1596
    101  C         67.3060    1.8860  150.6690 C.2    98  LYS98       0.2287
    102  O         68.0660    2.8520  150.5820 O.2    98  LYS98      -0.2864
    103  CB        65.4270    3.5090  151.0270 C.3    98  LYS98       0.0298
    104  CG        63.9360    3.7890  150.9770 C.3    98  LYS98       0.0038
    105  CD        63.6420    5.2630  151.2020 C.3    98  LYS98       0.0206
    106  CE        62.2540    5.6350  150.7040 C.3    98  LYS98       0.1093
    107  NZ        61.9520    7.0800  150.8890 N.3    98  LYS98      -0.1314
    108  N         68.8400    0.6220  148.3810 N.3   100  ASP100     -0.1239
    109  CA        69.2740    0.8410  147.0070 C.3   100  ASP100      0.1674
    110  C         70.1570    2.0790  146.9290 C.2   100  ASP100      0.2266
    111  O         71.2020    2.0700  146.2800 O.2   100  ASP100     -0.2867
    112  CB        68.0750    0.9910  146.0620 C.3   100  ASP100      0.1410
    113  CG        66.7440    0.7930  146.7630 C.2   100  ASP100      0.3668
    114  OD1       66.0800    1.8050  147.0780 O.co2 100  ASP100     -0.2456
    115  OD2       66.3590   -0.3740  146.9900 O.co2 100  ASP100     -0.2456
    116  N         65.5360   -3.9420  150.8390 N.3   130  ASN130     -0.1225
    117  CA        65.1300   -2.8690  149.9510 C.3   130  ASN130      0.1785
    118  C         64.1360   -3.3420  148.9030 C.2   130  ASN130      0.2597
    119  O         64.3350   -4.3680  148.2530 O.2   130  ASN130     -0.2718
    120  CB        66.3540   -2.2410  149.2820 C.3   130  ASN130      0.1169
    121  CG        66.9590   -3.1310  148.2230 C.2   130  ASN130      0.2627
    122  OD1       67.4950   -4.1920  148.5260 O.2   130  ASN130     -0.2716
    123  ND2       66.8790   -2.7010  146.9690 N.am  130  ASN130     -0.0877
    124  N         63.0470   -2.5950  148.7660 N.am  131  VAL131     -0.1980
    125  CA        62.0810   -2.8410  147.7090 C.3   131  VAL131      0.1595
    126  C         62.6360   -2.3390  146.3810 C.2   131  VAL131      0.2287
    127  O         62.4040   -2.9320  145.3300 O.2   131  VAL131     -0.2864
    128  CB        60.7350   -2.1530  147.9910 C.3   131  VAL131      0.0276
    129  CG1       59.7440   -2.4560  146.8790 C.3   131  VAL131      0.0022
    130  CG2       60.1850   -2.5910  149.3390 C.3   131  VAL131      0.0022
    131  N         68.4250   -2.1740  143.3080 N.3   132  ASP132     -0.1239
    132  CA        69.5090   -3.1310  143.5060 C.3   132  ASP132      0.1674
    133  C         70.0510   -3.0700  144.9290 C.2   132  ASP132      0.2266
    134  O         70.6490   -2.0730  145.3310 O.2   132  ASP132     -0.2867
    135  CB        70.6440   -2.8780  142.5130 C.3   132  ASP132      0.1410
    136  CG        70.2940   -1.8270  141.4790 C.2   132  ASP132      0.3668
    137  OD1       70.7640   -1.9540  140.3290 O.co2 132  ASP132     -0.2456
    138  OD2       69.5560   -0.8760  141.8150 O.co2 132  ASP132     -0.2456
@<TRIPOS>BOND
     1    49    47   am
     2   137   136   ar
     3    48    47    2
     4    47    46    1
     5    46    45    1
     6   136   138   ar
     7   136   135    1
     8    45    42    1
     9    41    42    1
    10   135   132    1
    11    42    43    1
    12    44    43    2
    13   131   132    1
    14   132   133    1
    15    66    65   ar
    16    66    64   ar
    17    43    50   am
    18    65    63   ar
    19    64    62   ar
    20    50    51    1
    21   133   134    2
    22   127   126    2
    23    63    62   ar
    24    62    61    1
    25    51    52    1
    26    51    54    1
    27    53    52    2
    28   112   113    1
    29   112   109    1
    30    52    57   am
    31   111   110    2
    32   126   125    1
    33    56    54    1
    34   113   115   ar
    35   113   114   ar
    36   129   128    1
    37    54    55    1
    38   110   109    1
    39   123   121   am
    40    61    58    1
    41    57    58    1
    42   109   108    1
    43    58    59    1
    44   125   128    1
    45   125   124    1
    46    39    38    2
    47    40    37    1
    48   128   130    1
    49   121   122    2
    50   121   120    1
    51   119   118    2
    52    37    38    1
    53    37    36    1
    54   124   118   am
    55   118   117    1
    56    59    60    2
    57    59    67   am
    58   120   117    1
    59    32    31    2
    60    36    31   am
    61    67    68    1
    62   117   116    1
    63    31    30    1
    64    35    33    1
    65   102   101    2
    66   100   101    1
    67   100   103    1
    68   100    99    1
    69   106   107    1
    70   106   105    1
    71    70    69    2
    72   104   103    1
    73   104   105    1
    74    33    30    1
    75    33    34    1
    76    68    69    1
    77    68    71    1
    78    30    29    1
    79    97    96    2
    80    69    74   am
    81    72    71    1
    82    99    93   am
    83    19    18    2
    84    71    73    1
    85    17    18    1
    86    17    16    1
    87    74    75    1
    88    29    22   am
    89    98    96   am
    90    18    20   am
    91    96    95    1
    92    23    22    2
    93    75    78    1
    94    75    76    1
    95    79    78    1
    96    22    21    1
    97    93    94    2
    98    93    92    1
    99    16    13   am
   100    10     9    2
   101    20    21    1
   102     8     9    1
   103     8     7    1
   104    76    77    2
   105    92    95    1
   106    92    91    1
   107    14    13    2
   108     9    11   am
   109    13    12    1
   110    21    24    1
   111     7     3   am
   112    11    12    1
   113    12    15    1
   114    24    25    1
   115     3     4    2
   116     3     2    1
   117    25    26    1
   118    28    27    1
   119    83    82    2
   120     5     2    1
   121     5     6    1
   122     2     1    1
   123    80    81    1
   124    82    81    1
   125    26    27    1
   126    87    88    1
   127    81    84    1
   128    88    89    1
   129    86    84    1
   130    84    85    1
   131    89    90    2
