@<TRIPOS>MOLECULE
tmp/5ck3D00.pdb
 168 165 0 0 0
SMALL
GASTEIGER

@<TRIPOS>ATOM
      1  N         37.4710  -11.2800   88.9100 N.3    12  PRO12      -0.2102
      2  CA        36.8440  -12.5300   88.4770 C.3    12  PRO12       0.1504
      3  C         35.5410  -12.2560   87.7400 C.2    12  PRO12       0.2576
      4  O         35.0170  -11.1450   87.8190 O.2    12  PRO12      -0.2718
      5  CB        36.5950  -13.2760   89.7920 C.3    12  PRO12       0.0282
      6  CG        36.5450  -12.2080   90.8330 C.3    12  PRO12       0.0208
      7  CD        37.4820  -11.1340   90.3750 C.3    12  PRO12       0.0893
      8  N         35.0380  -13.2550   87.0250 N.am   13  SER13      -0.1938
      9  CA        33.7530  -13.1440   86.3490 C.3    13  SER13       0.2055
     10  C         32.6260  -12.9040   87.3560 C.2    13  SER13       0.2644
     11  O         32.6410  -13.4430   88.4640 O.2    13  SER13      -0.2714
     12  CB        33.4770  -14.4050   85.5270 C.3    13  SER13       0.2130
     13  OG        34.5810  -14.7200   84.6950 O.3    13  SER13      -0.2179
     14  N         31.6520  -12.0910   86.9650 N.am   14  GLY14      -0.1939
     15  CA        30.5430  -11.7460   87.8380 C.3    14  GLY14       0.2014
     16  C         30.8360  -10.5150   88.6770 C.2    14  GLY14       0.2639
     17  O         29.9910  -10.0570   89.4470 O.2    14  GLY14      -0.2714
     18  N         32.0420   -9.9780   88.5240 N.am   15  ALA15      -0.1963
     19  CA        32.4840   -8.8410   89.3240 C.3    15  ALA15       0.1728
     20  C         31.7530   -7.5630   88.9410 C.2    15  ALA15       0.2617
     21  O         31.5900   -6.6650   89.7620 O.2    15  ALA15      -0.2715
     22  CB        33.9840   -8.6500   89.1850 C.3    15  ALA15       0.0334
     23  N         31.3180   -7.4850   87.6890 N.am   16  GLY16      -0.1940
     24  CA        30.5890   -6.3260   87.2080 C.3    16  GLY16       0.2014
     25  C         31.4930   -5.3220   86.5210 C.2    16  GLY16       0.2639
     26  O         31.1580   -4.1410   86.4150 O.2    16  GLY16      -0.2714
     27  N         32.6460   -5.7940   86.0570 N.am   17  LYS17      -0.1963
     28  CA        33.6050   -4.9420   85.3670 C.3    17  LYS17       0.1728
     29  C         33.0120   -4.3630   84.0850 C.2    17  LYS17       0.2617
     30  O         33.1100   -3.1620   83.8220 O.2    17  LYS17      -0.2715
     31  CB        34.8720   -5.7300   85.0410 C.3    17  LYS17       0.0311
     32  CG        35.4570   -6.4770   86.2190 C.3    17  LYS17       0.0038
     33  CD        36.6770   -7.2700   85.8040 C.3    17  LYS17       0.0206
     34  CE        36.3590   -8.7510   85.7490 C.3    17  LYS17       0.1093
     35  NZ        36.8080   -9.3890   84.4820 N.3    17  LYS17      -0.1314
     36  N         32.4050   -5.2350   83.2870 N.am   18  THR18      -0.1937
     37  CA        31.7940   -4.8410   82.0260 C.3    18  THR18       0.2028
     38  C         30.5350   -4.0220   82.2600 C.2    18  THR18       0.2642
     39  O         30.1800   -3.1730   81.4440 O.2    18  THR18      -0.2714
     40  CB        31.4400   -6.0680   81.1660 C.3    18  THR18       0.1808
     41  OG1       32.6120   -6.8680   80.9610 O.3    18  THR18      -0.2208
     42  CG2       30.8850   -5.6330   79.8210 C.3    18  THR18       0.0379
     43  N         29.8620   -4.2830   83.3770 N.am   19  ALA19      -0.1977
     44  CA        28.6390   -3.5600   83.7180 C.3    19  ALA19       0.1597
     45  C         28.9560   -2.2270   84.3930 C.2    19  ALA19       0.2287
     46  O         28.2320   -1.2490   84.2210 O.2    19  ALA19      -0.2864
     47  CB        27.7470   -4.4110   84.6110 C.3    19  ALA19       0.0319
     48  N         22.3720   -4.9310   80.2260 N.3    52  GLN52      -0.1231
     49  CA        22.5830   -6.3630   80.3750 C.3    52  GLN52       0.1698
     50  C         23.9600   -6.7270   79.8350 C.2    52  GLN52       0.2593
     51  O         24.4310   -6.1180   78.8810 O.2    52  GLN52      -0.2718
     52  CB        21.4870   -7.1410   79.6420 C.3    52  GLN52       0.0381
     53  CG        20.1520   -6.4160   79.6230 C.3    52  GLN52       0.0905
     54  CD        18.9680   -7.3540   79.5220 C.2    52  GLN52       0.2608
     55  OE1       19.1280   -8.5590   79.3310 O.2    52  GLN52      -0.2717
     56  NE2       17.7670   -6.8040   79.6600 N.am   52  GLN52      -0.0878
     57  N         24.6150   -7.7040   80.4500 N.am   53  THR53      -0.1939
     58  CA        25.9320   -8.1180   79.9900 C.3    53  THR53       0.2028
     59  C         26.2020   -9.5840   80.2890 C.2    53  THR53       0.2642
     60  O         25.6670  -10.1430   81.2440 O.2    53  THR53      -0.2714
     61  CB        27.0400   -7.2780   80.6300 C.3    53  THR53       0.1808
     62  OG1       28.3120   -7.8630   80.3250 O.3    53  THR53      -0.2208
     63  CG2       26.8650   -7.2420   82.1370 C.3    53  THR53       0.0379
     64  N         27.0330  -10.2040   79.4600 N.am   54  HIS54      -0.1959
     65  CA        27.4190  -11.5930   79.6620 C.3    54  HIS54       0.1787
     66  C         28.9310  -11.7180   79.6430 C.2    54  HIS54       0.2621
     67  O         29.6330  -10.7100   79.5400 O.2    54  HIS54      -0.2715
     68  CB        26.7800  -12.4860   78.6060 C.3    54  HIS54       0.0785
     69  CG        25.3100  -12.6490   78.7840 C.ar   54  HIS54       0.0821
     70  ND1       24.7550  -13.6700   79.5280 N.ar   54  HIS54      -0.2267
     71  CD2       24.2660  -11.9050   78.3430 C.ar   54  HIS54       0.1154
     72  CE1       23.4410  -13.5580   79.5230 C.ar   54  HIS54       0.1986
     73  NE2       23.1200  -12.4920   78.8060 N.ar   54  HIS54      -0.2212
     74  N         29.4330  -12.9460   79.7520 N.am   55  THR55      -0.1937
     75  CA        30.8630  -13.1520   79.9390 C.3    55  THR55       0.2028
     76  C         31.6570  -12.4390   78.8640 C.2    55  THR55       0.2642
     77  O         31.4470  -12.6480   77.6710 O.2    55  THR55      -0.2714
     78  CB        31.2430  -14.6380   79.9400 C.3    55  THR55       0.1808
     79  OG1       30.6050  -15.2920   81.0420 O.3    55  THR55      -0.2208
     80  CG2       32.7500  -14.7880   80.0810 C.3    55  THR55       0.0379
     81  N         32.5440  -11.5610   79.3110 N.am   56  SER56      -0.1949
     82  CA        33.4420  -10.8480   78.4210 C.3    56  SER56       0.1924
     83  C         34.5770  -11.7690   78.0000 C.2    56  SER56       0.2314
     84  O         35.3140  -12.2820   78.8470 O.2    56  SER56      -0.2863
     85  CB        33.9930   -9.5990   79.1110 C.3    56  SER56       0.2116
     86  OG        32.9720   -8.9400   79.8460 O.3    56  SER56      -0.2180
     87  N         38.1210   -2.6050   80.2220 N.3    87  ASP87      -0.1225
     88  CA        37.5330   -3.7250   80.8980 C.3    87  ASP87       0.1805
     89  C         38.4510   -4.8170   80.5640 C.2    87  ASP87       0.2598
     90  O         39.3720   -4.6220   79.8320 O.2    87  ASP87      -0.2718
     91  CB        36.1590   -4.0650   80.3710 C.3    87  ASP87       0.1424
     92  CG        35.5650   -5.2600   81.0370 C.2    87  ASP87       0.3668
     93  OD1       36.2920   -6.1700   81.4330 O.co2  87  ASP87      -0.2456
     94  OD2       34.3400   -5.3140   81.1520 O.co2  87  ASP87      -0.2456
     95  N         38.2370   -5.9430   81.2230 N.am   88  THR88      -0.1939
     96  CA        39.0070   -7.1620   81.0270 C.3    88  THR88       0.2013
     97  C         38.1240   -8.3710   81.2890 C.2    88  THR88       0.2484
     98  O         37.0850   -8.2560   81.9450 O.2    88  THR88      -0.2729
     99  CB        40.2300   -7.2190   81.9540 C.3    88  THR88       0.1807
    100  OG1       39.8400   -6.8030   83.2690 O.3    88  THR88      -0.2208
    101  CG2       41.3330   -6.3080   81.4450 C.3    88  THR88       0.0379
    102  N         38.5340   -9.5420   80.7840 N.am   89  PRO89      -0.2715
    103  CA        37.7600  -10.7530   81.0490 C.3    89  PRO89       0.1536
    104  C         38.1390  -11.3450   82.4010 C.2    89  PRO89       0.2599
    105  O         39.2800  -11.1910   82.8360 O.2    89  PRO89      -0.2715
    106  CB        38.1510  -11.6860   79.8930 C.3    89  PRO89       0.0310
    107  CG        39.2590  -10.9620   79.1200 C.3    89  PRO89       0.0237
    108  CD        39.7280   -9.8330   79.9780 C.3    89  PRO89       0.0939
    109  N         37.1910  -12.0020   83.0580 N.am   90  GLY90      -0.1955
    110  CA        37.4440  -12.5800   84.3630 C.3    90  GLY90       0.1869
    111  C         37.8690  -14.0320   84.2960 C.2    90  GLY90       0.2309
    112  O         38.4420  -14.5580   85.2480 O.2    90  GLY90      -0.2863
    113  N         32.1200   -4.7530   94.7140 N.3   162  ASN162     -0.1225
    114  CA        30.8690   -4.4310   94.0370 C.3   162  ASN162      0.1785
    115  C         29.6500   -5.0470   94.7150 C.2   162  ASN162      0.2597
    116  O         29.7680   -5.7390   95.7230 O.2   162  ASN162     -0.2718
    117  CB        30.9300   -4.8970   92.5850 C.3   162  ASN162      0.1169
    118  CG        30.1430   -4.0020   91.6530 C.2   162  ASN162      0.2627
    119  OD1       30.5680   -2.8940   91.3410 O.2   162  ASN162     -0.2716
    120  ND2       28.9960   -4.4840   91.1910 N.am  162  ASN162     -0.0877
    121  N         28.4780   -4.7800   94.1500 N.am  163  LYS163     -0.1980
    122  CA        27.2360   -5.4190   94.5720 C.3   163  LYS163      0.1596
    123  C         26.8630   -5.1220   96.0250 C.2   163  LYS163      0.2287
    124  O         26.4000   -6.0050   96.7480 O.2   163  LYS163     -0.2864
    125  CB        27.3330   -6.9330   94.3670 C.3   163  LYS163      0.0298
    126  CG        27.9540   -7.3510   93.0380 C.3   163  LYS163      0.0038
    127  CD        27.1120   -8.4210   92.3660 C.3   163  LYS163      0.0206
    128  CE        27.8390   -9.0670   91.2050 C.3   163  LYS163      0.1093
    129  NZ        26.9590  -10.0460   90.5110 N.3   163  LYS163     -0.1314
    130  N         24.5010   -3.2660   96.8310 N.3   165  ASP165     -0.1225
    131  CA        23.0460   -3.2170   96.8610 C.3   165  ASP165      0.1805
    132  C         22.5380   -4.5390   97.4150 C.2   165  ASP165      0.2597
    133  O         21.4520   -4.6200   97.9960 O.2   165  ASP165     -0.2718
    134  CB        22.4660   -2.9520   95.4690 C.3   165  ASP165      0.1424
    135  CG        22.8120   -4.0460   94.4720 C.2   165  ASP165      0.3668
    136  OD1       23.9940   -4.4430   94.4110 O.co2 165  ASP165     -0.2456
    137  OD2       21.9010   -4.5110   93.7540 O.co2 165  ASP165     -0.2456
    138  N         23.3430   -5.5780   97.2210 N.am  166  LEU166     -0.1979
    139  CA        23.0750   -6.8820   97.8050 C.3   166  LEU166      0.1596
    140  C         23.1730   -6.8020   99.3210 C.2   166  LEU166      0.2287
    141  O         24.1460   -6.2830   99.8650 O.2   166  LEU166     -0.2864
    142  CB        24.0480   -7.9270   97.2560 C.3   166  LEU166      0.0297
    143  CG        23.8430   -8.2500   95.7740 C.3   166  LEU166      0.0022
    144  CD1       24.8700   -9.2510   95.2540 C.3   166  LEU166      0.0001
    145  CD2       22.4260   -8.7590   95.5530 C.3   166  LEU166      0.0001
    146  N         27.9340   -0.1260   94.2730 N.3   211  ASN211     -0.1225
    147  CA        27.1070   -1.0150   93.4750 C.3   211  ASN211      0.1785
    148  C         26.8030   -0.4060   92.1220 C.2   211  ASN211      0.2597
    149  O         26.5610    0.7940   92.0130 O.2   211  ASN211     -0.2718
    150  CB        25.8100   -1.3450   94.2130 C.3   211  ASN211      0.1169
    151  CG        24.9060   -0.1470   94.3580 C.2   211  ASN211      0.2627
    152  OD1       25.2480    0.8240   95.0300 O.2   211  ASN211     -0.2716
    153  ND2       23.7400   -0.2080   93.7320 N.am  211  ASN211     -0.0877
    154  N         26.8340   -1.2360   91.0870 N.am  212  VAL212     -0.1966
    155  CA        26.5010   -0.7800   89.7470 C.3   212  VAL212      0.1727
    156  C         24.9890   -0.7440   89.5570 C.2   212  VAL212      0.2616
    157  O         24.4540    0.1680   88.9280 O.2   212  VAL212     -0.2715
    158  CB        27.1220   -1.6780   88.6690 C.3   212  VAL212      0.0290
    159  CG1       26.8740   -1.0880   87.2980 C.3   212  VAL212      0.0023
    160  CG2       28.6120   -1.8480   88.9110 C.3   212  VAL212      0.0023
    161  N         24.3070   -1.7410   90.1140 N.am  213  ILE213     -0.1977
    162  CA        22.8620   -1.8620   89.9600 C.3   213  ILE213      0.1596
    163  C         22.0960   -1.6530   91.2640 C.2   213  ILE213      0.2287
    164  O         22.6330   -1.8470   92.3540 O.2   213  ILE213     -0.2864
    165  CB        22.4730   -3.2390   89.3980 C.3   213  ILE213      0.0276
    166  CG1       23.2760   -3.5560   88.1420 C.3   213  ILE213      0.0022
    167  CG2       20.9850   -3.2940   89.0850 C.3   213  ILE213      0.0022
    168  CD1       22.8130   -4.8150   87.4470 C.3   213  ILE213      0.0001
@<TRIPOS>BOND
     1    77    76    2
     2    83    82    1
     3    83    84    2
     4    71    69   ar
     5    71    73   ar
     6    82    85    1
     7    82    81    1
     8    68    69    1
     9    68    65    1
    10    69    70   ar
    11    73    72   ar
    12    76    81   am
    13    76    75    1
    14    51    50    2
    15    85    86    1
    16   107   106    1
    17   107   108    1
    18    55    54    2
    19    64    65    1
    20    64    59   am
    21    54    53    1
    22    54    56   am
    23    72    70   ar
    24    67    66    2
    25    53    52    1
    26    52    49    1
    27    66    65    1
    28    66    74   am
    29    74    75    1
    30    42    40    1
    31    90    89    2
    32    50    49    1
    33    50    57   am
    34   106   103    1
    35    75    78    1
    36    78    80    1
    37    78    79    1
    38   108   102    1
    39    58    59    1
    40    58    57    1
    41    58    61    1
    42    87    88    1
    43    48    49    1
    44    59    60    2
    45    62    61    1
    46    91    88    1
    47    91    92    1
    48    89    88    1
    49    89    95   am
    50    61    63    1
    51   102   103    1
    52   102    97   am
    53    41    40    1
    54    96    95    1
    55    96    97    1
    56    96    99    1
    57    92    94   ar
    58    92    93   ar
    59   103   104    1
    60    40    37    1
    61    97    98    2
    62    39    38    2
    63   101    99    1
    64    99   100    1
    65    37    38    1
    66    37    36    1
    67    38    43   am
    68   104   105    2
    69   104   109   am
    70   109   110    1
    71    36    29   am
    72    43    44    1
    73    44    45    1
    74    44    47    1
    75    30    29    2
    76    29    28    1
    77    46    45    2
    78   111   110    1
    79   111   112    2
    80    35    34    1
    81    13    12    1
    82    31    28    1
    83    31    32    1
    84    28    27    1
    85    12     9    1
    86    34    33    1
    87    33    32    1
    88    27    25   am
    89     9     8    1
    90     9    10    1
    91    26    25    2
    92    25    24    1
    93    14    10   am
    94    14    15    1
    95     8     3   am
    96    24    23    1
    97   159   158    1
    98    10    11    2
    99   168   166    1
   100    23    20   am
   101     3     4    2
   102     3     2    1
   103    15    16    1
   104   166   165    1
   105     2     1    1
   106     2     5    1
   107    18    16   am
   108    18    19    1
   109   158   160    1
   110   158   155    1
   111    16    17    2
   112     1     7    1
   113   157   156    2
   114    20    19    1
   115    20    21    2
   116   167   165    1
   117    22    19    1
   118   165   162    1
   119   156   155    1
   120   156   161   am
   121   155   154    1
   122     5     6    1
   123   162   161    1
   124   162   163    1
   125     7     6    1
   126   129   128    1
   127   154   148   am
   128   120   118   am
   129   128   127    1
   130   163   164    2
   131   119   118    2
   132   118   117    1
   133   149   148    2
   134   148   147    1
   135   127   126    1
   136   117   114    1
   137   126   125    1
   138   147   150    1
   139   147   146    1
   140   153   151   am
   141   137   135   ar
   142   114   113    1
   143   114   115    1
   144   121   122    1
   145   121   115   am
   146   150   151    1
   147   151   152    2
   148   125   122    1
   149   136   135   ar
   150   135   134    1
   151   122   123    1
   152   115   116    2
   153   144   143    1
   154   134   131    1
   155   145   143    1
   156   143   142    1
   157   123   124    2
   158   130   131    1
   159   131   132    1
   160   138   132   am
   161   138   139    1
   162   142   139    1
   163   132   133    2
   164   139   140    1
   165   140   141    2
