@<TRIPOS>MOLECULE
tmp/5ck4A00.pdb
 104 99 0 0 0
SMALL
GASTEIGER

@<TRIPOS>ATOM
      1  N         -7.2150   20.0480   -7.8900 N.3    12  SER12      -0.1202
      2  CA        -8.0620   20.6470   -8.9120 C.3    12  SER12       0.2020
      3  C         -7.5110   22.0090   -9.3500 C.2    12  SER12       0.2619
      4  O         -6.9400   22.7340   -8.5450 O.2    12  SER12      -0.2717
      5  CB        -9.4800   20.8110   -8.3790 C.3    12  SER12       0.2103
      6  OG       -10.0330   19.5530   -8.0360 O.3    12  SER12      -0.2182
      7  N         -7.7040   22.3540  -10.6210 N.am   13  GLY13      -0.1942
      8  CA        -7.2170   23.6180  -11.1600 C.3    13  GLY13       0.2014
      9  C         -5.7630   23.6000  -11.5990 C.2    13  GLY13       0.2639
     10  O         -5.2450   24.5940  -12.0930 O.2    13  GLY13      -0.2714
     11  N         -5.0890   22.4740  -11.4090 N.am   14  ALA14      -0.1963
     12  CA        -3.6690   22.3930  -11.7450 C.3    14  ALA14       0.1728
     13  C         -3.4690   22.4650  -13.2530 C.2    14  ALA14       0.2617
     14  O         -2.4300   22.9360  -13.7150 O.2    14  ALA14      -0.2715
     15  CB        -3.0720   21.1210  -11.2190 C.3    14  ALA14       0.0334
     16  N         -4.4630   21.9770  -13.9990 N.am   15  GLY15      -0.1940
     17  CA        -4.3790   21.9030  -15.4510 C.3    15  GLY15       0.2014
     18  C         -4.3610   20.4690  -15.9730 C.2    15  GLY15       0.2639
     19  O         -3.8900   20.2100  -17.0760 O.2    15  GLY15      -0.2714
     20  N         -4.8730   19.5250  -15.1890 N.am   16  LYS16      -0.1963
     21  CA        -4.8420   18.1190  -15.6030 C.3    16  LYS16       0.1728
     22  C         -5.6720   17.8640  -16.8690 C.2    16  LYS16       0.2617
     23  O         -5.2030   17.2070  -17.8010 O.2    16  LYS16      -0.2715
     24  CB        -5.2710   17.1950  -14.4540 C.3    16  LYS16       0.0311
     25  CG        -4.3380   17.2940  -13.2240 C.3    16  LYS16       0.0038
     26  CD        -4.6590   16.2620  -12.1520 C.3    16  LYS16       0.0206
     27  CE        -6.0910   16.3910  -11.6440 C.3    16  LYS16       0.1093
     28  NZ        -6.4690   17.8010  -11.2890 N.3    16  LYS16      -0.1314
     29  N         -6.8890   18.3940  -16.9090 N.am   17  THR17      -0.1937
     30  CA        -7.7490   18.2200  -18.0790 C.3    17  THR17       0.2028
     31  C         -7.0880   18.8340  -19.3060 C.2    17  THR17       0.2642
     32  O         -7.0400   18.2190  -20.3790 O.2    17  THR17      -0.2714
     33  CB        -9.1480   18.8480  -17.8750 C.3    17  THR17       0.1808
     34  OG1       -9.7680   18.2860  -16.7090 O.3    17  THR17      -0.2208
     35  CG2      -10.0380   18.5960  -19.1020 C.3    17  THR17       0.0379
     36  N         -6.5600   20.0420  -19.1330 N.am   18  ALA18      -0.1977
     37  CA        -5.8800   20.7450  -20.2210 C.3    18  ALA18       0.1597
     38  C         -4.6730   19.9590  -20.7400 C.2    18  ALA18       0.2287
     39  O         -4.4570   19.8590  -21.9500 O.2    18  ALA18      -0.2864
     40  CB        -5.4570   22.1450  -19.7640 C.3    18  ALA18       0.0319
     41  N         -5.6950   10.5560  -16.3140 N.3    46  ASP46      -0.1239
     42  CA        -6.1970   11.6590  -15.5040 C.3    46  ASP46       0.1674
     43  C         -6.8800   11.0880  -14.2560 C.2    46  ASP46       0.2266
     44  O         -7.5440   10.0700  -14.3390 O.2    46  ASP46      -0.2867
     45  CB        -7.1980   12.4660  -16.3380 C.3    46  ASP46       0.1410
     46  CG        -7.5700   13.7810  -15.7020 C.2    46  ASP46       0.3668
     47  OD1       -6.8790   14.2120  -14.7560 O.co2  46  ASP46      -0.2456
     48  OD2       -8.5500   14.3940  -16.1640 O.co2  46  ASP46      -0.2456
     49  N          3.3230   23.6670  -13.4800 N.3   134  ASN134     -0.1225
     50  CA         2.5620   24.1790  -14.6180 C.3   134  ASN134      0.1785
     51  C          2.2920   25.6900  -14.5560 C.2   134  ASN134      0.2597
     52  O          2.4630   26.3170  -13.5100 O.2   134  ASN134     -0.2718
     53  CB         1.2150   23.4350  -14.7170 C.3   134  ASN134      0.1169
     54  CG         0.5290   23.6270  -16.0620 C.2   134  ASN134      0.2627
     55  OD1        1.1890   23.8530  -17.0750 O.2   134  ASN134     -0.2716
     56  ND2       -0.8020   23.5380  -16.0760 N.am  134  ASN134     -0.0877
     57  N          1.8310   26.2370  -15.6870 N.am  135  LYS135     -0.1980
     58  CA         1.4390   27.6480  -15.8400 C.3   135  LYS135      0.1596
     59  C          2.6330   28.6080  -15.7950 C.2   135  LYS135      0.2287
     60  O          2.5010   29.7390  -15.3330 O.2   135  LYS135     -0.2864
     61  CB         0.3220   28.0760  -14.8420 C.3   135  LYS135      0.0298
     62  CG        -0.8320   27.0370  -14.7060 C.3   135  LYS135      0.0038
     63  CD        -2.1130   27.6190  -14.1390 C.3   135  LYS135      0.0206
     64  CE        -3.1550   26.5150  -13.9070 C.3   135  LYS135      0.1093
     65  NZ        -4.4510   27.0530  -13.3290 N.3   135  LYS135     -0.1314
     66  N          3.7290   30.2160  -18.1110 N.3   137  ASP137     -0.1225
     67  CA         3.4180   31.3420  -18.9890 C.3   137  ASP137      0.1805
     68  C          3.0220   32.5680  -18.1620 C.2   137  ASP137      0.2597
     69  O          3.1870   33.6960  -18.6010 O.2   137  ASP137     -0.2718
     70  CB         2.2910   30.9720  -19.9520 C.3   137  ASP137      0.1424
     71  CG         1.0420   30.4700  -19.2290 C.2   137  ASP137      0.3668
     72  OD1        1.1550   29.4930  -18.4570 O.co2 137  ASP137     -0.2456
     73  OD2       -0.0470   31.0480  -19.4430 O.co2 137  ASP137     -0.2456
     74  N          2.5000   32.3370  -16.9600 N.am  138  LEU138     -0.1979
     75  CA         2.0230   33.4300  -16.1150 C.3   138  LEU138      0.1596
     76  C          3.1850   34.1640  -15.4690 C.2   138  LEU138      0.2287
     77  O          4.1290   33.5400  -14.9920 O.2   138  LEU138     -0.2864
     78  CB         1.0740   32.8980  -15.0350 C.3   138  LEU138      0.0297
     79  CG        -0.2380   32.3010  -15.5640 C.3   138  LEU138      0.0022
     80  CD1       -1.0800   31.7270  -14.4120 C.3   138  LEU138      0.0001
     81  CD2       -1.0280   33.3430  -16.3130 C.3   138  LEU138      0.0001
     82  N          4.3100   24.6340  -19.2750 N.3   195  ASN195     -0.1225
     83  CA         2.9950   25.2370  -19.4400 C.3   195  ASN195      0.1785
     84  C          2.2200   24.5530  -20.5630 C.2   195  ASN195      0.2597
     85  O          2.8060   24.0800  -21.5360 O.2   195  ASN195     -0.2718
     86  CB         3.1240   26.7490  -19.6850 C.3   195  ASN195      0.1169
     87  CG         3.8950   27.0730  -20.9540 C.2   195  ASN195      0.2627
     88  OD1        5.1080   26.8980  -21.0100 O.2   195  ASN195     -0.2716
     89  ND2        3.1930   27.5420  -21.9780 N.am  195  ASN195     -0.0877
     90  N          0.9010   24.4880  -20.4130 N.am  196  VAL196     -0.1966
     91  CA         0.0280   23.8420  -21.3810 C.3   196  VAL196      0.1727
     92  C         -0.4990   24.8510  -22.4030 C.2   196  VAL196      0.2616
     93  O         -0.7120   24.5120  -23.5680 O.2   196  VAL196     -0.2715
     94  CB        -1.1560   23.1380  -20.6710 C.3   196  VAL196      0.0290
     95  CG1       -2.1140   22.5290  -21.6700 C.3   196  VAL196      0.0023
     96  CG2       -0.6420   22.0740  -19.7200 C.3   196  VAL196      0.0023
     97  N         -0.7000   26.0930  -21.9660 N.am  197  ILE197     -0.1977
     98  CA        -1.1630   27.1490  -22.8590 C.3   197  ILE197      0.1596
     99  C         -0.2980   28.3840  -22.6560 C.2   197  ILE197      0.2287
    100  O          0.4680   28.4410  -21.7040 O.2   197  ILE197     -0.2864
    101  CB        -2.6490   27.5050  -22.6230 C.3   197  ILE197      0.0276
    102  CG1       -2.8260   28.2140  -21.2860 C.3   197  ILE197      0.0022
    103  CG2       -3.5200   26.2580  -22.6710 C.3   197  ILE197      0.0022
    104  CD1       -4.2570   28.6310  -21.0080 C.3   197  ILE197      0.0001
@<TRIPOS>BOND
     1    93    92    2
     2    98    99    1
     3    98   101    1
     4    98    97    1
     5   103   101    1
     6    99   100    2
     7   101   102    1
     8    92    97   am
     9    92    91    1
    10    89    87   am
    11    39    38    2
    12    95    94    1
    13    85    84    2
    14    91    94    1
    15    91    90    1
    16   102   104    1
    17    88    87    2
    18    87    86    1
    19    38    37    1
    20    94    96    1
    21    84    90   am
    22    84    83    1
    23    32    31    2
    24    37    40    1
    25    37    36    1
    26    70    71    1
    27    70    67    1
    28    86    83    1
    29    73    71   ar
    30    83    82    1
    31    31    36   am
    32    31    30    1
    33    71    72   ar
    34    35    33    1
    35    67    68    1
    36    67    66    1
    37    69    68    2
    38    68    74   am
    39    30    33    1
    40    30    29    1
    41    33    34    1
    42    23    22    2
    43    19    18    2
    44    55    54    2
    45    74    75    1
    46    29    22   am
    47    22    21    1
    48    45    46    1
    49    45    42    1
    50    41    42    1
    51    81    79    1
    52    48    46   ar
    53    75    76    1
    54    75    78    1
    55    56    54   am
    56    54    53    1
    57    18    17    1
    58    18    20   am
    59    58    59    1
    60    58    57    1
    61    58    61    1
    62    59    60    2
    63    46    47   ar
    64    57    51   am
    65    21    20    1
    66    21    24    1
    67    79    78    1
    68    79    80    1
    69    42    43    1
    70    76    77    2
    71    17    16    1
    72    61    62    1
    73    53    50    1
    74    62    63    1
    75    50    51    1
    76    50    49    1
    77    51    52    2
    78    24    25    1
    79    44    43    2
    80    63    64    1
    81    16    13   am
    82    64    65    1
    83    14    13    2
    84    13    12    1
    85    25    26    1
    86    26    27    1
    87    10     9    2
    88    12    11    1
    89    12    15    1
    90    27    28    1
    91     9    11   am
    92     9     8    1
    93     8     7    1
    94     7     3   am
    95     3     2    1
    96     3     4    2
    97     2     5    1
    98     2     1    1
    99     5     6    1
