@<TRIPOS>MOLECULE
tmp/5ck7A00.pdb
 145 135 0 0 0
SMALL
GASTEIGER

@<TRIPOS>ATOM
      1  N         -6.8710   -2.2220   15.0900 N.3   112  ASN112     -0.1240
      2  CA        -7.3360   -3.0010   16.2490 C.3   112  ASN112      0.1653
      3  C         -6.9670   -4.4890   16.1600 C.2   112  ASN112      0.2266
      4  O         -6.4180   -5.0540   17.1100 O.2   112  ASN112     -0.2867
      5  CB        -8.8680   -2.8830   16.4170 C.3   112  ASN112      0.1155
      6  CG        -9.3360   -1.4590   16.5670 C.2   112  ASN112      0.2627
      7  OD1       -9.7460   -0.8250   15.5690 O.2   112  ASN112     -0.2716
      8  ND2       -9.2820   -0.9530   17.7810 N.am  112  ASN112     -0.0877
      9  N        -14.2840   -6.7490   18.9900 N.3   250  GLU250     -0.1245
     10  CA       -13.7020   -5.5650   19.6300 C.3   250  GLU250      0.1567
     11  C        -14.2500   -4.3310   18.9560 C.2   250  GLU250      0.2260
     12  O        -13.9310   -4.0340   17.8650 O.2   250  GLU250     -0.2867
     13  CB       -12.2240   -5.5820   19.5390 C.3   250  GLU250      0.0388
     14  CG       -11.5340   -4.3670   20.1000 C.3   250  GLU250      0.1160
     15  CD       -11.4980   -4.3280   21.6290 C.2   250  GLU250      0.3649
     16  OE1      -11.5160   -5.4380   22.2250 O.co2 250  GLU250     -0.2457
     17  OE2      -11.4290   -3.1540   22.1950 O.co2 250  GLU250     -0.2457
     18  N        -14.9250    0.4790   25.2980 N.3   277  ASN277     -0.1225
     19  CA       -14.6470    1.4800   26.3070 C.3   277  ASN277      0.1785
     20  C        -15.8700    2.3110   26.6510 C.2   277  ASN277      0.2597
     21  O        -16.9520    2.0750   26.1240 O.2   277  ASN277     -0.2718
     22  CB       -13.4190    2.3330   25.8980 C.3   277  ASN277      0.1169
     23  CG       -13.6680    3.2650   24.7030 C.2   277  ASN277      0.2627
     24  OD1      -14.7850    3.5980   24.3320 O.2   277  ASN277     -0.2716
     25  ND2      -12.5930    3.7230   24.1240 N.am  277  ASN277     -0.0877
     26  N        -15.6990    3.2510   27.5650 N.am  278  GLU278     -0.1979
     27  CA       -16.7550    4.1690   28.0050 C.3   278  GLU278      0.1602
     28  C        -17.4640    4.8840   26.8430 C.2   278  GLU278      0.2287
     29  O        -18.6910    5.0300   26.8880 O.2   278  GLU278     -0.2864
     30  CB       -16.2230    5.1840   29.0440 C.3   278  GLU278      0.0415
     31  CG       -15.3870    6.3570   28.5400 C.3   278  GLU278      0.1163
     32  CD       -13.9940    5.9810   28.0010 C.2   278  GLU278      0.3649
     33  OE1      -13.5230    6.6130   27.0000 O.co2 278  GLU278     -0.2457
     34  OE2      -13.3890    5.0090   28.5090 O.co2 278  GLU278     -0.2457
     35  N        -13.3010   -1.7110   29.4210 N.3   334  HIS334     -0.1226
     36  CA       -12.0640   -1.0610   29.8700 C.3   334  HIS334      0.1752
     37  C        -12.1450    0.4610   29.6900 C.2   334  HIS334      0.2597
     38  O        -12.4030    0.9480   28.5770 O.2   334  HIS334     -0.2718
     39  CB       -10.8310   -1.6500   29.1590 C.3   334  HIS334      0.0759
     40  CG       -10.9930   -1.8470   27.6810 C.ar  334  HIS334      0.0818
     41  ND1      -10.8830   -0.8090   26.7760 N.ar  334  HIS334     -0.2268
     42  CD2      -11.2440   -2.9740   26.9530 C.ar  334  HIS334      0.1154
     43  CE1      -11.0620   -1.2780   25.5560 C.ar  334  HIS334      0.1986
     44  NE2      -11.2770   -2.5900   25.6400 N.ar  334  HIS334     -0.2212
     45  N        -11.9830    1.1960   30.7910 N.am  335  THR335     -0.1939
     46  CA       -11.8220    2.6480   30.7550 C.3   335  THR335      0.2028
     47  C        -10.4970    3.0060   31.4520 C.2   335  THR335      0.2642
     48  O         -9.7490    2.1230   31.8750 O.2   335  THR335     -0.2714
     49  CB       -13.0620    3.4020   31.3140 C.3   335  THR335      0.1808
     50  OG1      -12.9020    4.8070   31.1030 O.3   335  THR335     -0.2208
     51  CG2      -13.3040    3.1030   32.8020 C.3   335  THR335      0.0379
     52  N        -10.1790    4.2970   31.5190 N.am  336  LEU336     -0.1977
     53  CA        -8.8390    4.7460   31.9250 C.3   336  LEU336      0.1596
     54  C         -8.4680    4.2460   33.3100 C.2   336  LEU336      0.2287
     55  O         -7.3750    3.7080   33.4900 O.2   336  LEU336     -0.2864
     56  CB        -8.6920    6.2820   31.8130 C.3   336  LEU336      0.0297
     57  CG        -7.5880    7.0010   32.5960 C.3   336  LEU336      0.0022
     58  CD1       -6.1980    6.4370   32.3240 C.3   336  LEU336      0.0001
     59  CD2       -7.5870    8.5190   32.3380 C.3   336  LEU336      0.0001
     60  N        -11.3060   -1.3120   34.9640 N.3   339  HIS339     -0.1241
     61  CA       -11.8420   -2.2500   33.9900 C.3   339  HIS339      0.1621
     62  C        -12.8990   -3.0940   34.6900 C.2   339  HIS339      0.2264
     63  O        -12.8160   -3.3140   35.8990 O.2   339  HIS339     -0.2867
     64  CB       -10.7540   -3.1860   33.4330 C.3   339  HIS339      0.0745
     65  CG        -9.6490   -2.4920   32.7000 C.ar  339  HIS339      0.0817
     66  ND1       -8.5080   -3.1570   32.2840 N.ar  339  HIS339     -0.2268
     67  CD2       -9.4960   -1.2010   32.3120 C.ar  339  HIS339      0.1154
     68  CE1       -7.6970   -2.3050   31.6620 C.ar  339  HIS339      0.1986
     69  NE2       -8.2770   -1.1110   31.6610 N.ar  339  HIS339     -0.2212
     70  N         -2.3740   -2.6000   30.9510 N.3   362  ALA362     -0.1245
     71  CA        -2.6420   -1.1620   30.8060 C.3   362  ALA362      0.1562
     72  C         -1.5580   -0.3170   31.4790 C.2   362  ALA362      0.2260
     73  O         -1.1710    0.7010   30.9610 O.2   362  ALA362     -0.2867
     74  CB        -4.0340   -0.8120   31.3980 C.3   362  ALA362      0.0290
     75  N          1.6810    0.9670   28.9190 N.3   366  ALA366     -0.1245
     76  CA         1.7030    2.4460   28.9420 C.3   366  ALA366      0.1562
     77  C          3.0580    3.0110   29.3520 C.2   366  ALA366      0.2260
     78  O          3.5740    3.9060   28.7050 O.2   366  ALA366     -0.2867
     79  CB         0.6010    2.9900   29.8630 C.3   366  ALA366      0.0290
     80  N         -7.2430    0.4400   37.6660 N.3   419  VAL419     -0.1245
     81  CA        -6.0510    0.4190   36.8380 C.3   419  VAL419      0.1561
     82  C         -4.9270    1.1210   37.6050 C.2   419  VAL419      0.2260
     83  O         -5.1750    2.0460   38.3790 O.2   419  VAL419     -0.2867
     84  CB        -6.3240    1.0820   35.4740 C.3   419  VAL419      0.0252
     85  CG1       -5.0500    1.1130   34.6070 C.3   419  VAL419      0.0019
     86  CG2       -7.4410    0.3370   34.7530 C.3   419  VAL419      0.0019
     87  N         -2.5380    3.4790   36.5860 N.3   421  VAL421     -0.1231
     88  CA        -2.3890    4.3480   35.4200 C.3   421  VAL421      0.1692
     89  C         -0.9680    4.8740   35.3270 C.2   421  VAL421      0.2592
     90  O         -0.4840    5.4620   36.2730 O.2   421  VAL421     -0.2718
     91  CB        -3.3850    5.5560   35.4640 C.3   421  VAL421      0.0266
     92  CG1       -3.3680    6.3350   34.1500 C.3   421  VAL421      0.0020
     93  CG2       -4.8140    5.0740   35.7870 C.3   421  VAL421      0.0020
     94  N         -0.3110    4.6810   34.1820 N.am  422  CYS422     -0.1970
     95  CA         1.0460    5.2080   33.9770 C.3   422  CYS422      0.1712
     96  C          0.9790    6.7150   33.9550 C.2   422  CYS422      0.2296
     97  O          0.2820    7.2890   33.1300 O.2   422  CYS422     -0.2864
     98  CB         1.6460    4.7040   32.6540 C.3   422  CYS422      0.0983
     99  SG         3.4070    5.1150   32.4760 S.3   422  CYS422     -0.0798
    100  N          3.3190    8.2510   30.4310 N.3   425  PRO425     -0.2116
    101  CA         3.2200    7.2080   29.4030 C.3   425  PRO425      0.1372
    102  C          3.9430    7.5430   28.1030 C.2   425  PRO425      0.2244
    103  O          4.0480    8.6770   27.7300 O.2   425  PRO425     -0.2868
    104  CB         1.7050    7.0850   29.1410 C.3   425  PRO425      0.0268
    105  CG         1.2190    8.5040   29.3840 C.3   425  PRO425      0.0207
    106  CD         2.0810    9.0610   30.5030 C.3   425  PRO425      0.0892
    107  N         -0.0570    5.5540   24.2960 N.3   428  THR428     -0.1218
    108  CA        -1.1930    4.7190   24.7390 C.3   428  THR428      0.1862
    109  C         -2.2470    4.5030   23.6410 C.2   428  THR428      0.2287
    110  O         -3.3610    4.0060   23.9190 O.2   428  THR428     -0.2866
    111  CB        -1.8320    5.2930   26.0260 C.3   428  THR428      0.1770
    112  OG1       -2.1700    6.6660   25.8290 O.3   428  THR428     -0.2211
    113  CG2       -0.7990    5.1460   27.2200 C.3   428  THR428      0.0375
    114  N         -3.8400    2.2620   21.0080 N.3   430  GLY430     -0.1210
    115  CA        -3.8880    0.7820   20.9030 C.3   430  GLY430      0.1956
    116  C         -3.9640    0.0290   22.2360 C.2   430  GLY430      0.2612
    117  O         -3.9300   -1.2040   22.2510 O.2   430  GLY430     -0.2717
    118  N         -4.0660    0.7430   23.3720 N.am  431  LEU431     -0.1965
    119  CA        -4.0560    0.1120   24.7080 C.3   431  LEU431      0.1728
    120  C         -5.3130   -0.7730   24.9450 C.2   431  LEU431      0.2617
    121  O         -5.1910   -1.8340   25.5070 O.2   431  LEU431     -0.2715
    122  CB        -3.9260    1.1570   25.8080 C.3   431  LEU431      0.0311
    123  CG        -3.2630    0.7700   27.1510 C.3   431  LEU431      0.0022
    124  CD1       -1.8040    0.4890   26.9920 C.3   431  LEU431      0.0001
    125  CD2       -3.2890    1.9250   28.1290 C.3   431  LEU431      0.0001
    126  N         -6.4790   -0.3570   24.4900 N.am  432  GLY432     -0.1940
    127  CA        -7.7250   -1.1310   24.6330 C.3   432  GLY432      0.2014
    128  C         -7.6420   -2.5130   23.9660 C.2   432  GLY432      0.2638
    129  O         -8.2350   -3.4760   24.4560 O.2   432  GLY432     -0.2714
    130  N         -6.8770   -2.5850   22.8960 N.am  433  ASP433     -0.1971
    131  CA        -6.6920   -3.7870   22.1190 C.3   433  ASP433      0.1709
    132  C         -5.7700   -4.7770   22.8240 C.2   433  ASP433      0.2293
    133  O         -6.0520   -5.9670   22.8410 O.2   433  ASP433     -0.2864
    134  CB        -6.1330   -3.4240   20.7320 C.3   433  ASP433      0.1436
    135  CG        -7.0320   -2.4610   20.0130 C.2   433  ASP433      0.3671
    136  OD1       -8.2130   -2.7230   19.9370 O.co2 433  ASP433     -0.2456
    137  OD2       -6.5490   -1.3730   19.5880 O.co2 433  ASP433     -0.2456
    138  N         -5.3760   -4.6580   26.0820 N.3   435  ILE435     -0.1245
    139  CA        -6.1770   -4.9950   27.2740 C.3   435  ILE435      0.1561
    140  C         -7.1530   -6.1620   26.9430 C.2   435  ILE435      0.2260
    141  O         -7.2040   -7.1640   27.6560 O.2   435  ILE435     -0.2867
    142  CB        -6.9410   -3.7440   27.8050 C.3   435  ILE435      0.0252
    143  CG1       -5.9650   -2.7230   28.4300 C.3   435  ILE435      0.0019
    144  CG2       -7.9990   -4.1190   28.8460 C.3   435  ILE435      0.0019
    145  CD1       -6.4820   -1.3050   28.4440 C.3   435  ILE435      0.0001
@<TRIPOS>BOND
     1     1     2    1
     2     7     6    2
     3     3     2    1
     4     3     4    2
     5     2     5    1
     6     5     6    1
     7     6     8   am
     8    12    11    2
     9    11    10    1
    10     9    10    1
    11    13    10    1
    12    13    14    1
    13   137   135   ar
    14   136   135   ar
    15   135   134    1
    16    14    15    1
    17   134   131    1
    18   115   114    1
    19   115   116    1
    20    15    17   ar
    21    15    16   ar
    22   131   132    1
    23   131   130    1
    24   116   117    2
    25   116   118   am
    26   132   133    2
    27   130   128   am
    28   118   119    1
    29   109   110    2
    30   109   108    1
    31   128   129    2
    32   128   127    1
    33    25    23   am
    34   107   108    1
    35    24    23    2
    36   126   127    1
    37   126   120   am
    38    23    22    1
    39   119   120    1
    40   119   122    1
    41   108   111    1
    42   120   121    2
    43    18    19    1
    44    43    44   ar
    45    43    41   ar
    46    44    42   ar
    47   122   123    1
    48   112   111    1
    49    22    19    1
    50   111   113    1
    51   138   139    1
    52    21    20    2
    53    19    20    1
    54    20    26   am
    55    41    40   ar
    56    28    29    2
    57    28    27    1
    58   140   139    1
    59   140   141    2
    60    42    40   ar
    61   124   123    1
    62    33    32   ar
    63   123   125    1
    64   139   142    1
    65    26    27    1
    66    40    39    1
    67   103   102    2
    68   142   143    1
    69   142   144    1
    70    32    34   ar
    71    32    31    1
    72    27    30    1
    73   102   101    1
    74   143   145    1
    75    31    30    1
    76    38    37    2
    77    78    77    2
    78    75    76    1
    79    76    77    1
    80    76    79    1
    81   104   105    1
    82   104   101    1
    83    39    36    1
    84   105   106    1
    85   101   100    1
    86    35    36    1
    87    37    36    1
    88    37    45   am
    89   100   106    1
    90    46    45    1
    91    46    49    1
    92    46    47    1
    93    71    70    1
    94    71    74    1
    95    71    72    1
    96    73    72    2
    97    50    49    1
    98    49    51    1
    99    47    52   am
   100    47    48    2
   101    52    53    1
   102    69    68   ar
   103    69    67   ar
   104    68    66   ar
   105    56    53    1
   106    56    57    1
   107    53    54    1
   108    66    65   ar
   109    67    65   ar
   110    58    57    1
   111    59    57    1
   112    99    98    1
   113    98    95    1
   114    65    64    1
   115    97    96    2
   116    54    55    2
   117    64    61    1
   118    96    95    1
   119    95    94    1
   120    61    62    1
   121    61    60    1
   122    92    91    1
   123    94    89   am
   124    85    84    1
   125    62    63    2
   126    86    84    1
   127    89    88    1
   128    89    90    2
   129    88    91    1
   130    88    87    1
   131    91    93    1
   132    84    81    1
   133    81    82    1
   134    81    80    1
   135    82    83    2
