@<TRIPOS>MOLECULE
tmp/5ck9A01.pdb
 103 99 0 0 0
SMALL
GASTEIGER

@<TRIPOS>ATOM
      1  N        -11.2940   17.8230    0.2400 N.3    12  LEU12      -0.1245
      2  CA       -11.2060   19.2480    0.0310 C.3    12  LEU12       0.1561
      3  C        -12.6510   19.7140    0.0680 C.2    12  LEU12       0.2260
      4  O        -13.4690   19.3060   -0.7750 O.2    12  LEU12      -0.2867
      5  CB       -10.6120   19.5440   -1.3440 C.3    12  LEU12       0.0270
      6  CG       -10.4300   21.0170   -1.7050 C.3    12  LEU12       0.0019
      7  CD1       -9.2540   21.5610   -0.9170 C.3    12  LEU12       0.0001
      8  CD2      -10.1910   21.1990   -3.2170 C.3    12  LEU12       0.0001
      9  N        -15.7130   22.9120    0.6780 N.3    14  TRP14      -0.1241
     10  CA       -16.0570   24.3040    0.4870 C.3    14  TRP14       0.1605
     11  C        -16.8760   24.6190    1.7250 C.2    14  TRP14       0.2264
     12  O        -17.8640   23.9470    2.0040 O.2    14  TRP14      -0.2867
     13  CB       -16.8910   24.4380   -0.7970 C.3    14  TRP14       0.0550
     14  CG       -17.2090   25.8220   -1.2790 C.ar   14  TRP14       0.0003
     15  CD1      -18.4590   26.3360   -1.5210 C.ar   14  TRP14       0.0946
     16  CD2      -16.2820   26.8560   -1.6300 C.ar   14  TRP14       0.0152
     17  NE1      -18.3630   27.6270   -1.9790 N.ar   14  TRP14      -0.2442
     18  CE2      -17.0360   27.9720   -2.0560 C.ar   14  TRP14       0.0810
     19  CE3      -14.8890   26.9520   -1.6220 C.ar   14  TRP14       0.0012
     20  CZ2      -16.4430   29.1650   -2.4630 C.ar   14  TRP14       0.0191
     21  CZ3      -14.3010   28.1390   -2.0300 C.ar   14  TRP14       0.0001
     22  CH2      -15.0750   29.2280   -2.4420 C.ar   14  TRP14       0.0015
     23  N        -12.0690   27.1670    0.2760 N.3    26  PRO26      -0.2116
     24  CA       -11.7140   25.7500    0.2520 C.3    26  PRO26       0.1372
     25  C        -10.8980   25.4160    1.4960 C.2    26  PRO26       0.2244
     26  O        -10.1380   26.2580    1.9770 O.2    26  PRO26      -0.2868
     27  CB       -10.8220   25.6270   -0.9990 C.3    26  PRO26       0.0268
     28  CG       -10.9400   26.9450   -1.7280 C.3    26  PRO26       0.0207
     29  CD       -11.2630   27.9530   -0.6740 C.3    26  PRO26       0.0892
     30  N         -7.3270   27.1180    2.1880 N.3    47  CYS47      -0.1221
     31  CA        -6.6080   27.1660    0.9210 C.3    47  CYS47       0.1808
     32  C         -6.7290   28.5310    0.2790 C.2    47  CYS47       0.2602
     33  O         -7.7260   29.2290    0.4540 O.2    47  CYS47      -0.2717
     34  CB        -7.1650   26.1290   -0.0580 C.3    47  CYS47       0.0970
     35  SG        -6.9990   24.4430    0.5100 S.3    47  CYS47      -0.0800
     36  N         -5.7120   28.9010   -0.4880 N.am   48  THR48      -0.1939
     37  CA        -5.7810   30.1060   -1.2940 C.3    48  THR48       0.2028
     38  C         -5.3400   29.7780   -2.7140 C.2    48  THR48       0.2642
     39  O         -4.8670   28.6680   -2.9830 O.2    48  THR48      -0.2714
     40  CB        -4.9300   31.2460   -0.7060 C.3    48  THR48       0.1808
     41  OG1       -4.9330   32.3540   -1.6120 O.3    48  THR48      -0.2208
     42  CG2       -3.4920   30.7930   -0.4680 C.3    48  THR48       0.0379
     43  N         -5.5100   30.7400   -3.6170 N.am   49  THR49      -0.1950
     44  CA        -5.2330   30.5350   -5.0370 C.3    49  THR49       0.1897
     45  C         -3.8120   30.9210   -5.4270 C.2    49  THR49       0.2313
     46  O         -3.2430   30.3490   -6.3560 O.2    49  THR49      -0.2863
     47  CB        -6.2110   31.3300   -5.9190 C.3    49  THR49       0.1794
     48  OG1       -5.7240   31.3510   -7.2640 O.3    49  THR49      -0.2208
     49  CG2       -6.3310   32.7590   -5.4210 C.3    49  THR49       0.0378
     50  N         -1.6130   22.3460   -3.9530 N.3    60  LEU60      -0.1231
     51  CA        -2.6280   21.3630   -4.3110 C.3    60  LEU60       0.1693
     52  C         -2.7220   21.3170   -5.8320 C.2    60  LEU60       0.2593
     53  O         -3.2220   22.2440   -6.4770 O.2    60  LEU60      -0.2718
     54  CB        -3.9780   21.6990   -3.6720 C.3    60  LEU60       0.0284
     55  CG        -3.9170   21.8230   -2.1390 C.3    60  LEU60       0.0019
     56  CD1       -5.2910   22.1330   -1.5590 C.3    60  LEU60       0.0001
     57  CD2       -3.3190   20.5750   -1.4770 C.3    60  LEU60       0.0001
     58  N         -2.2200   20.2360   -6.4050 N.am   61  SER61      -0.1938
     59  CA        -1.9340   20.2290   -7.8410 C.3    61  SER61       0.2055
     60  C         -3.1020   19.7100   -8.6600 C.2    61  SER61       0.2643
     61  O         -3.5220   18.5680   -8.4960 O.2    61  SER61      -0.2714
     62  CB        -0.6790   19.4130   -8.1280 C.3    61  SER61       0.2130
     63  OG         0.4010   19.8580   -7.3290 O.3    61  SER61      -0.2179
     64  N         -3.6120   20.5580   -9.5490 N.am   62  GLY62      -0.1954
     65  CA        -4.7640   20.2160  -10.3630 C.3    62  GLY62       0.1869
     66  C         -4.3700   19.8770  -11.7840 C.2    62  GLY62       0.2309
     67  O         -3.2100   20.0320  -12.1760 O.2    62  GLY62      -0.2863
     68  N         -4.7960   23.6740  -13.1740 N.3    65  ARG65      -0.1231
     69  CA        -4.5620   24.7620  -12.2300 C.3    65  ARG65       0.1694
     70  C         -4.3070   24.2580  -10.8110 C.2    65  ARG65       0.2592
     71  O         -4.8450   23.2270  -10.3900 O.2    65  ARG65      -0.2718
     72  CB        -5.7510   25.7240  -12.2160 C.3    65  ARG65       0.0321
     73  CG        -7.0590   25.1280  -11.7040 C.3    65  ARG65       0.0489
     74  CD        -8.0510   26.2300  -11.3870 C.3    65  ARG65       0.2205
     75  NE        -7.5500   27.0530  -10.2950 N.pl3  65  ARG65      -0.0865
     76  CZ        -7.4190   28.3730  -10.3350 C.cat  65  ARG65       0.5346
     77  NH1       -7.7650   29.0490  -11.4200 N.pl3  65  ARG65       0.1354
     78  NH2       -6.8780   29.0060   -9.2970 N.pl3  65  ARG65       0.1354
     79  N         -3.5060   25.0180  -10.0750 N.am   66  ASP66      -0.1960
     80  CA        -3.1050   24.6450   -8.7190 C.3    66  ASP66       0.1840
     81  C         -3.7330   25.5290   -7.6520 C.2    66  ASP66       0.2622
     82  O         -4.2070   26.6330   -7.9260 O.2    66  ASP66      -0.2715
     83  CB        -1.5830   24.7400   -8.5700 C.3    66  ASP66       0.1450
     84  CG        -0.8440   23.6730   -9.3510 C.2    66  ASP66       0.3671
     85  OD1       -1.5050   22.7630   -9.8960 O.co2  66  ASP66      -0.2456
     86  OD2        0.4060   23.7350   -9.3970 O.co2  66  ASP66      -0.2456
     87  N         -3.6950   25.0360   -6.4190 N.am   67  GLY67      -0.1954
     88  CA        -4.1110   25.8020   -5.2620 C.3    67  GLY67       0.1869
     89  C         -3.0350   25.6730   -4.2030 C.2    67  GLY67       0.2309
     90  O         -2.0110   25.0240   -4.4230 O.2    67  GLY67      -0.2863
     91  N        -15.6100   19.4360   -2.4890 N.3    87  LYS87      -0.1231
     92  CA       -15.0690   19.9470   -3.7520 C.3    87  LYS87       0.1693
     93  C        -14.2230   18.8760   -4.4370 C.2    87  LYS87       0.2592
     94  O        -14.0810   18.8640   -5.6650 O.2    87  LYS87      -0.2718
     95  CB       -14.1720   21.1710   -3.5170 C.3    87  LYS87       0.0285
     96  CG       -14.8780   22.5020   -3.3320 C.3    87  LYS87       0.0035
     97  CD       -13.8780   23.6700   -3.3940 C.3    87  LYS87       0.0206
     98  CE       -13.2760   23.7800   -4.7980 C.3    87  LYS87       0.1093
     99  NZ       -12.4300   24.9820   -5.0490 N.3    87  LYS87      -0.1314
    100  N        -13.6220   18.0040   -3.6340 N.am   88  GLY88      -0.1957
    101  CA       -12.7880   16.9500   -4.1710 C.3    88  GLY88       0.1869
    102  C        -11.9640   16.3030   -3.0890 C.2    88  GLY88       0.2309
    103  O        -12.3400   16.3090   -1.9130 O.2    88  GLY88      -0.2863
@<TRIPOS>BOND
     1    68    69    1
     2    69    72    1
     3    69    70    1
     4    72    73    1
     5    67    66    2
     6    66    65    1
     7    73    74    1
     8    77    76    1
     9    74    75    1
    10    70    71    2
    11    70    79   am
    12    65    64    1
    13    76    75    2
    14    76    78    1
    15    79    80    1
    16    85    84   ar
    17    64    60   am
    18    86    84   ar
    19    84    83    1
    20    80    83    1
    21    80    81    1
    22    60    61    2
    23    60    59    1
    24    62    59    1
    25    62    63    1
    26    82    81    2
    27    59    58    1
    28    81    87   am
    29    48    47    1
    30    53    52    2
    31    87    88    1
    32    58    52   am
    33    46    45    2
    34    47    49    1
    35    47    44    1
    36    52    51    1
    37    94    93    2
    38    45    44    1
    39    88    89    1
    40    99    98    1
    41    44    43    1
    42    98    97    1
    43    93    92    1
    44    93   100   am
    45    90    89    2
    46    51    50    1
    47    51    54    1
    48   101   100    1
    49   101   102    1
    50    92    95    1
    51    92    91    1
    52    54    55    1
    53    43    38   am
    54    95    96    1
    55    97    96    1
    56     8     6    1
    57   102   103    2
    58    39    38    2
    59    38    37    1
    60    20    22   ar
    61    20    18   ar
    62    22    21   ar
    63    55    56    1
    64    55    57    1
    65    18    17   ar
    66    18    16   ar
    67    21    19   ar
    68    17    15   ar
    69    28    27    1
    70    28    29    1
    71     6     5    1
    72     6     7    1
    73    16    19   ar
    74    16    14   ar
    75    41    40    1
    76    15    14   ar
    77     5     2    1
    78    37    40    1
    79    37    36    1
    80    14    13    1
    81    27    24    1
    82    13    10    1
    83     4     3    2
    84    40    42    1
    85    29    23    1
    86    36    32   am
    87    34    35    1
    88    34    31    1
    89     2     3    1
    90     2     1    1
    91    24    23    1
    92    24    25    1
    93    32    33    2
    94    32    31    1
    95    10     9    1
    96    10    11    1
    97    31    30    1
    98    25    26    2
    99    11    12    2
