@<TRIPOS>MOLECULE
tmp/5ckeB00.pdb
 117 114 0 0 0
SMALL
GASTEIGER

@<TRIPOS>ATOM
      1  N         16.0460  -19.7970    6.9200 N.3    11  LEU11      -0.1245
      2  CA        14.6990  -19.3230    6.7970 C.3    11  LEU11       0.1561
      3  C         14.8730  -17.8040    6.8470 C.2    11  LEU11       0.2260
      4  O         15.5530  -17.2810    7.7500 O.2    11  LEU11      -0.2867
      5  CB        13.8170  -19.8500    7.9320 C.3    11  LEU11       0.0270
      6  CG        12.4580  -19.1620    8.0980 C.3    11  LEU11       0.0019
      7  CD1       11.4510  -19.7220    7.1510 C.3    11  LEU11       0.0001
      8  CD2       11.9160  -19.4120    9.5040 C.3    11  LEU11       0.0001
      9  N         13.3440  -13.6480    5.8810 N.3    13  TRP13      -0.1241
     10  CA        12.3220  -12.6710    5.5420 C.3    13  TRP13       0.1605
     11  C         12.7370  -12.0050    4.2750 C.2    13  TRP13       0.2264
     12  O         13.9050  -11.6550    4.0910 O.2    13  TRP13      -0.2867
     13  CB        12.2320  -11.5850    6.6190 C.3    13  TRP13       0.0550
     14  CG        11.5240  -12.0440    7.7960 C.ar   13  TRP13       0.0003
     15  CD1       12.0370  -12.2310    9.0370 C.ar   13  TRP13       0.0946
     16  CD2       10.1410  -12.4020    7.8620 C.ar   13  TRP13       0.0152
     17  NE1       11.0520  -12.6750    9.8880 N.ar   13  TRP13      -0.2442
     18  CE2        9.8800  -12.7990    9.1870 C.ar   13  TRP13       0.0810
     19  CE3        9.0980  -12.4230    6.9280 C.ar   13  TRP13       0.0012
     20  CZ2        8.6170  -13.2180    9.6020 C.ar   13  TRP13       0.0191
     21  CZ3        7.8620  -12.8440    7.3310 C.ar   13  TRP13       0.0001
     22  CH2        7.6170  -13.2180    8.6550 C.ar   13  TRP13       0.0015
     23  N          3.3370  -10.4910    5.3610 N.3    27  HIS27      -0.1226
     24  CA         4.3790  -11.2230    4.6100 C.3    27  HIS27       0.1752
     25  C          4.4730  -12.7140    4.9320 C.2    27  HIS27       0.2596
     26  O          3.8430  -13.2300    5.8660 O.2    27  HIS27      -0.2718
     27  CB         5.7790  -10.6110    4.8450 C.3    27  HIS27       0.0759
     28  CG         5.9420   -9.2380    4.2820 C.ar   27  HIS27       0.0818
     29  ND1        6.5610   -8.9980    3.0770 N.ar   27  HIS27      -0.2268
     30  CD2        5.5410   -8.0260    4.7490 C.ar   27  HIS27       0.1154
     31  CE1        6.5390   -7.6980    2.8230 C.ar   27  HIS27       0.1986
     32  NE2        5.9230   -7.0890    3.8220 N.ar   27  HIS27      -0.2212
     33  N          5.3360  -13.3860    4.1800 N.am   28  ARG28      -0.1966
     34  CA         5.6570  -14.7660    4.4570 C.3    28  ARG28       0.1714
     35  C          7.1880  -14.9370    4.4030 C.2    28  ARG28       0.2458
     36  O          7.8710  -14.2770    3.6260 O.2    28  ARG28      -0.2730
     37  CB         4.9080  -15.6910    3.4870 C.3    28  ARG28       0.0347
     38  CG         3.4100  -15.7600    3.7650 C.3    28  ARG28       0.0492
     39  CD         2.7850  -16.8970    2.9520 C.3    28  ARG28       0.2205
     40  NE         2.9230  -16.6460    1.5210 N.pl3  28  ARG28      -0.0865
     41  CZ         2.1480  -15.8130    0.8300 C.cat  28  ARG28       0.5346
     42  NH1        1.1360  -15.1800    1.4090 N.pl3  28  ARG28       0.1354
     43  NH2        2.3690  -15.6250   -0.4690 N.pl3  28  ARG28       0.1354
     44  N          7.7390  -15.7700    5.2940 N.am   29  PRO29      -0.2727
     45  CA         9.1630  -16.0880    5.1910 C.3    29  PRO29       0.1402
     46  C          9.3660  -17.2120    4.1820 C.2    29  PRO29       0.2269
     47  O          8.3670  -17.7260    3.6400 O.2    29  PRO29      -0.2865
     48  CB         9.5260  -16.5180    6.6230 C.3    29  PRO29       0.0296
     49  CG         8.2860  -16.9490    7.2460 C.3    29  PRO29       0.0237
     50  CD         7.1060  -16.4000    6.4550 C.3    29  PRO29       0.0939
     51  N          6.7920  -19.9790    3.2920 N.3    50  CYS50      -0.1221
     52  CA         6.2540  -20.6190    4.4860 C.3    50  CYS50       0.1808
     53  C          5.1080  -19.8150    4.9880 C.2    50  CYS50       0.2602
     54  O          5.0160  -18.6310    4.7140 O.2    50  CYS50      -0.2717
     55  CB         7.2740  -20.6820    5.6040 C.3    50  CYS50       0.0970
     56  SG         8.7750  -21.4670    5.1320 S.3    50  CYS50      -0.0800
     57  N          4.2150  -20.4830    5.7100 N.am   51  THR51      -0.1939
     58  CA         3.1000  -19.8380    6.3860 C.3    51  THR51       0.2028
     59  C          2.9640  -20.5410    7.7120 C.2    51  THR51       0.2642
     60  O          3.5270  -21.5990    7.9170 O.2    51  THR51      -0.2714
     61  CB         1.8080  -19.9870    5.5980 C.3    51  THR51       0.1808
     62  OG1        0.7630  -19.3470    6.3380 O.3    51  THR51      -0.2208
     63  CG2        1.4430  -21.4420    5.4420 C.3    51  THR51       0.0379
     64  N          2.2850  -19.9400    8.6580 N.am   52  THR52      -0.1950
     65  CA         2.1540  -20.5920    9.9510 C.3    52  THR52       0.1897
     66  C          1.0560  -21.6310    9.9200 C.2    52  THR52       0.2313
     67  O          1.1710  -22.6740   10.5480 O.2    52  THR52      -0.2863
     68  CB         1.8880  -19.5790   11.0690 C.3    52  THR52       0.1794
     69  OG1        1.2680  -18.4210   10.4870 O.3    52  THR52      -0.2208
     70  CG2        3.2260  -19.1820   11.7840 C.3    52  THR52       0.0378
     71  N          7.2530  -27.4730    9.4460 N.3    63  LEU63      -0.1245
     72  CA         8.4720  -26.8760   10.0220 C.3    63  LEU63       0.1561
     73  C          8.3420  -26.7230   11.5550 C.2    63  LEU63       0.2260
     74  O          7.5550  -25.9080   12.0250 O.2    63  LEU63      -0.2867
     75  CB         8.7620  -25.5120    9.3810 C.3    63  LEU63       0.0270
     76  CG         9.1320  -25.4770    7.8860 C.3    63  LEU63       0.0019
     77  CD1        9.5920  -24.0810    7.5070 C.3    63  LEU63       0.0001
     78  CD2       10.2140  -26.4810    7.5580 C.3    63  LEU63       0.0001
     79  N          6.2900  -21.7170   17.9250 N.3    68  ARG68      -0.1231
     80  CA         5.2840  -22.0530   16.9140 C.3    68  ARG68       0.1694
     81  C          5.7530  -23.0540   15.8530 C.2    68  ARG68       0.2592
     82  O          6.9500  -23.1490   15.5450 O.2    68  ARG68      -0.2718
     83  CB         4.8030  -20.7750   16.1670 C.3    68  ARG68       0.0321
     84  CG         4.0800  -19.7910   17.0830 C.3    68  ARG68       0.0489
     85  CD         2.7970  -20.3250   17.7130 C.3    68  ARG68       0.2205
     86  NE         1.8820  -20.8090   16.6680 N.pl3  68  ARG68      -0.0865
     87  CZ         1.0540  -20.0550   15.9970 C.cat  68  ARG68       0.5346
     88  NH1        0.9200  -18.7610   16.2690 N.pl3  68  ARG68       0.1354
     89  NH2        0.3130  -20.5430   15.0280 N.pl3  68  ARG68       0.1354
     90  N          4.7820  -23.7670   15.2780 N.am   69  ASP69      -0.1960
     91  CA         4.9570  -24.6670   14.1090 C.3    69  ASP69       0.1840
     92  C          4.4360  -23.9710   12.8400 C.2    69  ASP69       0.2623
     93  O          3.5590  -23.1020   12.9090 O.2    69  ASP69      -0.2715
     94  CB         4.1930  -25.9940   14.2740 C.3    69  ASP69       0.1450
     95  CG         5.0730  -27.1240   14.7810 C.2    69  ASP69       0.3671
     96  OD1        6.0710  -26.8020   15.4680 O.co2  69  ASP69      -0.2456
     97  OD2        4.7670  -28.3220   14.5100 O.co2  69  ASP69      -0.2456
     98  N          4.9990  -24.3220   11.6820 N.am   70  GLY70      -0.1940
     99  CA         4.5780  -23.7220   10.4290 C.3    70  GLY70       0.2014
    100  C          4.7330  -24.7030    9.2910 C.2    70  GLY70       0.2638
    101  O          5.0300  -25.8630    9.5420 O.2    70  GLY70      -0.2714
    102  N          4.4640  -24.2640    8.0540 N.am   71  VAL71      -0.1977
    103  CA         4.6690  -25.1090    6.8860 C.3    71  VAL71       0.1596
    104  C          5.4520  -24.3820    5.7930 C.2    71  VAL71       0.2287
    105  O          5.3140  -23.1650    5.6030 O.2    71  VAL71      -0.2864
    106  CB         3.3430  -25.6200    6.3160 C.3    71  VAL71       0.0276
    107  CG1        2.6150  -26.4980    7.3750 C.3    71  VAL71       0.0022
    108  CG2        2.4950  -24.4590    5.8680 C.3    71  VAL71       0.0022
    109  N         15.6900  -15.2750    9.4980 N.3    90  LYS90      -0.1245
    110  CA        14.8330  -15.5180   10.6520 C.3    90  LYS90       0.1561
    111  C         15.2550  -16.7640   11.4570 C.2    90  LYS90       0.2260
    112  O         14.9020  -16.9240   12.6130 O.2    90  LYS90      -0.2867
    113  CB        13.3620  -15.5180   10.1900 C.3    90  LYS90       0.0271
    114  CG        12.3700  -16.3850   10.9480 C.3    90  LYS90       0.0035
    115  CD        10.9350  -16.0380   10.4680 C.3    90  LYS90       0.0206
    116  CE         9.8260  -16.8530   11.2270 C.3    90  LYS90       0.1093
    117  NZ         9.3820  -16.1490   12.4550 N.3    90  LYS90      -0.1314
@<TRIPOS>BOND
     1    43    41    1
     2    41    42    1
     3    41    40    2
     4    40    39    1
     5    31    29   ar
     6    31    32   ar
     7    39    38    1
     8    29    28   ar
     9    51    52    1
    10    37    38    1
    11    37    34    1
    12    36    35    2
    13    47    46    2
    14    32    30   ar
    15    12    11    2
    16    33    34    1
    17    33    25   am
    18    46    45    1
    19    11    10    1
    20    28    30   ar
    21    28    27    1
    22    35    34    1
    23    35    44   am
    24    52    53    1
    25    52    55    1
    26    24    27    1
    27    24    25    1
    28    24    23    1
    29    54    53    2
    30    25    26    2
    31    53    57   am
    32    56    55    1
    33    45    44    1
    34    45    48    1
    35    44    50    1
    36    63    61    1
    37    10     9    1
    38    10    13    1
    39    61    62    1
    40    61    58    1
    41   105   104    2
    42    57    58    1
    43   104   103    1
    44   108   106    1
    45   106   103    1
    46   106   107    1
    47    58    59    1
    48    50    49    1
    49    13    14    1
    50    48    49    1
    51     2     3    1
    52     2     1    1
    53     2     5    1
    54     3     4    2
    55   103   102    1
    56    19    21   ar
    57    19    16   ar
    58     7     6    1
    59    21    22   ar
    60    77    76    1
    61    78    76    1
    62    59    60    2
    63    59    64   am
    64    14    16   ar
    65    14    15   ar
    66    16    18   ar
    67    76    75    1
    68     5     6    1
    69   102   100   am
    70     6     8    1
    71    22    20   ar
    72    64    65    1
    73    15    17   ar
    74    18    20   ar
    75    18    17   ar
    76   100   101    2
    77   100    99    1
    78    75    72    1
    79    71    72    1
    80   109   110    1
    81    66    65    1
    82    66    67    2
    83    65    68    1
    84    72    73    1
    85   113   110    1
    86   113   114    1
    87    99    98    1
    88   115   114    1
    89   115   116    1
    90    69    68    1
    91   110   111    1
    92    68    70    1
    93   116   117    1
    94   111   112    2
    95    73    74    2
    96    98    92   am
    97    92    93    2
    98    92    91    1
    99    91    94    1
   100    91    90    1
   101    94    95    1
   102    97    95   ar
   103    95    96   ar
   104    89    87    1
   105    90    81   am
   106    82    81    2
   107    81    80    1
   108    87    88    1
   109    87    86    2
   110    83    80    1
   111    83    84    1
   112    86    85    1
   113    80    79    1
   114    84    85    1
