@<TRIPOS>MOLECULE
tmp/5cksD00.pdb
 81 74 0 0 0
SMALL
GASTEIGER

@<TRIPOS>ATOM
      1  N        -11.1920 -401.6610   20.0560 N.3    91  GLU91      -0.1245
      2  CA       -11.9600 -402.6800   20.7580 C.3    91  GLU91       0.1567
      3  C        -13.3650 -402.1790   21.0590 C.2    91  GLU91       0.2260
      4  O        -13.5660 -400.9900   21.3030 O.2    91  GLU91      -0.2867
      5  CB       -11.2320 -403.0850   22.0540 C.3    91  GLU91       0.0388
      6  CG       -11.8850 -404.2410   22.8140 C.3    91  GLU91       0.1160
      7  CD       -11.0870 -404.7110   24.0410 C.2    91  GLU91       0.3649
      8  OE1       -9.9380 -404.2480   24.2620 O.co2  91  GLU91      -0.2457
      9  OE2      -11.6180 -405.5610   24.7890 O.co2  91  GLU91      -0.2457
     10  N        -12.2760 -409.6860   20.3500 N.3   100  LYS100     -0.1245
     11  CA       -11.5850 -408.8990   21.3730 C.3   100  LYS100      0.1561
     12  C        -10.8590 -407.6870   20.8010 C.2   100  LYS100      0.2260
     13  O        -10.0380 -407.0760   21.4800 O.2   100  LYS100     -0.2867
     14  CB       -10.5660 -409.7680   22.1280 C.3   100  LYS100      0.0271
     15  CG       -11.1620 -410.9440   22.8930 C.3   100  LYS100      0.0035
     16  CD       -11.9430 -410.4770   24.0950 C.3   100  LYS100      0.0206
     17  CE       -12.5650 -411.6530   24.8550 C.3   100  LYS100      0.1093
     18  NZ       -13.7180 -412.3020   24.1480 N.3   100  LYS100     -0.1314
     19  N         -6.1780 -405.0550   18.4580 N.3   103  ILE103     -0.1231
     20  CA        -4.9400 -405.2820   19.1960 C.3   103  ILE103      0.1692
     21  C         -4.8460 -406.7270   19.6790 C.2   103  ILE103      0.2592
     22  O         -3.8370 -407.4010   19.4500 O.2   103  ILE103     -0.2718
     23  CB        -4.7850 -404.2700   20.3480 C.3   103  ILE103      0.0266
     24  CG1       -4.7070 -402.8610   19.7500 C.3   103  ILE103      0.0019
     25  CG2       -3.5530 -404.5820   21.1760 C.3   103  ILE103      0.0020
     26  CD1       -4.7520 -401.7350   20.7460 C.3   103  ILE103      0.0001
     27  N         -5.9160 -407.2080   20.3040 N.am  104  ASN104     -0.1974
     28  CA        -5.9480 -408.5600   20.8480 C.3   104  ASN104      0.1688
     29  C         -6.0370 -409.6400   19.7860 C.2   104  ASN104      0.2292
     30  O         -5.4390 -410.6960   19.9120 O.2   104  ASN104     -0.2864
     31  CB        -7.1370 -408.7170   21.7980 C.3   104  ASN104      0.1181
     32  CG        -6.9160 -408.0190   23.1190 C.2   104  ASN104      0.2629
     33  OD1       -5.8600 -408.1630   23.7190 O.2   104  ASN104     -0.2716
     34  ND2       -7.9100 -407.2490   23.5750 N.am  104  ASN104     -0.0877
     35  N         -1.2080 -410.3540   20.3120 N.3   114  ILE114     -0.1245
     36  CA        -1.1660 -408.9620   20.7500 C.3   114  ILE114      0.1561
     37  C          0.0110 -408.1660   20.2010 C.2   114  ILE114      0.2260
     38  O         -0.1400 -406.9990   19.8280 O.2   114  ILE114     -0.2867
     39  CB        -1.2210 -408.8720   22.3020 C.3   114  ILE114      0.0252
     40  CG1       -2.5510 -409.4510   22.8090 C.3   114  ILE114      0.0019
     41  CG2       -1.0620 -407.4270   22.7760 C.3   114  ILE114      0.0019
     42  CD1       -2.6120 -409.6290   24.3380 C.3   114  ILE114      0.0001
     43  N         -0.5660 -404.8090   18.1050 N.3   118  LEU118     -0.1245
     44  CA        -0.0220 -403.5210   18.5070 C.3   118  LEU118      0.1561
     45  C          0.7100 -402.9140   17.3190 C.2   118  LEU118      0.2260
     46  O          0.6490 -401.7100   17.0970 O.2   118  LEU118     -0.2867
     47  CB         0.9220 -403.6610   19.7150 C.3   118  LEU118      0.0270
     48  CG         0.3290 -403.9720   21.0920 C.3   118  LEU118      0.0019
     49  CD1        1.3960 -404.6060   21.9990 C.3   118  LEU118      0.0001
     50  CD2       -0.2440 -402.7150   21.7430 C.3   118  LEU118      0.0001
     51  N         -8.6610 -398.2690   27.6390 N.3   140  LEU140     -0.1231
     52  CA        -9.3410 -399.2700   28.4380 C.3   140  LEU140      0.1693
     53  C         -8.4450 -399.8090   29.5510 C.2   140  LEU140      0.2592
     54  O         -8.9100 -400.4690   30.4780 O.2   140  LEU140     -0.2718
     55  CB        -9.8070 -400.4100   27.5350 C.3   140  LEU140      0.0284
     56  CG       -10.6650 -399.9560   26.3580 C.3   140  LEU140      0.0019
     57  CD1      -11.1110 -401.1610   25.5350 C.3   140  LEU140      0.0001
     58  CD2      -11.8770 -399.1390   26.8700 C.3   140  LEU140      0.0001
     59  N         -7.1550 -399.5180   29.4550 N.am  141  ASP141     -0.1974
     60  CA        -6.1770 -400.1300   30.3390 C.3   141  ASP141      0.1709
     61  C         -4.9460 -399.2340   30.4650 C.2   141  ASP141      0.2293
     62  O         -4.8260 -398.2280   29.7590 O.2   141  ASP141     -0.2864
     63  CB        -5.7940 -401.5190   29.8190 C.3   141  ASP141      0.1436
     64  CG        -4.9100 -401.4590   28.5790 C.2   141  ASP141      0.3671
     65  OD1       -3.6670 -401.4740   28.7220 O.co2 141  ASP141     -0.2456
     66  OD2       -5.4470 -401.3880   27.4570 O.co2 141  ASP141     -0.2456
     67  N         -1.6590 -400.0980   30.0650 N.3   143  ILE143     -0.1231
     68  CA        -0.4360 -400.5040   29.3920 C.3   143  ILE143      0.1692
     69  C         -0.4140 -400.1550   27.9140 C.2   143  ILE143      0.2592
     70  O          0.5840 -399.6260   27.4210 O.2   143  ILE143     -0.2718
     71  CB        -0.1590 -401.9840   29.6310 C.3   143  ILE143      0.0266
     72  CG1        0.2200 -402.1860   31.1010 C.3   143  ILE143      0.0019
     73  CG2        0.9470 -402.4750   28.7190 C.3   143  ILE143      0.0020
     74  CD1        0.2930 -403.6220   31.5120 C.3   143  ILE143      0.0001
     75  N         -1.5200 -400.4310   27.2240 N.am  144  THR144     -0.1953
     76  CA        -1.7230 -400.0150   25.8220 C.3   144  THR144      0.1897
     77  C         -1.3490 -398.5650   25.4690 C.2   144  THR144      0.2313
     78  O         -0.7630 -398.3280   24.4140 O.2   144  THR144     -0.2863
     79  CB        -3.1980 -400.2600   25.3570 C.3   144  THR144      0.1794
     80  OG1       -3.5980 -401.5970   25.6850 O.3   144  THR144     -0.2208
     81  CG2       -3.3310 -400.0640   23.8690 C.3   144  THR144      0.0378
@<TRIPOS>BOND
     1    46    45    2
     2    45    44    1
     3    43    44    1
     4    19    20    1
     5    44    47    1
     6    20    21    1
     7    20    23    1
     8    22    21    2
     9    21    27   am
    10    47    48    1
    11    24    23    1
    12    24    26    1
    13    29    30    2
    14    29    28    1
    15    38    37    2
    16     1     2    1
    17    37    36    1
    18    27    28    1
    19    35    36    1
    20    23    25    1
    21    10    11    1
    22    36    39    1
    23     2     3    1
    24     2     5    1
    25    12    11    1
    26    12    13    2
    27    28    31    1
    28     3     4    2
    29    48    50    1
    30    48    49    1
    31    11    14    1
    32    31    32    1
    33     5     6    1
    34    14    15    1
    35    39    41    1
    36    39    40    1
    37    40    42    1
    38     6     7    1
    39    15    16    1
    40    32    34   am
    41    32    33    2
    42    81    79    1
    43     7     8   ar
    44     7     9   ar
    45    16    17    1
    46    18    17    1
    47    78    77    2
    48    79    80    1
    49    79    76    1
    50    77    76    1
    51    57    56    1
    52    76    75    1
    53    56    58    1
    54    56    55    1
    55    75    69   am
    56    70    69    2
    57    66    64   ar
    58    55    52    1
    59    51    52    1
    60    69    68    1
    61    52    53    1
    62    64    65   ar
    63    64    63    1
    64    73    71    1
    65    68    71    1
    66    68    67    1
    67    59    53   am
    68    59    60    1
    69    53    54    2
    70    71    72    1
    71    62    61    2
    72    63    60    1
    73    60    61    1
    74    72    74    1
