@<TRIPOS>MOLECULE
tmp/5cksC01.pdb
 164 155 0 0 0
SMALL
GASTEIGER

@<TRIPOS>ATOM
      1  N        -10.3010 -399.4740   58.3560 N.3    57  CYS57      -0.1235
      2  CA       -10.5550 -398.9950   57.0090 C.3    57  CYS57       0.1677
      3  C         -9.2350 -399.0340   56.2410 C.2    57  CYS57       0.2270
      4  O         -9.1740 -399.4990   55.1000 O.2    57  CYS57      -0.2867
      5  CB       -11.0960 -397.5660   57.0620 C.3    57  CYS57       0.0956
      6  SG       -11.3240 -396.7520   55.4730 S.3    57  CYS57      -0.0801
      7  N         -8.7840 -407.3270   58.2370 N.3    88  ARG88      -0.1245
      8  CA        -8.6380 -406.3380   57.1780 C.3    88  ARG88       0.1563
      9  C         -7.2580 -405.7130   57.2620 C.2    88  ARG88       0.2260
     10  O         -6.9090 -405.1010   58.2680 O.2    88  ARG88      -0.2867
     11  CB        -9.6770 -405.2200   57.3080 C.3    88  ARG88       0.0307
     12  CG       -11.0170 -405.5180   56.6680 C.3    88  ARG88       0.0489
     13  CD       -11.9780 -404.3460   56.8080 C.3    88  ARG88       0.2205
     14  NE       -11.4610 -403.0950   56.2480 N.pl3  88  ARG88      -0.0865
     15  CZ       -11.9750 -402.4670   55.1920 C.cat  88  ARG88       0.5346
     16  NH1      -13.0340 -402.9660   54.5560 N.pl3  88  ARG88       0.1354
     17  NH2      -11.4330 -401.3290   54.7740 N.pl3  88  ARG88       0.1354
     18  N         -5.7880 -403.2840   54.8080 N.3    90  TYR90      -0.1241
     19  CA        -5.9310 -402.5360   53.5640 C.3    90  TYR90       0.1605
     20  C         -4.8250 -401.5130   53.4050 C.2    90  TYR90       0.2264
     21  O         -4.7400 -400.5490   54.1660 O.2    90  TYR90      -0.2867
     22  CB        -7.3000 -401.8470   53.4660 C.3    90  TYR90       0.0534
     23  CG        -8.4500 -402.7470   53.0610 C.ar   90  TYR90      -0.0201
     24  CD1       -9.4990 -402.2540   52.2990 C.ar   90  TYR90      -0.0009
     25  CD2       -8.5030 -404.0760   53.4670 C.ar   90  TYR90      -0.0009
     26  CE1      -10.5660 -403.0630   51.9340 C.ar   90  TYR90       0.0417
     27  CE2       -9.5600 -404.8980   53.1050 C.ar   90  TYR90       0.0417
     28  CZ       -10.5890 -404.3850   52.3360 C.ar   90  TYR90       0.1957
     29  OH       -11.6450 -405.1930   51.9720 O.3    90  TYR90      -0.2866
     30  N         -6.2730 -397.3860   49.1350 N.3    93  LYS93      -0.1231
     31  CA        -7.5650 -396.7200   49.2740 C.3    93  LYS93       0.1678
     32  C         -8.0120 -395.9760   48.0140 C.2    93  LYS93       0.2434
     33  O         -7.3530 -395.0300   47.5730 O.2    93  LYS93      -0.2733
     34  CB        -7.5410 -395.7450   50.4560 C.3    93  LYS93       0.0284
     35  CG        -7.1010 -396.3820   51.7410 C.3    93  LYS93       0.0035
     36  CD        -7.9560 -397.6050   52.0520 C.3    93  LYS93       0.0206
     37  CE        -9.3920 -397.2290   52.3610 C.3    93  LYS93       0.1093
     38  NZ       -10.1910 -398.4500   52.6640 N.3    93  LYS93      -0.1314
     39  N         -9.1470 -396.3980   47.4380 N.am   94  PRO94      -0.2718
     40  CA        -9.7760 -395.6220   46.3650 C.3    94  PRO94       0.1535
     41  C        -10.4120 -394.3630   46.9390 C.2    94  PRO94       0.2598
     42  O        -11.2380 -394.4570   47.8450 O.2    94  PRO94      -0.2715
     43  CB       -10.8640 -396.5700   45.8460 C.3    94  PRO94       0.0310
     44  CG       -11.1830 -397.4570   47.0290 C.3    94  PRO94       0.0237
     45  CD        -9.8570 -397.6620   47.7060 C.3    94  PRO94       0.0939
     46  N        -10.0360 -393.1980   46.4250 N.am   95  ARG95      -0.1964
     47  CA       -10.6630 -391.9600   46.8730 C.3    95  ARG95       0.1729
     48  C        -11.8230 -391.5410   45.9630 C.2    95  ARG95       0.2617
     49  O        -11.8490 -391.8760   44.7750 O.2    95  ARG95      -0.2715
     50  CB        -9.6340 -390.8360   46.9920 C.3    95  ARG95       0.0348
     51  CG        -8.4450 -391.1850   47.8820 C.3    95  ARG95       0.0492
     52  CD        -8.8720 -391.9260   49.1590 C.3    95  ARG95       0.2205
     53  NE        -9.7290 -391.1280   50.0390 N.pl3  95  ARG95      -0.0865
     54  CZ        -9.3180 -390.5470   51.1650 C.cat  95  ARG95       0.5346
     55  NH1       -8.0560 -390.6710   51.5530 N.pl3  95  ARG95       0.1354
     56  NH2      -10.1710 -389.8480   51.9100 N.pl3  95  ARG95       0.1354
     57  N        -12.7910 -390.8260   46.5310 N.am   96  THR96      -0.1937
     58  CA       -13.9360 -390.3510   45.7630 C.3    96  THR96       0.2028
     59  C        -13.4370 -389.3320   44.7520 C.2    96  THR96       0.2643
     60  O        -13.9370 -389.2500   43.6310 O.2    96  THR96      -0.2714
     61  CB       -15.0480 -389.7610   46.6720 C.3    96  THR96       0.1808
     62  OG1      -15.5610 -390.7950   47.5200 O.3    96  THR96      -0.2208
     63  CG2      -16.1980 -389.1980   45.8470 C.3    96  THR96       0.0379
     64  N        -12.4190 -388.5790   45.1450 N.am   97  THR97      -0.1936
     65  CA       -11.7390 -387.6910   44.2170 C.3    97  THR97       0.2028
     66  C        -10.2330 -387.7680   44.4410 C.2    97  THR97       0.2642
     67  O         -9.5160 -388.4550   43.6970 O.2    97  THR97      -0.2714
     68  CB       -12.2340 -386.2440   44.3600 C.3    97  THR97       0.1808
     69  OG1      -13.6340 -386.1950   44.0500 O.3    97  THR97      -0.2208
     70  CG2      -11.4850 -385.3270   43.4000 C.3    97  THR97       0.0379
     71  N         -9.7610 -387.0640   45.4680 N.am   98  VAL98      -0.1977
     72  CA        -8.3450 -387.0640   45.8320 C.3    98  VAL98       0.1596
     73  C         -8.1810 -387.3090   47.3380 C.2    98  VAL98       0.2287
     74  O         -9.1450 -387.2240   48.0990 O.2    98  VAL98      -0.2864
     75  CB        -7.6560 -385.7420   45.4270 C.3    98  VAL98       0.0276
     76  CG1       -7.6200 -385.5980   43.8980 C.3    98  VAL98       0.0022
     77  CG2       -8.3610 -384.5520   46.0690 C.3    98  VAL98       0.0022
     78  N         -7.9430 -404.9510   49.7030 N.3   139  GLU139     -0.1245
     79  CA        -8.6110 -404.5370   48.4850 C.3   139  GLU139      0.1567
     80  C         -7.5490 -404.4470   47.3960 C.2   139  GLU139      0.2260
     81  O         -6.4840 -403.8590   47.5900 O.2   139  GLU139     -0.2867
     82  CB        -9.3430 -403.1900   48.6300 C.3   139  GLU139      0.0388
     83  CG       -10.1510 -402.8090   47.3660 C.3   139  GLU139      0.1160
     84  CD       -10.6760 -401.3700   47.3420 C.2   139  GLU139      0.3649
     85  OE1      -10.9310 -400.7970   48.4210 O.co2 139  GLU139     -0.2457
     86  OE2      -10.8440 -400.8140   46.2260 O.co2 139  GLU139     -0.2457
     87  N        -16.1970 -401.0030   45.1020 N.3   160  ALA160     -0.1231
     88  CA       -17.4070 -400.6280   44.3760 C.3   160  ALA160      0.1694
     89  C        -17.0840 -399.8260   43.1230 C.2   160  ALA160      0.2591
     90  O        -17.7650 -399.9550   42.1120 O.2   160  ALA160     -0.2718
     91  CB       -18.3410 -399.8320   45.2680 C.3   160  ALA160      0.0304
     92  N        -16.0430 -399.0040   43.1930 N.am  161  ARG161     -0.1980
     93  CA       -15.7290 -398.0910   42.1000 C.3   161  ARG161      0.1597
     94  C        -14.9770 -398.7640   40.9500 C.2   161  ARG161      0.2287
     95  O        -14.7160 -398.1380   39.9260 O.2   161  ARG161     -0.2864
     96  CB       -14.9440 -396.8870   42.6130 C.3   161  ARG161      0.0334
     97  CG       -15.7520 -395.9640   43.5330 C.3   161  ARG161      0.0492
     98  CD       -14.8250 -394.9530   44.2150 C.3   161  ARG161      0.2205
     99  NE       -15.4730 -394.1830   45.2790 N.pl3 161  ARG161     -0.0865
    100  CZ       -15.6770 -394.6270   46.5210 C.cat 161  ARG161      0.5346
    101  NH1      -15.2990 -395.8540   46.8660 N.pl3 161  ARG161      0.1354
    102  NH2      -16.2690 -393.8460   47.4180 N.pl3 161  ARG161      0.1354
    103  N        -17.9630 -405.8080   45.3460 N.3   182  LYS182     -0.1245
    104  CA       -18.9750 -404.9230   45.8940 C.3   182  LYS182      0.1561
    105  C        -19.9690 -404.4780   44.8350 C.2   182  LYS182      0.2260
    106  O        -19.5980 -404.2670   43.6730 O.2   182  LYS182     -0.2867
    107  CB       -18.3190 -403.7060   46.5400 C.3   182  LYS182      0.0271
    108  CG       -17.6460 -404.0130   47.8700 C.3   182  LYS182      0.0035
    109  CD       -17.2240 -402.7370   48.5800 C.3   182  LYS182      0.0206
    110  CE       -16.9020 -402.9990   50.0470 C.3   182  LYS182      0.1093
    111  NZ       -16.8730 -401.7380   50.8200 N.3   182  LYS182     -0.1314
    112  N        -23.1700 -403.6080   50.0020 N.3   230  ARG230     -0.1245
    113  CA       -22.6050 -402.4670   50.7040 C.3   230  ARG230      0.1563
    114  C        -23.5220 -401.2610   50.5710 C.2   230  ARG230      0.2260
    115  O        -23.1110 -400.1290   50.8240 O.2   230  ARG230     -0.2867
    116  CB       -21.2650 -402.1050   50.0800 C.3   230  ARG230      0.0307
    117  CG       -21.4020 -401.9970   48.5790 C.3   230  ARG230      0.0489
    118  CD       -20.4230 -401.0730   47.9520 C.3   230  ARG230      0.2205
    119  NE       -20.2760 -399.7870   48.6260 N.pl3 230  ARG230     -0.0865
    120  CZ       -21.1380 -398.7830   48.5490 C.cat 230  ARG230      0.5346
    121  NH1      -20.8760 -397.6450   49.1820 N.pl3 230  ARG230      0.1354
    122  NH2      -22.2650 -398.9140   47.8620 N.pl3 230  ARG230      0.1354
    123  N        -20.0340 -398.3290   55.4270 N.3   264  HIS264     -0.1241
    124  CA       -20.2870 -397.4830   54.2590 C.3   264  HIS264      0.1621
    125  C        -21.7610 -397.1010   54.1000 C.2   264  HIS264      0.2264
    126  O        -22.3940 -396.6430   55.0600 O.2   264  HIS264     -0.2867
    127  CB       -19.7160 -398.1370   52.9960 C.3   264  HIS264      0.0745
    128  CG       -18.3130 -398.6290   53.1750 C.ar  264  HIS264      0.0817
    129  ND1      -17.9920 -399.9690   53.2340 N.ar  264  HIS264     -0.2268
    130  CD2      -17.1520 -397.9550   53.3660 C.ar  264  HIS264      0.1154
    131  CE1      -16.6910 -400.1000   53.4320 C.ar  264  HIS264      0.1986
    132  NE2      -16.1590 -398.8930   53.5150 N.ar  264  HIS264     -0.2212
    133  N        -22.8010 -394.1820   56.4890 N.3   269  LYS269     -0.1245
    134  CA       -21.5120 -393.5150   56.7490 C.3   269  LYS269      0.1561
    135  C        -21.3320 -393.1250   58.2320 C.2   269  LYS269      0.2260
    136  O        -20.5380 -392.2380   58.5690 O.2   269  LYS269     -0.2867
    137  CB       -21.3180 -392.3000   55.8150 C.3   269  LYS269      0.0271
    138  CG       -19.8720 -391.7790   55.6570 C.3   269  LYS269      0.0035
    139  CD       -19.0910 -392.5360   54.5780 C.3   269  LYS269      0.0206
    140  CE       -17.8220 -391.7850   54.1280 C.3   269  LYS269      0.1093
    141  NZ       -16.6750 -391.8020   55.1030 N.3   269  LYS269     -0.1314
    142  N        -18.4640 -408.0570   56.6380 N.3   296  MET296     -0.1245
    143  CA       -17.3040 -407.1860   56.5860 C.3   296  MET296      0.1570
    144  C        -17.5650 -406.0260   57.5190 C.2   296  MET296      0.2261
    145  O        -18.6230 -405.4070   57.4650 O.2   296  MET296     -0.2867
    146  CB       -17.0510 -406.6880   55.1540 C.3   296  MET296      0.0387
    147  CG       -16.1970 -405.4270   55.0600 C.3   296  MET296      0.0595
    148  SD       -15.6740 -405.0530   53.3550 S.3   296  MET296     -0.1393
    149  CE       -14.7180 -406.5200   52.9920 C.3   296  MET296      0.0692
    150  N         -8.9470 -392.6400   57.8890 N.3   318  THR318     -0.1203
    151  CA        -9.8610 -392.6430   56.7480 C.3   318  THR318      0.1994
    152  C        -11.3260 -392.7080   57.2000 C.2   318  THR318      0.2617
    153  O        -11.8130 -391.7500   57.8020 O.2   318  THR318     -0.2717
    154  CB        -9.5060 -393.7330   55.7280 C.3   318  THR318      0.1784
    155  OG1       -9.2090 -394.9560   56.4070 O.3   318  THR318     -0.2211
    156  CG2       -8.3000 -393.3120   54.9160 C.3   318  THR318      0.0376
    157  N        -12.0200 -393.8100   56.9120 N.am  319  ASP319     -0.1973
    158  CA       -13.4160 -393.9740   57.3440 C.3   319  ASP319      0.1709
    159  C        -13.5000 -394.2230   58.8480 C.2   319  ASP319      0.2293
    160  O        -12.6140 -394.8430   59.4240 O.2   319  ASP319     -0.2864
    161  CB       -14.1000 -395.1550   56.6350 C.3   319  ASP319      0.1436
    162  CG       -14.2950 -394.9330   55.1350 C.2   319  ASP319      0.3671
    163  OD1      -14.4160 -393.7700   54.6940 O.co2 319  ASP319     -0.2456
    164  OD2      -14.3460 -395.9440   54.4020 O.co2 319  ASP319     -0.2456
@<TRIPOS>BOND
     1    95    94    2
     2    94    93    1
     3    93    96    1
     4    93    92    1
     5    90    89    2
     6    96    97    1
     7    89    92   am
     8    89    88    1
     9    70    68    1
    10    97    98    1
    11    60    59    2
    12   106   105    2
    13    67    66    2
    14    76    75    1
    15    69    68    1
    16    98    99    1
    17    65    68    1
    18    65    66    1
    19    65    64    1
    20    88    87    1
    21    88    91    1
    22    66    71   am
    23    59    64   am
    24    59    58    1
    25    49    48    2
    26   105   104    1
    27    99   100    2
    28   103   104    1
    29    75    72    1
    30    75    77    1
    31    71    72    1
    32    58    57    1
    33    58    61    1
    34    72    73    1
    35    43    40    1
    36    43    44    1
    37    63    61    1
    38   104   107    1
    39    48    57   am
    40    48    47    1
    41    86    84   ar
    42    40    41    1
    43    40    39    1
    44    46    47    1
    45    46    41   am
    46   100   101    1
    47   100   102    1
    48   107   108    1
    49    61    62    1
    50    47    50    1
    51    41    42    2
    52    50    51    1
    53    44    45    1
    54    73    74    2
    55    84    83    1
    56    84    85   ar
    57    83    82    1
    58    80    81    2
    59    80    79    1
    60    39    45    1
    61    39    32   am
    62    33    32    2
    63   122   120    1
    64   108   109    1
    65    51    52    1
    66   118   117    1
    67   118   119    1
    68    32    31    1
    69    79    82    1
    70    79    78    1
    71   120   119    2
    72   120   121    1
    73   117   116    1
    74   109   110    1
    75    30    31    1
    76    52    53    1
    77    31    34    1
    78   112   113    1
    79    53    54    2
    80   110   111    1
    81   116   113    1
    82    34    35    1
    83   114   113    1
    84   114   115    2
    85    54    55    1
    86    54    56    1
    87    35    36    1
    88    26    24   ar
    89    26    28   ar
    90    29    28    1
    91    36    37    1
    92    24    23   ar
    93    28    27   ar
    94    37    38    1
    95   149   148    1
    96   127   128    1
    97   127   124    1
    98    23    22    1
    99    23    25   ar
   100    27    25   ar
   101   128   129   ar
   102   128   130   ar
   103   129   131   ar
   104   148   147    1
   105   130   132   ar
   106    20    19    1
   107    20    21    2
   108   131   132   ar
   109    22    19    1
   110    19    18    1
   111   125   124    1
   112   125   126    2
   113   140   139    1
   114   140   141    1
   115   124   123    1
   116   164   162   ar
   117    16    15    1
   118   139   138    1
   119   163   162   ar
   120    17    15    1
   121   156   154    1
   122   147   146    1
   123     4     3    2
   124   162   161    1
   125   146   143    1
   126    15    14    2
   127     6     5    1
   128   138   137    1
   129   154   155    1
   130   154   151    1
   131   137   134    1
   132     3     2    1
   133    14    13    1
   134   133   134    1
   135   143   142    1
   136   143   144    1
   137   161   158    1
   138    12    13    1
   139    12    11    1
   140   151   152    1
   141   151   150    1
   142   134   135    1
   143   157   152   am
   144   157   158    1
   145     2     5    1
   146     2     1    1
   147     8     9    1
   148     8    11    1
   149     8     7    1
   150   152   153    2
   151     9    10    2
   152   158   159    1
   153   145   144    2
   154   135   136    2
   155   159   160    2
