@<TRIPOS>MOLECULE
tmp/5ckuA01.pdb
 178 172 0 0 0
SMALL
GASTEIGER

@<TRIPOS>ATOM
      1  N        -11.8470  -22.1630   11.6050 N.3   188  LYS188     -0.1245
      2  CA       -10.6600  -22.4040   10.7890 C.3   188  LYS188      0.1561
      3  C        -10.7410  -21.5550    9.5360 C.2   188  LYS188      0.2260
      4  O        -11.6810  -21.6950    8.7630 O.2   188  LYS188     -0.2867
      5  CB       -10.5380  -23.8800   10.4090 C.3   188  LYS188      0.0271
      6  CG        -9.2000  -24.2480    9.7790 C.3   188  LYS188      0.0035
      7  CD        -9.1890  -25.6890    9.2740 C.3   188  LYS188      0.0206
      8  CE        -7.7960  -26.2860    9.1860 C.3   188  LYS188      0.1093
      9  NZ        -7.0230  -25.7590    8.0630 N.3   188  LYS188     -0.1314
     10  N         -8.5900  -20.3490    6.0010 N.3   190  PRO190     -0.2116
     11  CA        -7.4200  -20.5560    5.1490 C.3   190  PRO190      0.1372
     12  C         -6.3980  -19.4520    5.4030 C.2   190  PRO190      0.2244
     13  O         -6.7760  -18.2880    5.4740 O.2   190  PRO190     -0.2868
     14  CB        -8.0020  -20.4840    3.7390 C.3   190  PRO190      0.0268
     15  CG        -9.4450  -20.8600    3.9100 C.3   190  PRO190      0.0207
     16  CD        -9.8370  -20.2720    5.2210 C.3   190  PRO190      0.0892
     17  N        -18.2460  -19.0050    8.3240 N.3   202  SER202     -0.1217
     18  CA       -19.6190  -19.5000    8.3370 C.3   202  SER202      0.1889
     19  C        -20.2410  -19.3990    9.7300 C.2   202  SER202      0.2288
     20  O        -21.4470  -19.1750    9.8670 O.2   202  SER202     -0.2866
     21  CB       -19.6760  -20.9570    7.8520 C.3   202  SER202      0.2089
     22  OG       -18.7490  -21.7830    8.5440 O.3   202  SER202     -0.2183
     23  N        -16.9330  -20.0180    0.0670 N.3   225  LEU225     -0.1231
     24  CA       -15.7990  -20.9190   -0.1240 C.3   225  LEU225      0.1693
     25  C        -16.0100  -22.2070    0.6830 C.2   225  LEU225      0.2593
     26  O        -16.2550  -22.1580    1.8900 O.2   225  LEU225     -0.2718
     27  CB       -14.4980  -20.2330    0.2880 C.3   225  LEU225      0.0284
     28  CG       -13.1950  -21.0220    0.1800 C.3   225  LEU225      0.0019
     29  CD1      -12.9140  -21.4050   -1.2520 C.3   225  LEU225      0.0001
     30  CD2      -12.0390  -20.2000    0.7290 C.3   225  LEU225      0.0001
     31  N        -15.9350  -23.3510    0.0130 N.am  226  GLY226     -0.1942
     32  CA       -16.0710  -24.6390    0.6830 C.3   226  GLY226      0.2014
     33  C        -17.1310  -25.5320    0.0630 C.2   226  GLY226      0.2640
     34  O        -17.9290  -25.0810   -0.7580 O.2   226  GLY226     -0.2714
     35  N        -17.1520  -26.8030    0.4500 N.am  227  SER227     -0.1935
     36  CA       -18.1320  -27.7210   -0.1170 C.3   227  SER227      0.2055
     37  C        -18.6730  -28.6950    0.9140 C.2   227  SER227      0.2644
     38  O        -19.1700  -29.7770    0.5640 O.2   227  SER227     -0.2714
     39  CB       -17.5310  -28.4870   -1.3020 C.3   227  SER227      0.2130
     40  OG       -16.3490  -29.1700   -0.9270 O.3   227  SER227     -0.2179
     41  N        -18.5820  -28.3150    2.1850 N.am  228  GLY228     -0.1939
     42  CA       -19.1840  -29.1050    3.2390 C.3   228  GLY228      0.2014
     43  C        -20.6080  -28.6620    3.5400 C.2   228  GLY228      0.2639
     44  O        -21.1730  -27.8300    2.8270 O.2   228  GLY228     -0.2714
     45  N        -21.1750  -29.2110    4.6120 N.am  229  GLN229     -0.1963
     46  CA       -22.5550  -28.9540    4.9880 C.3   229  GLN229      0.1733
     47  C        -22.8140  -27.4640    5.2060 C.2   229  GLN229      0.2617
     48  O        -23.8620  -26.9500    4.8080 O.2   229  GLN229     -0.2715
     49  CB       -22.9160  -29.7480    6.2550 C.3   229  GLN229      0.0408
     50  CG       -24.3710  -29.5850    6.7070 C.3   229  GLN229      0.0908
     51  CD       -25.3450  -30.3630    5.8430 C.2   229  GLN229      0.2608
     52  OE1      -24.9520  -31.2710    5.1150 O.2   229  GLN229     -0.2717
     53  NE2      -26.6180  -30.0040    5.9100 N.am  229  GLN229     -0.0878
     54  N        -21.8620  -26.7720    5.8270 N.am  230  SER230     -0.1936
     55  CA       -22.0250  -25.3430    6.0820 C.3   230  SER230      0.2055
     56  C        -22.0130  -24.5520    4.7860 C.2   230  SER230      0.2642
     57  O        -22.8260  -23.6570    4.6040 O.2   230  SER230     -0.2714
     58  CB       -20.9350  -24.8180    7.0200 C.3   230  SER230      0.2130
     59  OG       -21.1400  -25.3100    8.3290 O.3   230  SER230     -0.2179
     60  N        -21.0780  -24.8730    3.8970 N.am  231  ALA231     -0.1977
     61  CA       -21.0160  -24.1840    2.6050 C.3   231  ALA231      0.1597
     62  C        -22.3450  -24.3260    1.8770 C.2   231  ALA231      0.2287
     63  O        -22.8850  -23.3450    1.3470 O.2   231  ALA231     -0.2864
     64  CB       -19.8850  -24.7290    1.7600 C.3   231  ALA231      0.0319
     65  N        -15.2220  -24.1400   -4.7390 N.3   251  MET251     -0.1230
     66  CA       -14.7350  -25.3410   -4.0600 C.3   251  MET251      0.1702
     67  C        -13.5260  -25.9680   -4.7470 C.2   251  MET251      0.2592
     68  O        -13.4390  -25.9910   -5.9760 O.2   251  MET251     -0.2718
     69  CB       -15.8600  -26.3850   -3.9320 C.3   251  MET251      0.0401
     70  CG       -16.4800  -26.8440   -5.2420 C.3   251  MET251      0.0596
     71  SD       -17.7440  -28.1500   -5.0490 S.3   251  MET251     -0.1393
     72  CE       -19.0940  -27.2850   -4.3280 C.3   251  MET251      0.0692
     73  N        -12.5890  -26.4880   -3.9560 N.am  252  ARG252     -0.1966
     74  CA       -11.4290  -27.1080   -4.5650 C.3   252  ARG252      0.1729
     75  C        -11.7720  -28.5190   -5.0480 C.2   252  ARG252      0.2616
     76  O        -11.1730  -28.9940   -6.0100 O.2   252  ARG252     -0.2715
     77  CB       -10.2310  -27.1230   -3.6140 C.3   252  ARG252      0.0348
     78  CG       -10.4910  -27.6370   -2.2420 C.3   252  ARG252      0.0492
     79  CD        -9.2490  -27.4440   -1.3760 C.3   252  ARG252      0.2205
     80  NE        -9.4860  -27.8700   -0.0010 N.pl3 252  ARG252     -0.0865
     81  CZ        -8.6510  -27.6430    1.0060 C.cat 252  ARG252      0.5346
     82  NH1       -7.5190  -26.9820    0.7970 N.pl3 252  ARG252      0.1354
     83  NH2       -8.9570  -28.0710    2.2210 N.pl3 252  ARG252      0.1354
     84  N        -12.7520  -29.1640   -4.4150 N.am  253  ASP253     -0.1971
     85  CA       -13.2330  -30.4570   -4.9170 C.3   253  ASP253      0.1709
     86  C        -14.0420  -30.2710   -6.2080 C.2   253  ASP253      0.2293
     87  O        -14.3370  -29.1480   -6.6270 O.2   253  ASP253     -0.2864
     88  CB       -14.0810  -31.1740   -3.8650 C.3   253  ASP253      0.1436
     89  CG       -14.1700  -32.6930   -4.1060 C.2   253  ASP253      0.3671
     90  OD1      -13.7380  -33.1660   -5.1770 O.co2 253  ASP253     -0.2456
     91  OD2      -14.6900  -33.4160   -3.2310 O.co2 253  ASP253     -0.2456
     92  N        -14.0950  -40.9640    6.6900 N.3   293  LYS293     -0.1245
     93  CA       -14.1600  -39.5000    6.5540 C.3   293  LYS293      0.1561
     94  C        -15.4810  -38.9870    5.9640 C.2   293  LYS293      0.2260
     95  O        -15.9590  -37.9110    6.3460 O.2   293  LYS293     -0.2867
     96  CB       -12.9930  -39.0000    5.6990 C.3   293  LYS293      0.0271
     97  CG       -12.8820  -37.4870    5.5840 C.3   293  LYS293      0.0035
     98  CD       -11.7740  -37.1130    4.5990 C.3   293  LYS293      0.0206
     99  CE       -11.4860  -35.6300    4.5740 C.3   293  LYS293      0.1093
    100  NZ       -12.6110  -34.8130    4.1030 N.3   293  LYS293     -0.1314
    101  N        -18.3940  -37.6030    8.0980 N.3   296  ALA296     -0.1231
    102  CA       -18.2490  -36.4600    9.0050 C.3   296  ALA296      0.1694
    103  C        -17.7660  -35.1650    8.3680 C.2   296  ALA296      0.2592
    104  O        -18.2800  -34.0940    8.6780 O.2   296  ALA296     -0.2718
    105  CB       -17.3100  -36.8350   10.1550 C.3   296  ALA296      0.0304
    106  N        -16.7640  -35.2480    7.5020 N.am  297  TYR297     -0.1962
    107  CA       -16.1300  -34.0320    7.0030 C.3   297  TYR297      0.1771
    108  C        -16.2300  -33.8810    5.5040 C.2   297  TYR297      0.2620
    109  O        -16.1850  -34.8700    4.7670 O.2   297  TYR297     -0.2715
    110  CB       -14.6620  -33.9930    7.4190 C.3   297  TYR297      0.0574
    111  CG       -14.5030  -33.9580    8.9060 C.ar  297  TYR297     -0.0198
    112  CD1      -14.7050  -32.7800    9.6070 C.ar  297  TYR297     -0.0009
    113  CD2      -14.1820  -35.1080    9.6170 C.ar  297  TYR297     -0.0009
    114  CE1      -14.5810  -32.7340   10.9730 C.ar  297  TYR297      0.0417
    115  CE2      -14.0520  -35.0770   10.9920 C.ar  297  TYR297      0.0417
    116  CZ       -14.2550  -33.8830   11.6650 C.ar  297  TYR297      0.1957
    117  OH       -14.1320  -33.8250   13.0300 O.3   297  TYR297     -0.2866
    118  N        -16.3730  -32.6270    5.0790 N.am  298  SER298     -0.1936
    119  CA       -16.4330  -32.2580    3.6800 C.3   298  SER298      0.2055
    120  C        -17.5630  -32.9850    2.9630 C.2   298  SER298      0.2642
    121  O        -17.4060  -33.4250    1.8240 O.2   298  SER298     -0.2714
    122  CB       -15.0910  -32.5480    3.0080 C.3   298  SER298      0.2130
    123  OG       -14.0570  -31.7930    3.6230 O.3   298  SER298     -0.2179
    124  N        -18.7040  -33.1070    3.6340 N.am  299  VAL299     -0.1977
    125  CA       -19.8410  -33.8140    3.0560 C.3   299  VAL299      0.1596
    126  C        -21.1470  -33.1040    3.3690 C.2   299  VAL299      0.2287
    127  O        -21.2400  -32.3800    4.3600 O.2   299  VAL299     -0.2864
    128  CB       -19.9220  -35.2760    3.5620 C.3   299  VAL299      0.0276
    129  CG1      -18.8030  -36.1220    2.9530 C.3   299  VAL299      0.0022
    130  CG2      -19.8900  -35.3130    5.1050 C.3   299  VAL299      0.0022
    131  N        -11.5340  -25.1650   -7.9240 N.3   333  ARG333     -0.1231
    132  CA       -10.9270  -23.8490   -7.9220 C.3   333  ARG333      0.1694
    133  C        -10.2460  -23.6140   -6.5840 C.2   333  ARG333      0.2591
    134  O        -10.6270  -24.2090   -5.5770 O.2   333  ARG333     -0.2718
    135  CB       -11.9770  -22.7620   -8.1820 C.3   333  ARG333      0.0321
    136  CG       -12.8670  -22.9770   -9.4050 C.3   333  ARG333      0.0489
    137  CD       -12.1020  -22.8160  -10.7040 C.3   333  ARG333      0.2205
    138  NE       -12.9000  -22.1460  -11.7350 N.pl3 333  ARG333     -0.0865
    139  CZ       -13.9070  -22.6990  -12.4110 C.cat 333  ARG333      0.5346
    140  NH1      -14.2820  -23.9560  -12.1770 N.pl3 333  ARG333      0.1354
    141  NH2      -14.5520  -21.9830  -13.3280 N.pl3 333  ARG333      0.1354
    142  N         -9.2190  -22.7730   -6.5750 N.am  334  LYS334     -0.1980
    143  CA        -8.6930  -22.2480   -5.3170 C.3   334  LYS334      0.1596
    144  C         -8.4980  -20.7470   -5.4690 C.2   334  LYS334      0.2287
    145  O         -8.2960  -20.2510   -6.5810 O.2   334  LYS334     -0.2864
    146  CB        -7.3800  -22.9300   -4.9110 C.3   334  LYS334      0.0298
    147  CG        -6.2030  -22.7780   -5.8840 C.3   334  LYS334      0.0038
    148  CD        -4.9190  -23.3580   -5.2690 C.3   334  LYS334      0.0206
    149  CE        -3.7150  -23.1650   -6.1940 C.3   334  LYS334      0.1093
    150  NZ        -3.4660  -21.7370   -6.4920 N.3   334  LYS334     -0.1314
    151  N        -16.5550  -21.1750    4.5410 N.3   367  ALA367     -0.1231
    152  CA       -17.1250  -22.3320    5.2310 C.3   367  ALA367      0.1694
    153  C        -16.1240  -23.4910    5.3050 C.2   367  ALA367      0.2593
    154  O        -16.3810  -24.6060    4.8260 O.2   367  ALA367     -0.2718
    155  CB       -18.4090  -22.7710    4.5430 C.3   367  ALA367      0.0304
    156  N        -14.9880  -23.2090    5.9340 N.am  368  THR368     -0.1939
    157  CA       -13.8280  -24.0860    5.9010 C.3   368  THR368      0.2028
    158  C        -13.5880  -24.8100    7.2370 C.2   368  THR368      0.2643
    159  O        -12.4760  -25.2650    7.5050 O.2   368  THR368     -0.2714
    160  CB       -12.5740  -23.2730    5.5250 C.3   368  THR368      0.1808
    161  OG1      -12.5670  -22.0600    6.2910 O.3   368  THR368     -0.2208
    162  CG2      -12.6000  -22.9060    4.0270 C.3   368  THR368      0.0379
    163  N        -14.6210  -24.8880    8.0740 N.am  369  GLY369     -0.1939
    164  CA       -14.5780  -25.7210    9.2640 C.3   369  GLY369      0.2014
    165  C        -13.9800  -25.1220   10.5330 C.2   369  GLY369      0.2638
    166  O        -13.9010  -23.8950   10.6990 O.2   369  GLY369     -0.2714
    167  N        -13.5480  -26.0140   11.4260 N.am  370  TYR370     -0.1973
    168  CA       -13.1240  -25.6440   12.7680 C.3   370  TYR370      0.1639
    169  C        -11.8160  -26.3130   13.1900 C.2   370  TYR370      0.2290
    170  O        -11.4760  -27.4080   12.7260 O.2   370  TYR370     -0.2864
    171  CB       -14.2190  -26.0080   13.7800 C.3   370  TYR370      0.0560
    172  CG       -15.5360  -25.3030   13.5520 C.ar  370  TYR370     -0.0198
    173  CD1      -16.4580  -25.7960   12.6380 C.ar  370  TYR370     -0.0009
    174  CD2      -15.8580  -24.1440   14.2530 C.ar  370  TYR370     -0.0009
    175  CE1      -17.6580  -25.1560   12.4230 C.ar  370  TYR370      0.0417
    176  CE2      -17.0570  -23.4970   14.0450 C.ar  370  TYR370      0.0417
    177  CZ       -17.9580  -24.0120   13.1360 C.ar  370  TYR370      0.1957
    178  OH       -19.1580  -23.3720   12.9180 O.3   370  TYR370     -0.2866
@<TRIPOS>BOND
     1   141   139    1
     2   139   140    1
     3   139   138    2
     4   138   137    1
     5   137   136    1
     6   136   135    1
     7   135   132    1
     8   131   132    1
     9   132   133    1
    10    87    86    2
    11   133   142   am
    12   133   134    2
    13   145   144    2
    14   142   143    1
    15   150   149    1
    16    86    85    1
    17   149   148    1
    18    76    75    2
    19    68    67    2
    20   147   148    1
    21   147   146    1
    22   144   143    1
    23   143   146    1
    24    70    71    1
    25    70    69    1
    26    90    89   ar
    27    71    72    1
    28    75    74    1
    29    75    84   am
    30    85    84    1
    31    85    88    1
    32    67    66    1
    33    67    73   am
    34    65    66    1
    35    74    73    1
    36    74    77    1
    37    89    88    1
    38    89    91   ar
    39    66    69    1
    40    77    78    1
    41    78    79    1
    42    79    80    1
    43    39    40    1
    44    39    36    1
    45    29    28    1
    46    34    33    2
    47    24    23    1
    48    24    27    1
    49    24    25    1
    50    36    35    1
    51    36    37    1
    52    80    81    2
    53    31    25   am
    54    31    32    1
    55    33    35   am
    56    33    32    1
    57    28    27    1
    58    28    30    1
    59    38    37    2
    60    25    26    2
    61    82    81    1
    62    37    41   am
    63    81    83    1
    64    63    62    2
    65    64    61    1
    66   121   120    2
    67    62    61    1
    68    41    42    1
    69    61    60    1
    70    44    43    2
    71   129   128    1
    72   120   124   am
    73   120   119    1
    74   122   123    1
    75   122   119    1
    76   125   126    1
    77   125   128    1
    78   125   124    1
    79    42    43    1
    80   126   127    2
    81    43    45   am
    82   128   130    1
    83   119   118    1
    84    14    15    1
    85    14    11    1
    86    60    56   am
    87    15    16    1
    88   162   160    1
    89   100    99    1
    90   151   152    1
    91   155   152    1
    92    99    98    1
    93    98    97    1
    94    57    56    2
    95    45    46    1
    96   109   108    2
    97    56    55    1
    98    48    47    2
    99   154   153    2
   100    46    47    1
   101    46    49    1
   102   118   108   am
   103    52    51    2
   104    11    12    1
   105    11    10    1
   106    47    54   am
   107    16    10    1
   108   152   153    1
   109   153   156   am
   110    12    13    2
   111   108   107    1
   112   160   157    1
   113   160   161    1
   114    97    96    1
   115    96    93    1
   116    54    55    1
   117    51    53   am
   118    51    50    1
   119   157   156    1
   120   157   158    1
   121    94    95    2
   122    94    93    1
   123    55    58    1
   124    49    50    1
   125    93    92    1
   126   107   110    1
   127   107   106    1
   128    58    59    1
   129   158   159    2
   130   158   163   am
   131   110   111    1
   132   106   103   am
   133    21    18    1
   134    21    22    1
   135     9     8    1
   136   163   164    1
   137   101   102    1
   138    17    18    1
   139    18    19    1
   140   103   104    2
   141   103   102    1
   142     4     3    2
   143   111   112   ar
   144   111   113   ar
   145   102   105    1
   146     8     7    1
   147   164   165    1
   148     7     6    1
   149     3     2    1
   150   112   114   ar
   151   113   115   ar
   152    19    20    2
   153     6     5    1
   154     5     2    1
   155   165   166    2
   156   165   167   am
   157     2     1    1
   158   114   116   ar
   159   115   116   ar
   160   167   168    1
   161   116   117    1
   162   175   173   ar
   163   175   177   ar
   164   173   172   ar
   165   170   169    2
   166   168   169    1
   167   168   171    1
   168   178   177    1
   169   177   176   ar
   170   172   171    1
   171   172   174   ar
   172   176   174   ar
