@<TRIPOS>MOLECULE
tmp/5ckxB00.pdb
 86 83 0 0 0
SMALL
GASTEIGER

@<TRIPOS>ATOM
      1  N         10.9530  112.1220   11.1150 N.3     3  TRP3       -0.1241
      2  CA        11.9840  113.1190   10.8790 C.3     3  TRP3        0.1605
      3  C         11.6850  113.8580    9.5770 C.2     3  TRP3        0.2264
      4  O         10.7170  113.5620    8.8720 O.2     3  TRP3       -0.2867
      5  CB        13.3820  112.4820   10.8830 C.3     3  TRP3        0.0550
      6  CG        13.6010  111.2830    9.9700 C.ar    3  TRP3        0.0003
      7  CD1       13.0470  110.0360   10.0910 C.ar    3  TRP3        0.0946
      8  CD2       14.4740  111.2200    8.8330 C.ar    3  TRP3        0.0152
      9  NE1       13.5060  109.2150    9.0900 N.ar    3  TRP3       -0.2442
     10  CE2       14.3840  109.9170    8.3070 C.ar    3  TRP3        0.0810
     11  CE3       15.3140  112.1410    8.2050 C.ar    3  TRP3        0.0012
     12  CZ2       15.0990  109.5190    7.1800 C.ar    3  TRP3        0.0191
     13  CZ3       16.0220  111.7400    7.0890 C.ar    3  TRP3        0.0001
     14  CH2       15.9080  110.4430    6.5880 C.ar    3  TRP3        0.0015
     15  N         13.5110  116.0880    6.1200 N.3     5  VAL5       -0.1231
     16  CA        14.6500  116.4820    5.2930 C.3     5  VAL5        0.1692
     17  C         14.2860  117.7300    4.5010 C.2     5  VAL5        0.2592
     18  O         13.1510  117.8730    4.0300 O.2     5  VAL5       -0.2718
     19  CB        15.1010  115.3610    4.3350 C.3     5  VAL5        0.0266
     20  CG1       15.5660  114.1490    5.1170 C.3     5  VAL5        0.0020
     21  CG2       13.9850  114.9960    3.3740 C.3     5  VAL5        0.0020
     22  N         15.2570  118.6270    4.3540 N.am    6  ASP6       -0.1974
     23  CA        15.0950  119.8100    3.5270 C.3     6  ASP6        0.1709
     24  C         15.2890  119.4500    2.0570 C.2     6  ASP6        0.2293
     25  O         16.0850  118.5720    1.7100 O.2     6  ASP6       -0.2864
     26  CB        16.0990  120.8980    3.9330 C.3     6  ASP6        0.1436
     27  CG        16.1110  121.1610    5.4320 C.2     6  ASP6        0.3671
     28  OD1       15.0660  120.9500    6.0830 O.co2   6  ASP6       -0.2456
     29  OD2       17.1650  121.5780    5.9630 O.co2   6  ASP6       -0.2456
     30  N         16.1470  115.5390   -3.4960 N.3    46  VAL46      -0.1245
     31  CA        16.9060  115.0640   -2.3410 C.3    46  VAL46       0.1561
     32  C         17.9220  114.0250   -2.7940 C.2    46  VAL46       0.2260
     33  O         19.1380  114.2110   -2.6620 O.2    46  VAL46      -0.2867
     34  CB        15.9610  114.4840   -1.2720 C.3    46  VAL46       0.0252
     35  CG1       16.7460  113.9470   -0.0820 C.3    46  VAL46       0.0019
     36  CG2       14.9500  115.5280   -0.8140 C.3    46  VAL46       0.0019
     37  N         21.5650  114.4520   -4.5090 N.3    49  SER49      -0.1202
     38  CA        22.7530  114.9920   -3.8590 C.3    49  SER49       0.2020
     39  C         23.3370  114.0770   -2.7930 C.2    49  SER49       0.2619
     40  O         24.5010  114.2670   -2.4110 O.2    49  SER49      -0.2717
     41  CB        22.4360  116.3530   -3.2190 C.3    49  SER49       0.2103
     42  OG        21.7590  117.1980   -4.1420 O.3    49  SER49      -0.2182
     43  N         22.5860  113.0800   -2.3360 N.am   50  VAL50      -0.1966
     44  CA        22.9940  112.2010   -1.2460 C.3    50  VAL50       0.1712
     45  C         24.2770  111.4650   -1.6200 C.2    50  VAL50       0.2458
     46  O         24.5350  111.2480   -2.8120 O.2    50  VAL50      -0.2730
     47  CB        21.8780  111.2030   -0.8970 C.3    50  VAL50       0.0289
     48  CG1       20.5730  111.9260   -0.6280 C.3    50  VAL50       0.0023
     49  CG2       21.6960  110.1860   -2.0040 C.3    50  VAL50       0.0023
     50  N         25.1030  111.0730   -0.6500 N.am   51  PRO51      -0.2727
     51  CA        26.2510  110.2000   -0.9420 C.3    51  PRO51       0.1402
     52  C         25.8040  108.8900   -1.5690 C.2    51  PRO51       0.2269
     53  O         24.8560  108.2560   -1.0830 O.2    51  PRO51      -0.2865
     54  CB        26.8740  109.9700    0.4430 C.3    51  PRO51       0.0296
     55  CG        26.4910  111.1670    1.2270 C.3    51  PRO51       0.0237
     56  CD        25.1290  111.5620    0.7390 C.3    51  PRO51       0.0939
     57  N         13.0250  108.4520   -0.1610 N.3   165  VAL165     -0.1245
     58  CA        14.1200  108.8360    0.7280 C.3   165  VAL165      0.1561
     59  C         14.2880  107.8110    1.8420 C.2   165  VAL165      0.2260
     60  O         15.4050  107.4070    2.1760 O.2   165  VAL165     -0.2867
     61  CB        13.8770  110.2430    1.3020 C.3   165  VAL165      0.0252
     62  CG1       14.7730  110.4840    2.5110 C.3   165  VAL165      0.0019
     63  CG2       14.1280  111.2990    0.2460 C.3   165  VAL165      0.0019
     64  N         16.3760  105.0200    0.4620 N.3   168  TYR168     -0.1227
     65  CA        17.8040  105.2960    0.3550 C.3   168  TYR168      0.1736
     66  C         18.4670  105.3100    1.7250 C.2   168  TYR168      0.2595
     67  O         19.5580  104.7580    1.9040 O.2   168  TYR168     -0.2718
     68  CB        18.0460  106.6300   -0.3440 C.3   168  TYR168      0.0548
     69  CG        19.4050  107.1910   -0.0220 C.ar  168  TYR168     -0.0200
     70  CD1       20.5250  106.7870   -0.7250 C.ar  168  TYR168     -0.0009
     71  CD2       19.5720  108.1060    1.0050 C.ar  168  TYR168     -0.0009
     72  CE1       21.7710  107.2850   -0.4290 C.ar  168  TYR168      0.0417
     73  CE2       20.8180  108.6160    1.3100 C.ar  168  TYR168      0.0417
     74  CZ        21.9150  108.1980    0.5930 C.ar  168  TYR168      0.1957
     75  OH        23.1550  108.7120    0.9030 O.3   168  TYR168     -0.2866
     76  N         17.8330  105.9560    2.7010 N.am  169  ALA169     -0.1980
     77  CA        18.4340  106.0660    4.0220 C.3   169  ALA169      0.1597
     78  C         18.6640  104.6870    4.6250 C.2   169  ALA169      0.2287
     79  O         19.7350  104.4070    5.1730 O.2   169  ALA169     -0.2864
     80  CB        17.5460  106.9220    4.9230 C.3   169  ALA169      0.0319
     81  N         21.7290  102.8490    2.3840 N.3   172  SER172     -0.1217
     82  CA        23.1120  103.1990    2.6650 C.3   172  SER172      0.1889
     83  C         23.5060  102.8520    4.0930 C.2   172  SER172      0.2288
     84  O         24.6960  102.6770    4.3720 O.2   172  SER172     -0.2866
     85  CB        23.3390  104.6840    2.3990 C.3   172  SER172      0.2089
     86  OG        22.7200  105.4690    3.3960 O.3   172  SER172     -0.2183
@<TRIPOS>BOND
     1    37    38    1
     2    42    41    1
     3    38    41    1
     4    38    39    1
     5    30    31    1
     6    46    45    2
     7    32    33    2
     8    32    31    1
     9    39    40    2
    10    39    43   am
    11    31    34    1
    12    43    44    1
    13    49    47    1
    14    45    44    1
    15    45    50   am
    16    52    53    2
    17    52    51    1
    18    34    36    1
    19    34    35    1
    20    44    47    1
    21    51    50    1
    22    51    54    1
    23    47    48    1
    24    70    72   ar
    25    70    69   ar
    26    50    56    1
    27    72    74   ar
    28    68    69    1
    29    68    65    1
    30    57    58    1
    31    69    71   ar
    32    63    61    1
    33    65    64    1
    34    65    66    1
    35    54    55    1
    36    74    75    1
    37    74    73   ar
    38    58    61    1
    39    58    59    1
    40    56    55    1
    41    71    73   ar
    42    61    62    1
    43    25    24    2
    44    66    67    2
    45    66    76   am
    46    59    60    2
    47    24    23    1
    48    81    82    1
    49    85    82    1
    50    85    86    1
    51    82    83    1
    52    76    77    1
    53    21    19    1
    54    23    26    1
    55    23    22    1
    56    26    27    1
    57    77    78    1
    58    77    80    1
    59    18    17    2
    60    83    84    2
    61    19    20    1
    62    19    16    1
    63    22    17   am
    64    17    16    1
    65    78    79    2
    66    16    15    1
    67    27    29   ar
    68    27    28   ar
    69    14    13   ar
    70    14    12   ar
    71    13    11   ar
    72    12    10   ar
    73    11     8   ar
    74    10     8   ar
    75    10     9   ar
    76     8     6   ar
    77     4     3    2
    78     9     7   ar
    79     3     2    1
    80     6     7   ar
    81     6     5    1
    82     2     5    1
    83     2     1    1
