@<TRIPOS>MOLECULE
tmp/5ckxB02.pdb
 120 114 0 0 0
SMALL
GASTEIGER

@<TRIPOS>ATOM
      1  N         24.5580  118.9240   -9.1800 N.3    10  LEU10      -0.1231
      2  CA        25.0820  117.8620  -10.0360 C.3    10  LEU10       0.1678
      3  C         25.2560  118.3630  -11.4690 C.2    10  LEU10       0.2434
      4  O         24.4930  119.2140  -11.9210 O.2    10  LEU10      -0.2733
      5  CB        24.1650  116.6300  -10.0010 C.3    10  LEU10       0.0284
      6  CG        22.7110  116.7350  -10.4710 C.3    10  LEU10       0.0019
      7  CD1       22.0830  115.3450  -10.4760 C.3    10  LEU10       0.0001
      8  CD2       21.8740  117.6830   -9.6130 C.3    10  LEU10       0.0001
      9  N         26.2460  117.8330  -12.1870 N.am   11  PRO11      -0.2718
     10  CA        26.6530  118.4430  -13.4600 C.3    11  PRO11       0.1520
     11  C         25.8160  117.9410  -14.6230 C.2    11  PRO11       0.2440
     12  O         25.2790  116.8230  -14.5810 O.2    11  PRO11      -0.2731
     13  CB        28.1190  118.0090  -13.6020 C.3    11  PRO11       0.0310
     14  CG        28.2560  116.7740  -12.7290 C.3    11  PRO11       0.0237
     15  CD        26.9860  116.5860  -11.9400 C.3    11  PRO11       0.0939
     16  N         25.7060  118.7300  -15.6940 N.am   12  PRO12      -0.2716
     17  CA        24.8330  118.3450  -16.8060 C.3    12  PRO12       0.1536
     18  C         25.4070  117.1810  -17.5990 C.2    12  PRO12       0.2598
     19  O         26.6180  117.0760  -17.8120 O.2    12  PRO12      -0.2715
     20  CB        24.7620  119.6200  -17.6540 C.3    12  PRO12       0.0310
     21  CG        26.0570  120.2860  -17.3990 C.3    12  PRO12       0.0237
     22  CD        26.4130  119.9920  -15.9720 C.3    12  PRO12       0.0939
     23  N         24.5100  116.3110  -18.0410 N.am   13  LEU13      -0.1978
     24  CA        24.9040  115.1870  -18.8640 C.3    13  LEU13       0.1596
     25  C         25.3990  115.6790  -20.2230 C.2    13  LEU13       0.2287
     26  O         24.8800  116.6670  -20.7530 O.2    13  LEU13      -0.2864
     27  CB        23.7190  114.2420  -19.0620 C.3    13  LEU13       0.0297
     28  CG        23.0410  113.7190  -17.8000 C.3    13  LEU13       0.0022
     29  CD1       21.8040  112.8990  -18.1310 C.3    13  LEU13       0.0001
     30  CD2       24.0230  112.8780  -17.0390 C.3    13  LEU13       0.0001
     31  N         22.0380  112.7240  -22.0930 N.3    18  ARG18      -0.1245
     32  CA        20.7860  113.4360  -21.8600 C.3    18  ARG18       0.1563
     33  C         19.6720  112.8780  -22.7430 C.2    18  ARG18       0.2260
     34  O         18.5810  112.5440  -22.2620 O.2    18  ARG18      -0.2867
     35  CB        20.9990  114.9290  -22.1300 C.3    18  ARG18       0.0307
     36  CG        19.8930  115.8350  -21.6390 C.3    18  ARG18       0.0489
     37  CD        19.8710  115.9090  -20.1320 C.3    18  ARG18       0.2205
     38  NE        18.7770  115.1290  -19.5630 N.pl3  18  ARG18      -0.0865
     39  CZ        18.6220  114.8960  -18.2620 C.cat  18  ARG18       0.5346
     40  NH1       19.5000  115.3790  -17.3880 N.pl3  18  ARG18       0.1354
     41  NH2       17.5950  114.1750  -17.8350 N.pl3  18  ARG18       0.1354
     42  N         18.8570  108.9750  -22.2630 N.3    21  LEU21      -0.1245
     43  CA        18.1920  108.7750  -20.9790 C.3    21  LEU21       0.1561
     44  C         16.7650  109.3010  -21.0130 C.2    21  LEU21       0.2260
     45  O         15.8190  108.5910  -20.6440 O.2    21  LEU21      -0.2867
     46  CB        18.9770  109.4550  -19.8630 C.3    21  LEU21       0.0270
     47  CG        18.2340  109.5110  -18.5250 C.3    21  LEU21       0.0019
     48  CD1       17.8390  108.1140  -18.0580 C.3    21  LEU21       0.0001
     49  CD2       19.0750  110.2100  -17.4860 C.3    21  LEU21       0.0001
     50  N         13.2170  112.9310   -5.6600 N.3    44  ARG44      -0.1245
     51  CA        14.3620  112.7440   -6.5420 C.3    44  ARG44       0.1563
     52  C         15.3790  113.8730   -6.4370 C.2    44  ARG44       0.2260
     53  O         16.5450  113.6740   -6.7970 O.2    44  ARG44      -0.2867
     54  CB        13.8970  112.6290   -7.9840 C.3    44  ARG44       0.0307
     55  CG        13.0900  111.3680   -8.3120 C.3    44  ARG44       0.0489
     56  CD        12.5670  111.4420   -9.7360 C.3    44  ARG44       0.2205
     57  NE        13.3890  112.3460  -10.5450 N.pl3  44  ARG44      -0.0865
     58  CZ        12.9300  113.1290  -11.5170 C.cat  44  ARG44       0.5346
     59  NH1       11.6380  113.1400  -11.8250 N.pl3  44  ARG44       0.1354
     60  NH2       13.7730  113.9140  -12.1790 N.pl3  44  ARG44       0.1354
     61  N         19.2690  113.2310   -5.4110 N.3    48  GLU48      -0.1245
     62  CA        20.2750  113.5720   -6.4100 C.3    48  GLU48       0.1567
     63  C         21.5370  114.1810   -5.8150 C.2    48  GLU48       0.2260
     64  O         22.4950  114.4140   -6.5580 O.2    48  GLU48      -0.2867
     65  CB        19.6830  114.5360   -7.4370 C.3    48  GLU48       0.0388
     66  CG        19.1030  113.8360   -8.6450 C.3    48  GLU48       0.1160
     67  CD        18.0290  114.6480   -9.3300 C.2    48  GLU48       0.3649
     68  OE1       17.8500  115.8260   -8.9420 O.co2  48  GLU48      -0.2457
     69  OE2       17.3650  114.1030  -10.2470 O.co2  48  GLU48      -0.2457
     70  N         16.4940  106.7400  -11.3270 N.3   246  ARG246     -0.1231
     71  CA        16.8170  108.0260  -11.9390 C.3   246  ARG246      0.1694
     72  C         17.6580  108.8920  -11.0200 C.2   246  ARG246      0.2591
     73  O         18.6880  109.4410  -11.4260 O.2   246  ARG246     -0.2718
     74  CB        15.5380  108.7830  -12.2590 C.3   246  ARG246      0.0321
     75  CG        14.8440  108.3800  -13.5020 C.3   246  ARG246      0.0489
     76  CD        13.7750  109.3990  -13.7640 C.3   246  ARG246      0.2205
     77  NE        14.3720  110.6280  -14.2640 N.pl3 246  ARG246     -0.0865
     78  CZ        13.6830  111.6030  -14.8340 C.cat 246  ARG246      0.5346
     79  NH1       12.3680  111.4860  -14.9640 N.pl3 246  ARG246      0.1354
     80  NH2       14.3120  112.6830  -15.2770 N.pl3 246  ARG246      0.1354
     81  N         17.1800  109.0860   -9.7900 N.am  247  ALA247     -0.1980
     82  CA        17.8610  109.9780   -8.8630 C.3   247  ALA247      0.1597
     83  C         19.2520  109.4620   -8.5380 C.2   247  ALA247      0.2287
     84  O         20.2100  110.2410   -8.4660 O.2   247  ALA247     -0.2864
     85  CB        17.0330  110.1350   -7.5900 C.3   247  ALA247      0.0319
     86  N         21.3340  107.9900  -10.3010 N.3   249  LEU249     -0.1231
     87  CA        22.2790  108.0090  -11.4100 C.3   249  LEU249      0.1693
     88  C         23.3840  109.0220  -11.1580 C.2   249  LEU249      0.2592
     89  O         23.1190  110.1540  -10.7510 O.2   249  LEU249     -0.2718
     90  CB        21.5690  108.3550  -12.7210 C.3   249  LEU249      0.0284
     91  CG        20.6800  107.2950  -13.3740 C.3   249  LEU249      0.0019
     92  CD1       19.9830  107.8960  -14.5740 C.3   249  LEU249      0.0001
     93  CD2       21.4990  106.0920  -13.7970 C.3   249  LEU249      0.0001
     94  N         24.6240  108.6210  -11.4250 N.am  250  ARG250     -0.1966
     95  CA        25.7580  109.5280  -11.3640 C.3   250  ARG250      0.1729
     96  C         26.6320  109.3080  -12.5900 C.2   250  ARG250      0.2616
     97  O         26.6580  108.2210  -13.1690 O.2   250  ARG250     -0.2715
     98  CB        26.5800  109.3290  -10.0810 C.3   250  ARG250      0.0348
     99  CG        25.7920  109.5080   -8.7850 C.3   250  ARG250      0.0492
    100  CD        25.3480  110.9490   -8.5640 C.3   250  ARG250      0.2205
    101  NE        24.6610  111.1120   -7.2860 N.pl3 250  ARG250     -0.0865
    102  CZ        23.3800  110.8240   -7.0740 C.cat 250  ARG250      0.5346
    103  NH1       22.6240  110.3510   -8.0560 N.pl3 250  ARG250      0.1354
    104  NH2       22.8460  111.0020   -5.8720 N.pl3 250  ARG250      0.1354
    105  N         27.3440  110.3570  -12.9780 N.am  251  LEU251     -0.1977
    106  CA        28.1420  110.3670  -14.1930 C.3   251  LEU251      0.1596
    107  C         29.6180  110.2390  -13.8380 C.2   251  LEU251      0.2287
    108  O         30.1020  110.9210  -12.9300 O.2   251  LEU251     -0.2864
    109  CB        27.8910  111.6570  -14.9710 C.3   251  LEU251      0.0297
    110  CG        28.5610  111.7950  -16.3380 C.3   251  LEU251      0.0022
    111  CD1       27.6510  111.2380  -17.4260 C.3   251  LEU251      0.0001
    112  CD2       28.9200  113.2390  -16.6130 C.3   251  LEU251      0.0001
    113  N         27.0710  106.6930  -17.5620 N.3   261  LEU261     -0.1245
    114  CA        26.1040  106.8180  -16.4840 C.3   261  LEU261      0.1561
    115  C         26.0900  105.5350  -15.6700 C.2   261  LEU261      0.2260
    116  O         25.7760  104.4600  -16.1950 O.2   261  LEU261     -0.2867
    117  CB        24.7040  107.1140  -17.0220 C.3   261  LEU261      0.0270
    118  CG        24.4670  108.5630  -17.4310 C.3   261  LEU261      0.0019
    119  CD1       23.1000  108.7120  -18.0760 C.3   261  LEU261      0.0001
    120  CD2       24.6040  109.4880  -16.2280 C.3   261  LEU261      0.0001
@<TRIPOS>BOND
     1    33    34    2
     2    33    32    1
     3    42    43    1
     4    35    32    1
     5    35    36    1
     6    31    32    1
     7    36    37    1
     8    44    43    1
     9    44    45    2
    10    43    46    1
    11    26    25    2
    12    25    24    1
    13    37    38    1
    14    46    47    1
    15    38    39    2
    16    27    24    1
    17    27    28    1
    18    24    23    1
    19    47    48    1
    20    47    49    1
    21    39    41    1
    22    39    40    1
    23    29    28    1
    24   119   118    1
    25    23    18   am
    26    19    18    2
    27    28    30    1
    28    20    21    1
    29    20    17    1
    30    18    17    1
    31   113   114    1
    32   118   117    1
    33   118   120    1
    34   111   110    1
    35    21    22    1
    36   117   114    1
    37    17    16    1
    38   112   110    1
    39   114   115    1
    40   110   109    1
    41   116   115    2
    42    22    16    1
    43    16    11   am
    44    80    78    1
    45   109   106    1
    46    79    78    1
    47    78    77    2
    48    11    12    2
    49    11    10    1
    50    92    91    1
    51    77    76    1
    52   106   107    1
    53   106   105    1
    54   107   108    2
    55    93    91    1
    56    76    75    1
    57    13    10    1
    58    13    14    1
    59    75    74    1
    60    10     9    1
    61    91    90    1
    62    97    96    2
    63   105    96   am
    64    14    15    1
    65    90    87    1
    66    96    95    1
    67    74    71    1
    68     9    15    1
    69     9     3   am
    70    60    58    1
    71    71    70    1
    72    71    72    1
    73     4     3    2
    74    59    58    1
    75    58    57    2
    76     3     2    1
    77    73    72    2
    78    94    95    1
    79    94    88   am
    80    87    88    1
    81    87    86    1
    82    95    98    1
    83    88    89    2
    84    72    81   am
    85    57    56    1
    86     7     6    1
    87     6     5    1
    88     6     8    1
    89    69    67   ar
    90    98    99    1
    91     2     5    1
    92     2     1    1
    93    81    82    1
    94    56    55    1
    95    67    68   ar
    96    67    66    1
    97    82    83    1
    98    82    85    1
    99    99   100    1
   100    66    65    1
   101   100   101    1
   102    83    84    2
   103    55    54    1
   104   103   102    1
   105    54    51    1
   106    65    62    1
   107   101   102    2
   108   102   104    1
   109    53    52    2
   110    64    63    2
   111    51    52    1
   112    51    50    1
   113    62    63    1
   114    62    61    1
