@<TRIPOS>MOLECULE
tmp/5cljA00.pdb
 108 103 0 0 0
SMALL
GASTEIGER

@<TRIPOS>ATOM
      1  N        -10.5890   19.8380   35.1420 N.3    10  GLY10      -0.1210
      2  CA       -11.8570   19.1380   34.9850 C.3    10  GLY10       0.1956
      3  C        -12.6010   18.8580   36.2810 C.2    10  GLY10       0.2612
      4  O        -13.8240   18.7990   36.2870 O.2    10  GLY10      -0.2717
      5  N        -11.8760   18.6730   37.3800 N.am   11  SER11      -0.1952
      6  CA       -12.5230   18.4290   38.6670 C.3    11  SER11       0.1924
      7  C        -11.5330   18.5600   39.7890 C.2    11  SER11       0.2314
      8  O        -10.3250   18.6640   39.5470 O.2    11  SER11      -0.2863
      9  CB       -13.1540   17.0340   38.7150 C.3    11  SER11       0.2116
     10  OG       -12.1560   16.0580   38.8760 O.3    11  SER11      -0.2180
     11  N        -10.4540   16.3410   41.6740 N.3    13  SER13      -0.1202
     12  CA        -9.4900   15.2450   41.7020 C.3    13  SER13       0.2020
     13  C         -8.2470   15.5670   40.8490 C.2    13  SER13       0.2618
     14  O         -7.1860   14.9820   41.0550 O.2    13  SER13      -0.2717
     15  CB       -10.1460   13.9370   41.2500 C.3    13  SER13       0.2103
     16  OG       -10.6010   14.0280   39.9220 O.3    13  SER13      -0.2182
     17  N         -8.3740   16.5120   39.9180 N.am   14  ASP14      -0.1973
     18  CA        -7.2210   17.0140   39.1590 C.3    14  ASP14       0.1709
     19  C         -6.2930   17.9300   39.9690 C.2    14  ASP14       0.2293
     20  O         -5.1760   18.2140   39.5380 O.2    14  ASP14      -0.2864
     21  CB        -7.6880   17.7720   37.9230 C.3    14  ASP14       0.1436
     22  CG        -8.5000   16.9040   36.9740 C.2    14  ASP14       0.3671
     23  OD1       -8.2290   15.6930   36.8930 O.co2  14  ASP14      -0.2456
     24  OD2       -9.4040   17.4380   36.3100 O.co2  14  ASP14      -0.2456
     25  N        -15.4700   21.9450   33.7660 N.3    38  SER38      -0.1202
     26  CA       -15.6000   20.6450   33.1030 C.3    38  SER38       0.2020
     27  C        -16.1950   20.8070   31.7170 C.2    38  SER38       0.2619
     28  O        -17.2910   21.3400   31.5810 O.2    38  SER38      -0.2717
     29  CB       -16.4730   19.6970   33.9260 C.3    38  SER38       0.2103
     30  OG       -16.7060   18.4850   33.2230 O.3    38  SER38      -0.2182
     31  N        -15.4840   20.3580   30.6840 N.am   39  ALA39      -0.1965
     32  CA       -16.0340   20.4290   29.3310 C.3    39  ALA39       0.1728
     33  C        -17.3570   19.6610   29.2560 C.2    39  ALA39       0.2616
     34  O        -18.3370   20.1230   28.6660 O.2    39  ALA39      -0.2715
     35  CB       -15.0370   19.8770   28.3100 C.3    39  ALA39       0.0334
     36  N        -17.3930   18.4900   29.8810 N.am   40  ASN40      -0.1958
     37  CA       -18.5520   17.6200   29.7390 C.3    40  ASN40       0.1819
     38  C        -19.6580   17.8860   30.7650 C.2    40  ASN40       0.2621
     39  O        -20.8240   17.7460   30.4490 O.2    40  ASN40      -0.2715
     40  CB       -18.1170   16.1490   29.8020 C.3    40  ASN40       0.1195
     41  CG       -17.0640   15.7970   28.7400 C.2    40  ASN40       0.2630
     42  OD1      -16.0290   15.2160   29.0570 O.2    40  ASN40      -0.2716
     43  ND2      -17.3320   16.1420   27.4790 N.am   40  ASN40      -0.0877
     44  N        -19.2990   18.2720   31.9890 N.am   41  ARG41      -0.1977
     45  CA       -20.3120   18.4970   33.0250 C.3    41  ARG41       0.1597
     46  C        -20.7620   19.9570   33.1000 C.2    41  ARG41       0.2287
     47  O        -21.8860   20.2440   33.5100 O.2    41  ARG41      -0.2864
     48  CB       -19.7920   18.0550   34.3970 C.3    41  ARG41       0.0334
     49  CG       -19.4440   16.5640   34.5210 C.3    41  ARG41       0.0492
     50  CD       -18.9490   16.2570   35.9380 C.3    41  ARG41       0.2205
     51  NE       -18.6670   14.8370   36.1460 N.pl3  41  ARG41      -0.0865
     52  CZ       -17.5150   14.3610   36.6020 C.cat  41  ARG41       0.5346
     53  NH1      -16.5230   15.1960   36.8950 N.pl3  41  ARG41       0.1354
     54  NH2      -17.3560   13.0520   36.7780 N.pl3  41  ARG41       0.1354
     55  N         -6.9060   17.8350   32.5950 N.3    65  ALA65      -0.1231
     56  CA        -8.0090   16.9030   32.7760 C.3    65  ALA65       0.1694
     57  C         -7.5450   15.4670   32.5660 C.2    65  ALA65       0.2593
     58  O         -6.5320   15.2180   31.9050 O.2    65  ALA65      -0.2718
     59  CB        -9.1750   17.2400   31.8160 C.3    65  ALA65       0.0304
     60  N         -8.2890   14.5320   33.1460 N.am   66  GLY66      -0.1942
     61  CA        -8.0220   13.1100   32.9980 C.3    66  GLY66       0.2014
     62  C         -9.0800   12.4150   32.1570 C.2    66  GLY66       0.2639
     63  O        -10.0650   13.0330   31.7430 O.2    66  GLY66      -0.2714
     64  N         -8.8730   11.1310   31.8920 N.am   67  GLY67      -0.1939
     65  CA        -9.8110   10.3450   31.1100 C.3    67  GLY67       0.2014
     66  C         -9.8380   10.8580   29.6880 C.2    67  GLY67       0.2639
     67  O         -8.7930   11.2250   29.1410 O.2    67  GLY67      -0.2714
     68  N        -11.0150   10.8210   29.0660 N.am   68  ALA68      -0.1963
     69  CA       -11.1960   11.4610   27.7720 C.3    68  ALA68       0.1728
     70  C        -11.2380   12.9610   28.0160 C.2    68  ALA68       0.2616
     71  O        -12.3110   13.5600   28.1300 O.2    68  ALA68      -0.2715
     72  CB       -12.4620   10.9780   27.0880 C.3    68  ALA68       0.0334
     73  N        -10.0540   13.5520   28.1150 N.am   69  ALA69      -0.1963
     74  CA        -9.9070   14.9340   28.5290 C.3    69  ALA69       0.1728
     75  C        -10.3600   15.8660   27.4240 C.2    69  ALA69       0.2616
     76  O         -9.5830   16.2050   26.5320 O.2    69  ALA69      -0.2715
     77  CB        -8.4600   15.2220   28.9120 C.3    69  ALA69       0.0334
     78  N        -11.6220   16.2720   27.4680 N.am   70  HIS70      -0.1959
     79  CA       -12.0980   17.2030   26.4500 C.3    70  HIS70       0.1787
     80  C        -11.7500   18.6500   26.7800 C.2    70  HIS70       0.2620
     81  O        -11.7280   19.5050   25.8960 O.2    70  HIS70      -0.2715
     82  CB       -13.6090   17.0640   26.2800 C.3    70  HIS70       0.0785
     83  CG       -14.0250   15.7560   25.6860 C.ar   70  HIS70       0.0821
     84  ND1      -15.2530   15.5660   25.0960 N.ar   70  HIS70      -0.2267
     85  CD2      -13.3620   14.5840   25.5560 C.ar   70  HIS70       0.1154
     86  CE1      -15.3410   14.3220   24.6570 C.ar   70  HIS70       0.1986
     87  NE2      -14.2030   13.7060   24.9210 N.ar   70  HIS70      -0.2212
     88  N        -11.4770   18.9240   28.0500 N.am   71  LEU71      -0.1977
     89  CA       -11.3550   20.3170   28.5050 C.3    71  LEU71       0.1596
     90  C        -10.3190   21.1610   27.7340 C.2    71  LEU71       0.2287
     91  O        -10.6460   22.2680   27.3020 O.2    71  LEU71      -0.2864
     92  CB       -11.0460   20.3530   30.0060 C.3    71  LEU71       0.0297
     93  CG       -10.7950   21.7430   30.5970 C.3    71  LEU71       0.0022
     94  CD1      -12.0720   22.5850   30.5120 C.3    71  LEU71       0.0001
     95  CD2      -10.3020   21.6240   32.0360 C.3    71  LEU71       0.0001
     96  N         -3.9260   14.5610   32.8740 N.3    88  VAL88      -0.1245
     97  CA        -3.9050   14.0750   34.2440 C.3    88  VAL88       0.1561
     98  C         -3.9520   12.5400   34.2480 C.2    88  VAL88       0.2260
     99  O         -4.7450   11.9290   33.5340 O.2    88  VAL88      -0.2867
    100  CB        -5.0810   14.6410   35.0630 C.3    88  VAL88       0.0252
    101  CG1       -5.1110   14.0310   36.4740 C.3    88  VAL88       0.0019
    102  CG2       -4.9930   16.1670   35.1340 C.3    88  VAL88       0.0019
    103  N         -4.9650    9.0950   34.9510 N.3    90  SER90      -0.1217
    104  CA        -6.1820    8.3620   35.3010 C.3    90  SER90       0.1889
    105  C         -5.8280    6.9980   35.8440 C.2    90  SER90       0.2288
    106  O         -4.7770    6.4870   35.5700 O.2    90  SER90      -0.2866
    107  CB        -7.0530    8.1480   34.0660 C.3    90  SER90       0.2089
    108  OG        -6.3120    7.7870   32.8970 O.3    90  SER90      -0.2183
@<TRIPOS>BOND
     1    86    87   ar
     2    86    84   ar
     3    87    85   ar
     4    84    83   ar
     5    85    83   ar
     6    83    82    1
     7    81    80    2
     8    82    79    1
     9    79    80    1
    10    79    78    1
    11    76    75    2
    12    80    88   am
    13    72    69    1
    14    91    90    2
    15    75    78   am
    16    75    74    1
    17    43    41   am
    18    90    89    1
    19    69    70    1
    20    69    68    1
    21    70    73   am
    22    70    71    2
    23    88    89    1
    24    73    74    1
    25    35    32    1
    26    89    92    1
    27    74    77    1
    28    34    33    2
    29    41    42    2
    30    41    40    1
    31    68    66   am
    32    67    66    2
    33    33    32    1
    34    33    36   am
    35    32    31    1
    36    66    65    1
    37    37    40    1
    38    37    36    1
    39    37    38    1
    40    92    93    1
    41    39    38    2
    42    94    93    1
    43    93    95    1
    44    31    27   am
    45    38    44   am
    46    65    64    1
    47    28    27    2
    48    27    26    1
    49    63    62    2
    50    59    56    1
    51    64    62   am
    52    58    57    2
    53    44    45    1
    54    62    61    1
    55    57    56    1
    56    57    60   am
    57    55    56    1
    58    96    97    1
    59   108   107    1
    60    61    60    1
    61    45    46    1
    62    45    48    1
    63    46    47    2
    64    26    25    1
    65    26    29    1
    66    30    29    1
    67    99    98    2
    68   107   104    1
    69    97    98    1
    70    97   100    1
    71    48    49    1
    72    49    50    1
    73   103   104    1
    74     2     1    1
    75     2     3    1
    76   100   102    1
    77   100   101    1
    78   104   105    1
    79   106   105    2
    80    50    51    1
    81    51    52    2
    82     3     4    2
    83     3     5   am
    84    24    22   ar
    85    52    54    1
    86    52    53    1
    87    23    22   ar
    88    22    21    1
    89     5     6    1
    90    21    18    1
    91     6     9    1
    92     6     7    1
    93     9    10    1
    94    18    17    1
    95    18    19    1
    96    20    19    2
    97     8     7    2
    98    17    13   am
    99    16    15    1
   100    13    14    2
   101    13    12    1
   102    15    12    1
   103    11    12    1
