@<TRIPOS>MOLECULE
tmp/5clmA00.pdb
 165 157 0 0 0
SMALL
GASTEIGER

@<TRIPOS>ATOM
      1  N         78.4640   42.7100   -0.6090 N.3    13  GLY13      -0.1210
      2  CA        78.1600   42.6640    0.8270 C.3    13  GLY13       0.1956
      3  C         78.1260   44.0000    1.5640 C.2    13  GLY13       0.2612
      4  O         77.8130   44.0280    2.7540 O.2    13  GLY13      -0.2717
      5  N         78.4220   45.1020    0.8680 N.am   14  GLN14      -0.1965
      6  CA        78.5520   46.4280    1.4860 C.3    14  GLN14       0.1733
      7  C         77.5500   47.4760    0.9710 C.2    14  GLN14       0.2617
      8  O         77.6480   48.6390    1.3370 O.2    14  GLN14      -0.2715
      9  CB        79.9840   46.9440    1.2870 C.3    14  GLN14       0.0408
     10  CG        81.0570   46.0340    1.8730 C.3    14  GLN14       0.0908
     11  CD        82.4420   46.6670    1.8830 C.2    14  GLN14       0.2608
     12  OE1       82.6780   47.7060    1.2590 O.2    14  GLN14      -0.2717
     13  NE2       83.3690   46.0350    2.5970 N.am   14  GLN14      -0.0878
     14  N         76.6040   47.0710    0.1270 N.am   15  GLY15      -0.1940
     15  CA        75.5550   47.9650   -0.3680 C.3    15  GLY15       0.2014
     16  C         75.9210   48.8700   -1.5340 C.2    15  GLY15       0.2638
     17  O         77.0880   49.0410   -1.8800 O.2    15  GLY15      -0.2714
     18  N         74.8850   49.4400   -2.1310 N.am   16  TYR16      -0.1973
     19  CA        74.9950   50.3190   -3.2830 C.3    16  TYR16       0.1639
     20  C         74.8780   51.7600   -2.8060 C.2    16  TYR16       0.2290
     21  O         73.9760   52.0880   -2.0280 O.2    16  TYR16      -0.2864
     22  CB        73.8800   50.0010   -4.2880 C.3    16  TYR16       0.0560
     23  CG        73.9420   48.5870   -4.8240 C.ar   16  TYR16      -0.0198
     24  CD1       73.4080   47.5260   -4.1020 C.ar   16  TYR16      -0.0009
     25  CD2       74.5420   48.3100   -6.0500 C.ar   16  TYR16      -0.0009
     26  CE1       73.4620   46.2260   -4.5860 C.ar   16  TYR16       0.0417
     27  CE2       74.6000   47.0130   -6.5440 C.ar   16  TYR16       0.0417
     28  CZ        74.0650   45.9740   -5.8060 C.ar   16  TYR16       0.1957
     29  OH        74.1170   44.6900   -6.2900 O.3    16  TYR16      -0.2866
     30  N         74.8340   55.5510    0.9890 N.3    32  LEU32      -0.1245
     31  CA        74.0890   54.3020    0.7630 C.3    32  LEU32       0.1561
     32  C         72.6400   54.5850    0.3680 C.2    32  LEU32       0.2260
     33  O         71.9940   55.4370    0.9690 O.2    32  LEU32      -0.2867
     34  CB        74.0850   53.4410    2.0330 C.3    32  LEU32       0.0270
     35  CG        73.4480   52.0500    1.9340 C.3    32  LEU32       0.0019
     36  CD1       74.3940   51.0970    1.2190 C.3    32  LEU32       0.0001
     37  CD2       73.0730   51.5200    3.3080 C.3    32  LEU32       0.0001
     38  N         68.9650   53.4220    0.4610 N.3    34  ASP34      -0.1239
     39  CA        68.2590   52.6010    1.4320 C.3    34  ASP34       0.1674
     40  C         66.7420   52.8230    1.3910 C.2    34  ASP34       0.2266
     41  O         66.2320   53.7770    1.9790 O.2    34  ASP34      -0.2867
     42  CB        68.8160   52.9100    2.8230 C.3    34  ASP34       0.1410
     43  CG        68.2700   51.9950    3.8940 C.2    34  ASP34       0.3668
     44  OD1       67.6560   50.9630    3.5640 O.co2  34  ASP34      -0.2456
     45  OD2       68.4630   52.3130    5.0790 O.co2  34  ASP34      -0.2456
     46  N         64.6000   50.9490    2.9000 N.3    36  GLY36      -0.1210
     47  CA        64.0450   50.4570    4.1750 C.3    36  GLY36       0.1956
     48  C         64.2190   51.3560    5.3940 C.2    36  GLY36       0.2612
     49  O         64.0190   50.9100    6.5310 O.2    36  GLY36      -0.2717
     50  N         64.5940   52.6110    5.1660 N.am   37  SER37      -0.1952
     51  CA        64.6480   53.6240    6.2160 C.3    37  SER37       0.1924
     52  C         64.2710   54.9780    5.6120 C.2    37  SER37       0.2314
     53  O         64.0600   55.0670    4.4050 O.2    37  SER37      -0.2863
     54  CB        66.0390   53.6570    6.8600 C.3    37  SER37       0.2116
     55  OG        67.0210   54.1770    5.9740 O.3    37  SER37      -0.2180
     56  N         69.2670   49.7520   16.6740 N.3    73  TYR73      -0.1241
     57  CA        68.7830   48.6510   15.8270 C.3    73  TYR73       0.1605
     58  C         68.9320   47.3160   16.5790 C.2    73  TYR73       0.2264
     59  O         69.2550   47.3100   17.7720 O.2    73  TYR73      -0.2867
     60  CB        69.5550   48.6400   14.4940 C.3    73  TYR73       0.0534
     61  CG        69.3550   49.8890   13.6570 C.ar   73  TYR73      -0.0201
     62  CD1       68.0790   50.2620   13.2270 C.ar   73  TYR73      -0.0009
     63  CD2       70.4350   50.6930   13.2820 C.ar   73  TYR73      -0.0009
     64  CE1       67.8790   51.4030   12.4600 C.ar   73  TYR73       0.0417
     65  CE2       70.2450   51.8370   12.5130 C.ar   73  TYR73       0.0417
     66  CZ        68.9650   52.1870   12.1040 C.ar   73  TYR73       0.1957
     67  OH        68.7580   53.3150   11.3440 O.3    73  TYR73      -0.2866
     68  N         77.3880   50.3340   12.7810 N.3   110  PHE110     -0.1241
     69  CA        76.4910   50.9840   11.8260 C.3   110  PHE110      0.1605
     70  C         77.2270   51.1600   10.5050 C.2   110  PHE110      0.2264
     71  O         76.7820   50.6520    9.4710 O.2   110  PHE110     -0.2867
     72  CB        76.0210   52.3320   12.3840 C.3   110  PHE110      0.0534
     73  CG        75.2610   53.1730   11.3950 C.ar  110  PHE110     -0.0203
     74  CD1       73.9450   52.8680   11.0730 C.ar  110  PHE110     -0.0042
     75  CD2       75.8620   54.2750   10.7880 C.ar  110  PHE110     -0.0042
     76  CE1       73.2390   53.6440   10.1630 C.ar  110  PHE110     -0.0003
     77  CE2       75.1640   55.0510    9.8780 C.ar  110  PHE110     -0.0003
     78  CZ        73.8510   54.7370    9.5660 C.ar  110  PHE110     -0.0000
     79  N         80.2860   50.3240    7.9870 N.3   112  ILE112     -0.1245
     80  CA        81.0050   49.0950    7.6610 C.3   112  ILE112      0.1561
     81  C         82.5010   49.4250    7.6090 C.2   112  ILE112      0.2260
     82  O         82.9040   50.3630    6.9180 O.2   112  ILE112     -0.2867
     83  CB        80.5110   48.4930    6.3220 C.3   112  ILE112      0.0252
     84  CG1       78.9970   48.2190    6.3840 C.3   112  ILE112      0.0019
     85  CG2       81.2680   47.2120    5.9870 C.3   112  ILE112      0.0019
     86  CD1       78.4070   47.6460    5.1120 C.3   112  ILE112      0.0001
     87  N         81.2650   54.4040    1.7130 N.3   117  TRP117     -0.1241
     88  CA        80.1780   55.3540    1.9960 C.3   117  TRP117      0.1605
     89  C         80.1620   55.8530    3.4190 C.2   117  TRP117      0.2264
     90  O         80.6230   55.1800    4.3450 O.2   117  TRP117     -0.2867
     91  CB        78.8100   54.8050    1.5810 C.3   117  TRP117      0.0550
     92  CG        78.4190   53.4760    2.1680 C.ar  117  TRP117      0.0003
     93  CD1       78.5610   52.2210    1.5890 C.ar  117  TRP117      0.0946
     94  CD2       77.7630   53.2290    3.4540 C.ar  117  TRP117      0.0152
     95  NE1       78.0660   51.2420    2.4110 N.ar  117  TRP117     -0.2442
     96  CE2       77.5770   51.7770    3.5460 C.ar  117  TRP117      0.0810
     97  CE3       77.3350   54.0290    4.5040 C.ar  117  TRP117      0.0012
     98  CZ2       76.9880   51.1810    4.6500 C.ar  117  TRP117      0.0191
     99  CZ3       76.7450   53.4180    5.6170 C.ar  117  TRP117      0.0001
    100  CH2       76.5750   52.0260    5.6840 C.ar  117  TRP117      0.0015
    101  N         73.5810   57.4100    4.9250 N.3   120  ILE120     -0.1245
    102  CA        72.4510   56.6360    4.4280 C.3   120  ILE120      0.1561
    103  C         71.3890   57.5800    3.8860 C.2   120  ILE120      0.2260
    104  O         71.0280   58.5460    4.5560 O.2   120  ILE120     -0.2867
    105  CB        71.8510   55.7500    5.5410 C.3   120  ILE120      0.0252
    106  CG1       72.9080   54.7670    6.0430 C.3   120  ILE120      0.0019
    107  CG2       70.6380   54.9830    5.0270 C.3   120  ILE120      0.0019
    108  CD1       72.3550   53.6120    6.8520 C.3   120  ILE120      0.0001
    109  N         63.5640   46.3340    0.2950 N.3   222  ASP222     -0.1225
    110  CA        64.6110   47.0180    1.0590 C.3   222  ASP222      0.1805
    111  C         65.9740   46.9320    0.3650 C.2   222  ASP222      0.2598
    112  O         66.6150   45.8920    0.3840 O.2   222  ASP222     -0.2718
    113  CB        64.6870   46.3960    2.4590 C.3   222  ASP222      0.1424
    114  CG        65.6210   47.1450    3.4000 C.2   222  ASP222      0.3668
    115  OD1       66.1630   48.2090    3.0220 O.co2 222  ASP222     -0.2456
    116  OD2       65.8040   46.6580    4.5370 O.co2 222  ASP222     -0.2456
    117  N         66.4230   48.0390   -0.2210 N.am  223  SER223     -0.1938
    118  CA        67.7550   48.1030   -0.8280 C.3   223  SER223      0.2055
    119  C         68.9030   48.1090    0.2010 C.2   223  SER223      0.2644
    120  O         70.0520   47.9050   -0.1780 O.2   223  SER223     -0.2714
    121  CB        67.8750   49.3370   -1.7300 C.3   223  SER223      0.2130
    122  OG        67.7580   50.5320   -0.9770 O.3   223  SER223     -0.2179
    123  N         68.5990   48.3700    1.4770 N.am  224  GLY224     -0.1939
    124  CA        69.5980   48.3400    2.5570 C.3   224  GLY224      0.2014
    125  C         69.7410   47.0310    3.3250 C.2   224  GLY224      0.2640
    126  O         70.3280   47.0190    4.4010 O.2   224  GLY224     -0.2714
    127  N         69.2040   45.9390    2.7810 N.am  225  THR225     -0.1936
    128  CA        69.3670   44.5960    3.3410 C.3   225  THR225      0.2028
    129  C         69.8510   43.6770    2.2280 C.2   225  THR225      0.2642
    130  O         69.3670   43.7660    1.1010 O.2   225  THR225     -0.2714
    131  CB        68.0370   44.0730    3.9180 C.3   225  THR225      0.1808
    132  OG1       67.6610   44.8850    5.0330 O.3   225  THR225     -0.2208
    133  CG2       68.1490   42.6200    4.3790 C.3   225  THR225      0.0379
    134  N         70.8060   42.8040    2.5480 N.am  226  THR226     -0.1950
    135  CA        71.4280   41.9240    1.5560 C.3   226  THR226      0.1897
    136  C         70.4930   40.7620    1.2200 C.2   226  THR226      0.2313
    137  O         70.1460   40.5420    0.0560 O.2   226  THR226     -0.2863
    138  CB        72.7780   41.3580    2.0710 C.3   226  THR226      0.1794
    139  OG1       73.6100   42.4310    2.5290 O.3   226  THR226     -0.2208
    140  CG2       73.5120   40.6000    0.9780 C.3   226  THR226      0.0378
    141  N         75.3440   33.4290   -2.7190 N.3   301  ARG301     -0.1245
    142  CA        76.2660   34.5550   -2.9280 C.3   301  ARG301      0.1563
    143  C         77.7230   34.1390   -2.7470 C.2   301  ARG301      0.2260
    144  O         78.0450   33.4740   -1.7580 O.2   301  ARG301     -0.2867
    145  CB        75.9560   35.6900   -1.9540 C.3   301  ARG301      0.0307
    146  CG        74.6730   36.4250   -2.2810 C.3   301  ARG301      0.0489
    147  CD        74.4630   37.5850   -1.3310 C.3   301  ARG301      0.2205
    148  NE        73.4520   38.5100   -1.8320 N.pl3 301  ARG301     -0.0865
    149  CZ        73.6430   39.4370   -2.7750 C.cat 301  ARG301      0.5346
    150  NH1       74.8250   39.6080   -3.3670 N.pl3 301  ARG301      0.1354
    151  NH2       72.6220   40.2090   -3.1310 N.pl3 301  ARG301      0.1354
    152  N         68.6260   42.7750   -1.3820 N.3   326  ALA326     -0.1245
    153  CA        69.4540   42.7560   -2.6050 C.3   326  ALA326      0.1562
    154  C         69.3460   41.4470   -3.3930 C.2   326  ALA326      0.2260
    155  O         69.4200   41.4630   -4.6190 O.2   326  ALA326     -0.2867
    156  CB        70.9070   43.0380   -2.2680 C.3   326  ALA326      0.0290
    157  N         68.5060   42.3700   -7.0560 N.3   330  GLU330     -0.1245
    158  CA        69.5150   42.1390   -8.1000 C.3   330  GLU330      0.1567
    159  C         68.9790   41.3620   -9.3090 C.2   330  GLU330      0.2260
    160  O         69.5950   41.3870  -10.3720 O.2   330  GLU330     -0.2867
    161  CB        70.7630   41.4610   -7.5380 C.3   330  GLU330      0.0388
    162  CG        71.6840   42.4190   -6.8010 C.3   330  GLU330      0.1160
    163  CD        72.8630   41.7260   -6.1490 C.2   330  GLU330      0.3649
    164  OE1       73.2450   40.6120   -6.5880 O.co2 330  GLU330     -0.2457
    165  OE2       73.4100   42.2990   -5.1800 O.co2 330  GLU330     -0.2457
@<TRIPOS>BOND
     1   160   159    2
     2   159   158    1
     3   158   161    1
     4   158   157    1
     5   161   162    1
     6   162   163    1
     7   164   163   ar
     8    27    25   ar
     9    27    28   ar
    10    29    28    1
    11   163   165   ar
    12    25    23   ar
    13    28    26   ar
    14    23    22    1
    15    23    24   ar
    16   155   154    2
    17    26    24   ar
    18    22    19    1
    19   154   153    1
    20   150   149    1
    21    19    20    1
    22    19    18    1
    23   151   149    1
    24   142   143    1
    25   142   141    1
    26   142   145    1
    27    20    21    2
    28   149   148    2
    29   143   144    2
    30   153   156    1
    31   153   152    1
    32   146   145    1
    33   146   147    1
    34    18    16   am
    35    17    16    2
    36   148   147    1
    37   121   122    1
    38   121   118    1
    39    16    15    1
    40   118   117    1
    41   118   119    1
    42     1     2    1
    43    15    14    1
    44   117   111   am
    45   120   119    2
    46   137   136    2
    47    14     7   am
    48   119   123   am
    49   109   110    1
    50   111   112    2
    51   111   110    1
    52    32    31    1
    53    32    33    2
    54    38    39    1
    55    31    30    1
    56    31    34    1
    57     2     3    1
    58     5     6    1
    59     5     3   am
    60     7     8    2
    61     7     6    1
    62   140   138    1
    63   110   113    1
    64   130   129    2
    65    36    35    1
    66   136   135    1
    67    12    11    2
    68     9     6    1
    69     9    10    1
    70    40    39    1
    71    40    41    2
    72    39    42    1
    73   123   124    1
    74   135   138    1
    75   135   134    1
    76     3     4    2
    77    91    88    1
    78    91    92    1
    79    93    92   ar
    80    93    95   ar
    81    87    88    1
    82    10    11    1
    83    11    13   am
    84    35    34    1
    85    35    37    1
    86    88    89    1
    87   138   139    1
    88    92    94   ar
    89   129   134   am
    90   129   128    1
    91    95    96   ar
    92   113   114    1
    93   124   125    1
    94   127   125   am
    95   127   128    1
    96    42    43    1
    97    46    47    1
    98   115   114   ar
    99   125   126    2
   100   128   131    1
   101   114   116   ar
   102    89    90    2
   103    94    96   ar
   104    94    97   ar
   105    96    98   ar
   106    44    43   ar
   107   103   102    1
   108   103   104    2
   109    43    45   ar
   110   131   133    1
   111   131   132    1
   112    47    48    1
   113    53    52    2
   114   102   101    1
   115   102   105    1
   116    97    99   ar
   117    98   100   ar
   118   107   105    1
   119    86    84    1
   120    50    48   am
   121    50    51    1
   122    48    49    2
   123   105   106    1
   124    52    51    1
   125    99   100   ar
   126    55    54    1
   127    85    83    1
   128   106   108    1
   129    51    54    1
   130    83    84    1
   131    83    80    1
   132    82    81    2
   133    81    80    1
   134    80    79    1
   135    71    70    2
   136    78    77   ar
   137    78    76   ar
   138    77    75   ar
   139    76    74   ar
   140    70    69    1
   141    75    73   ar
   142    74    73   ar
   143    67    66    1
   144    73    72    1
   145    69    72    1
   146    69    68    1
   147    66    64   ar
   148    66    65   ar
   149    64    62   ar
   150    65    63   ar
   151    62    61   ar
   152    63    61   ar
   153    61    60    1
   154    60    57    1
   155    57    58    1
   156    57    56    1
   157    58    59    2
