@<TRIPOS>MOLECULE
tmp/5clpA01.pdb
 113 104 0 0 0
SMALL
GASTEIGER

@<TRIPOS>ATOM
      1  N         13.8110  163.7990  392.6240 N.3    43  LEU43      -0.1231
      2  CA        12.6870  164.3800  393.3570 C.3    43  LEU43       0.1693
      3  C         12.3670  163.5810  394.6230 C.2    43  LEU43       0.2593
      4  O         11.9260  164.1490  395.6280 O.2    43  LEU43      -0.2718
      5  CB        11.4470  164.4880  392.4660 C.3    43  LEU43       0.0284
      6  CG        11.5480  165.3960  391.2380 C.3    43  LEU43       0.0019
      7  CD1       10.2640  165.3340  390.4180 C.3    43  LEU43       0.0001
      8  CD2       11.8860  166.8450  391.6310 C.3    43  LEU43       0.0001
      9  N         12.5780  162.2700  394.5570 N.am   44  GLY44      -0.1942
     10  CA        12.3140  161.3890  395.6890 C.3    44  GLY44       0.2014
     11  C         12.4590  159.9260  395.3470 C.2    44  GLY44       0.2638
     12  O         12.8620  159.5700  394.2330 O.2    44  GLY44      -0.2714
     13  N         12.1370  159.0600  396.3130 N.am   45  ARG45      -0.1977
     14  CA        12.2670  157.6230  396.0910 C.3    45  ARG45       0.1597
     15  C         11.3070  156.8030  396.9240 C.2    45  ARG45       0.2287
     16  O         10.7360  157.3000  397.9000 O.2    45  ARG45      -0.2864
     17  CB        13.7300  157.1510  396.2940 C.3    45  ARG45       0.0334
     18  CG        14.2900  157.3730  397.6990 C.3    45  ARG45       0.0492
     19  CD        15.7450  156.9630  397.8060 C.3    45  ARG45       0.2205
     20  NE        15.9040  155.5080  397.8550 N.pl3  45  ARG45      -0.0865
     21  CZ        17.0550  154.8820  398.0880 C.cat  45  ARG45       0.5346
     22  NH1       18.1660  155.5770  398.3050 N.pl3  45  ARG45       0.1354
     23  NH2       17.1020  153.5570  398.1130 N.pl3  45  ARG45       0.1354
     24  N         12.2130  158.7450  391.5640 N.3    51  VAL51      -0.1245
     25  CA        11.5040  159.7380  390.7590 C.3    51  VAL51       0.1561
     26  C         12.4380  160.9170  390.4750 C.2    51  VAL51       0.2260
     27  O         13.0510  161.4520  391.4030 O.2    51  VAL51      -0.2867
     28  CB        10.1910  160.1790  391.4430 C.3    51  VAL51       0.0252
     29  CG1        9.4820  161.2670  390.6310 C.3    51  VAL51       0.0019
     30  CG2        9.2540  158.9790  391.6800 C.3    51  VAL51       0.0019
     31  N          8.4890  164.2040  384.2190 N.3    64  VAL64      -0.1245
     32  CA         8.8300  163.4960  385.4370 C.3    64  VAL64       0.1561
     33  C          9.0740  162.0590  385.0150 C.2    64  VAL64       0.2260
     34  O          8.3000  161.4990  384.2370 O.2    64  VAL64      -0.2867
     35  CB         7.7220  163.6110  386.5100 C.3    64  VAL64       0.0252
     36  CG1        7.8990  162.5730  387.6100 C.3    64  VAL64       0.0019
     37  CG2        7.6820  165.0280  387.0880 C.3    64  VAL64       0.0019
     38  N          9.7410  158.1460  386.3970 N.3    66  LYS66      -0.1245
     39  CA         9.7000  157.2260  387.5170 C.3    66  LYS66       0.1561
     40  C         10.4140  155.9510  387.0840 C.2    66  LYS66       0.2260
     41  O          9.9010  155.2040  386.2320 O.2    66  LYS66      -0.2867
     42  CB         8.2640  156.9170  387.9840 C.3    66  LYS66       0.0271
     43  CG         8.2810  155.8820  389.1180 C.3    66  LYS66       0.0035
     44  CD         6.9250  155.6810  389.7490 C.3    66  LYS66       0.0206
     45  CE         5.9000  154.9060  388.9310 C.3    66  LYS66       0.1093
     46  NZ         4.6610  154.5750  389.7480 N.3    66  LYS66      -0.1314
     47  N          4.8010  170.2790  392.1770 N.3   116  ASN116     -0.1240
     48  CA         4.1240  169.9740  393.4380 C.3   116  ASN116      0.1653
     49  C          4.2810  171.0420  394.5040 C.2   116  ASN116      0.2266
     50  O          5.4100  171.3630  394.8730 O.2   116  ASN116     -0.2867
     51  CB         4.6380  168.6500  393.9980 C.3   116  ASN116      0.1155
     52  CG         3.7140  168.0210  395.0090 C.2   116  ASN116      0.2627
     53  OD1        4.1220  167.5730  396.0840 O.2   116  ASN116     -0.2716
     54  ND2        2.4490  167.9450  394.6650 N.am  116  ASN116     -0.0877
     55  N         -4.9730  153.2410  396.3980 N.3   149  ASP149     -0.1239
     56  CA        -3.8590  153.8630  397.1330 C.3   149  ASP149      0.1674
     57  C         -4.0920  155.3800  397.2760 C.2   149  ASP149      0.2266
     58  O         -3.1780  156.1930  397.1250 O.2   149  ASP149     -0.2867
     59  CB        -2.4970  153.4870  396.5290 C.3   149  ASP149      0.1410
     60  CG        -1.3040  153.7140  397.4650 C.2   149  ASP149      0.3668
     61  OD1       -1.5240  153.8520  398.6910 O.co2 149  ASP149     -0.2456
     62  OD2       -0.1620  153.7270  396.9740 O.co2 149  ASP149     -0.2456
     63  N         -4.2950  158.6760  398.9820 N.3   151  LYS151     -0.1245
     64  CA        -3.6290  159.2640  400.1690 C.3   151  LYS151      0.1561
     65  C         -3.0560  160.6160  399.7530 C.2   151  LYS151      0.2260
     66  O         -2.8380  160.8340  398.5460 O.2   151  LYS151     -0.2867
     67  CB        -2.4930  158.3590  400.7060 C.3   151  LYS151      0.0271
     68  CG        -1.3910  158.0300  399.7130 C.3   151  LYS151      0.0035
     69  CD        -0.3460  157.1550  400.3800 C.3   151  LYS151      0.0206
     70  CE         0.8550  156.9040  399.5070 C.3   151  LYS151      0.1093
     71  NZ         1.8270  155.9930  400.1850 N.3   151  LYS151     -0.1314
     72  N         -0.0500  161.9800  399.6280 N.3   153  HIS153     -0.1226
     73  CA         1.1610  161.9820  398.7900 C.3   153  HIS153      0.1752
     74  C          0.8490  161.5950  397.3460 C.2   153  HIS153      0.2596
     75  O          1.6380  161.9150  396.4690 O.2   153  HIS153     -0.2718
     76  CB         2.2490  161.0570  399.3660 C.3   153  HIS153      0.0759
     77  CG         3.6650  161.4550  399.0290 C.ar  153  HIS153      0.0818
     78  ND1        3.9790  162.7240  398.5410 N.ar  153  HIS153     -0.2268
     79  CD2        4.8150  160.7550  399.1880 C.ar  153  HIS153      0.1154
     80  CE1        5.2980  162.7370  398.3940 C.ar  153  HIS153      0.1986
     81  NE2        5.8440  161.5750  398.7610 N.ar  153  HIS153     -0.2212
     82  N         -0.3020  160.9510  397.1050 N.am  154  ASN154     -0.1974
     83  CA        -0.7040  160.5570  395.7380 C.3   154  ASN154      0.1688
     84  C         -1.6180  161.5680  395.0700 C.2   154  ASN154      0.2292
     85  O         -2.1470  161.2990  393.9780 O.2   154  ASN154     -0.2864
     86  CB        -1.3000  159.1520  395.7140 C.3   154  ASN154      0.1181
     87  CG        -0.2190  158.0880  395.8670 C.2   154  ASN154      0.2629
     88  OD1        0.9760  158.3700  395.7090 O.2   154  ASN154     -0.2716
     89  ND2       -0.5970  156.8620  396.2390 N.am  154  ASN154     -0.0877
     90  N         -1.2000  165.2600  393.7110 N.3   156  MET156     -0.1245
     91  CA        -0.2760  166.3530  393.4130 C.3   156  MET156      0.1570
     92  C         -1.0860  167.5940  393.1280 C.2   156  MET156      0.2261
     93  O         -2.0380  167.5400  392.3490 O.2   156  MET156     -0.2867
     94  CB         0.5970  166.0350  392.1970 C.3   156  MET156      0.0387
     95  CG         1.6310  164.9940  392.4650 C.3   156  MET156      0.0595
     96  SD         2.7730  164.8720  391.0830 S.3   156  MET156     -0.1393
     97  CE         3.8150  166.2870  391.3910 C.3   156  MET156      0.0692
     98  N         -1.9730  160.5870  391.1720 N.3   167  ILE167     -0.1231
     99  CA        -0.7950  159.8250  390.6960 C.3   167  ILE167      0.1692
    100  C         -0.6880  158.4300  391.3630 C.2   167  ILE167      0.2592
    101  O         -1.5060  158.0570  392.2180 O.2   167  ILE167     -0.2718
    102  CB         0.5120  160.6550  390.9340 C.3   167  ILE167      0.0266
    103  CG1        0.7350  160.8650  392.4420 C.3   167  ILE167      0.0019
    104  CG2        0.4750  162.0150  390.1920 C.3   167  ILE167      0.0020
    105  CD1        2.2140  161.2100  392.8120 C.3   167  ILE167      0.0001
    106  N          0.3770  157.7040  390.9840 N.am  168  ASP168     -0.1974
    107  CA         0.7820  156.3890  391.4780 C.3   168  ASP168      0.1709
    108  C         -0.3320  155.3750  391.3810 C.2   168  ASP168      0.2293
    109  O         -0.9640  154.9980  392.3740 O.2   168  ASP168     -0.2864
    110  CB         1.4170  156.4110  392.8850 C.3   168  ASP168      0.1436
    111  CG         2.2660  155.1620  393.1340 C.2   168  ASP168      0.3671
    112  OD1        2.1750  154.2050  392.3300 O.co2 168  ASP168     -0.2456
    113  OD2        3.0450  155.1560  394.1110 O.co2 168  ASP168     -0.2456
@<TRIPOS>BOND
     1    31    32    1
     2    34    33    2
     3    33    32    1
     4    32    35    1
     5    41    40    2
     6    38    39    1
     7    35    37    1
     8    35    36    1
     9    40    39    1
    10    39    42    1
    11    42    43    1
    12    45    46    1
    13    45    44    1
    14    43    44    1
    15   104   102    1
    16     7     6    1
    17    26    25    1
    18    26    27    2
    19    29    28    1
    20    99   102    1
    21    99    98    1
    22    99   100    1
    23    25    28    1
    24    25    24    1
    25   102   103    1
    26   106   100   am
    27   106   107    1
    28    96    97    1
    29    96    95    1
    30     6     8    1
    31     6     5    1
    32   100   101    2
    33   108   107    1
    34   108   109    2
    35    28    30    1
    36   107   110    1
    37    47    48    1
    38    94    95    1
    39    94    91    1
    40   112   111   ar
    41    93    92    2
    42   103   105    1
    43     5     2    1
    44     1     2    1
    45   110   111    1
    46    92    91    1
    47   111   113   ar
    48     2     3    1
    49    91    90    1
    50    48    51    1
    51    48    49    1
    52    85    84    2
    53    51    52    1
    54    12    11    2
    55    49    50    2
    56     9     3   am
    57     9    10    1
    58     3     4    2
    59    54    52   am
    60    52    53    2
    61    84    83    1
    62    11    10    1
    63    11    13   am
    64    88    87    2
    65    86    83    1
    66    86    87    1
    67    83    82    1
    68    87    89   am
    69    14    17    1
    70    14    13    1
    71    14    15    1
    72    17    18    1
    73    55    56    1
    74    75    74    2
    75    59    56    1
    76    59    60    1
    77    15    16    2
    78    62    60   ar
    79    82    74   am
    80    58    57    2
    81    56    57    1
    82    74    73    1
    83    60    61   ar
    84    18    19    1
    85    19    20    1
    86    20    21    2
    87    21    23    1
    88    21    22    1
    89    80    78   ar
    90    80    81   ar
    91    78    77   ar
    92    66    65    2
    93    81    79   ar
    94    73    76    1
    95    73    72    1
    96    63    64    1
    97    77    79   ar
    98    77    76    1
    99    70    71    1
   100    70    69    1
   101    68    69    1
   102    68    67    1
   103    65    64    1
   104    64    67    1
