@<TRIPOS>MOLECULE
tmp/5clpA00.pdb
 127 118 0 0 0
SMALL
GASTEIGER

@<TRIPOS>ATOM
      1  N         13.8110  163.7990  392.6240 N.3    43  LEU43      -0.1245
      2  CA        12.6870  164.3800  393.3570 C.3    43  LEU43       0.1561
      3  C         12.3670  163.5810  394.6230 C.2    43  LEU43       0.2260
      4  O         11.9260  164.1490  395.6280 O.2    43  LEU43      -0.2867
      5  CB        11.4470  164.4880  392.4660 C.3    43  LEU43       0.0270
      6  CG        11.5480  165.3960  391.2380 C.3    43  LEU43       0.0019
      7  CD1       10.2640  165.3340  390.4180 C.3    43  LEU43       0.0001
      8  CD2       11.8860  166.8450  391.6310 C.3    43  LEU43       0.0001
      9  N         11.2570  152.2760  393.4950 N.3    49  SER49      -0.1217
     10  CA        11.2070  153.3490  392.5070 C.3    49  SER49       0.1889
     11  C         12.0490  154.5480  392.8830 C.2    49  SER49       0.2288
     12  O         12.3310  154.7780  394.0650 O.2    49  SER49      -0.2866
     13  CB         9.7650  153.7740  392.2290 C.3    49  SER49       0.2089
     14  OG         9.2010  154.3390  393.3990 O.3    49  SER49      -0.2183
     15  N         12.2130  158.7450  391.5640 N.3    51  VAL51      -0.1245
     16  CA        11.5040  159.7380  390.7590 C.3    51  VAL51       0.1561
     17  C         12.4380  160.9170  390.4750 C.2    51  VAL51       0.2260
     18  O         13.0510  161.4520  391.4030 O.2    51  VAL51      -0.2867
     19  CB        10.1910  160.1790  391.4430 C.3    51  VAL51       0.0252
     20  CG1        9.4820  161.2670  390.6310 C.3    51  VAL51       0.0019
     21  CG2        9.2540  158.9790  391.6800 C.3    51  VAL51       0.0019
     22  N          8.4890  164.2040  384.2190 N.3    64  VAL64      -0.1245
     23  CA         8.8300  163.4960  385.4370 C.3    64  VAL64       0.1561
     24  C          9.0740  162.0590  385.0150 C.2    64  VAL64       0.2260
     25  O          8.3000  161.4990  384.2370 O.2    64  VAL64      -0.2867
     26  CB         7.7220  163.6110  386.5100 C.3    64  VAL64       0.0252
     27  CG1        7.8990  162.5730  387.6100 C.3    64  VAL64       0.0019
     28  CG2        7.6820  165.0280  387.0880 C.3    64  VAL64       0.0019
     29  N          9.7410  158.1460  386.3970 N.3    66  LYS66      -0.1245
     30  CA         9.7000  157.2260  387.5170 C.3    66  LYS66       0.1561
     31  C         10.4140  155.9510  387.0840 C.2    66  LYS66       0.2260
     32  O          9.9010  155.2040  386.2320 O.2    66  LYS66      -0.2867
     33  CB         8.2640  156.9170  387.9840 C.3    66  LYS66       0.0271
     34  CG         8.2810  155.8820  389.1180 C.3    66  LYS66       0.0035
     35  CD         6.9250  155.6810  389.7490 C.3    66  LYS66       0.0206
     36  CE         5.9000  154.9060  388.9310 C.3    66  LYS66       0.1093
     37  NZ         4.6610  154.5750  389.7480 N.3    66  LYS66      -0.1314
     38  N          0.0930  148.5510  385.7990 N.3    79  GLU79      -0.1245
     39  CA         0.1490  150.0110  385.9530 C.3    79  GLU79       0.1567
     40  C          0.1460  150.6940  384.5860 C.2    79  GLU79       0.2260
     41  O         -0.5760  151.6660  384.3950 O.2    79  GLU79      -0.2867
     42  CB         1.3950  150.4170  386.7460 C.3    79  GLU79       0.0388
     43  CG         1.4590  151.9100  387.0200 C.3    79  GLU79       0.1160
     44  CD         2.6010  152.3800  387.8990 C.2    79  GLU79       0.3649
     45  OE1        3.3380  151.5360  388.4640 O.co2  79  GLU79      -0.2457
     46  OE2        2.7310  153.6150  388.0470 O.co2  79  GLU79      -0.2457
     47  N         -3.0610  161.7010  386.1320 N.3    93  ILE93      -0.1245
     48  CA        -1.7190  161.9870  385.6080 C.3    93  ILE93       0.1561
     49  C         -1.5810  161.3810  384.1900 C.2    93  ILE93       0.2260
     50  O         -2.0670  160.2810  383.9260 O.2    93  ILE93      -0.2867
     51  CB        -0.6070  161.4620  386.5780 C.3    93  ILE93       0.0252
     52  CG1        0.7840  162.0820  386.2590 C.3    93  ILE93       0.0019
     53  CG2       -0.5500  159.9310  386.6330 C.3    93  ILE93       0.0019
     54  CD1        0.9190  163.5840  386.6570 C.3    93  ILE93       0.0001
     55  N          6.0710  160.8640  382.7760 N.3   111  PHE111     -0.1227
     56  CA         4.8110  161.5720  383.0020 C.3   111  PHE111      0.1736
     57  C          4.9350  163.0330  382.6270 C.2   111  PHE111      0.2595
     58  O          6.0500  163.5990  382.6430 O.2   111  PHE111     -0.2718
     59  CB         4.4330  161.5190  384.5010 C.3   111  PHE111      0.0547
     60  CG         4.1870  160.1240  385.0120 C.ar  111  PHE111     -0.0202
     61  CD1        2.9590  159.4870  384.7860 C.ar  111  PHE111     -0.0042
     62  CD2        5.1790  159.4400  385.7070 C.ar  111  PHE111     -0.0042
     63  CE1        2.7280  158.1860  385.2500 C.ar  111  PHE111     -0.0003
     64  CE2        4.9530  158.1430  386.1700 C.ar  111  PHE111     -0.0003
     65  CZ         3.7260  157.5130  385.9310 C.ar  111  PHE111     -0.0000
     66  N          3.7570  163.6770  382.4300 N.am  112  GLU112     -0.1979
     67  CA         3.6520  165.1290  382.2710 C.3   112  GLU112      0.1602
     68  C          4.3080  165.7390  383.5150 C.2   112  GLU112      0.2287
     69  O          4.2700  165.1570  384.6120 O.2   112  GLU112     -0.2864
     70  CB         2.1740  165.5900  382.2150 C.3   112  GLU112      0.0415
     71  CG         1.3680  165.2300  383.4640 C.3   112  GLU112      0.1163
     72  CD        -0.0380  165.7850  383.5450 C.2   112  GLU112      0.3649
     73  OE1       -0.1910  167.0240  383.6050 O.co2 112  GLU112     -0.2457
     74  OE2       -0.9840  164.9740  383.6350 O.co2 112  GLU112     -0.2457
     75  N          4.6620  168.0600  386.7060 N.3   114  VAL114     -0.1245
     76  CA         3.7820  168.7040  387.6780 C.3   114  VAL114      0.1561
     77  C          4.6750  169.3270  388.7430 C.2   114  VAL114      0.2260
     78  O          5.5770  168.6600  389.2600 O.2   114  VAL114     -0.2867
     79  CB         2.6770  167.7830  388.3010 C.3   114  VAL114      0.0252
     80  CG1        1.7320  168.5850  389.1910 C.3   114  VAL114      0.0019
     81  CG2        1.8750  167.0460  387.2380 C.3   114  VAL114      0.0019
     82  N         -0.3020  160.9510  397.1050 N.3   154  ASN154     -0.1240
     83  CA        -0.7040  160.5570  395.7380 C.3   154  ASN154      0.1653
     84  C         -1.6180  161.5680  395.0700 C.2   154  ASN154      0.2266
     85  O         -2.1470  161.2990  393.9780 O.2   154  ASN154     -0.2867
     86  CB        -1.3000  159.1520  395.7140 C.3   154  ASN154      0.1155
     87  CG        -0.2190  158.0880  395.8670 C.2   154  ASN154      0.2627
     88  OD1        0.9760  158.3700  395.7090 O.2   154  ASN154     -0.2716
     89  ND2       -0.5970  156.8620  396.2390 N.am  154  ASN154     -0.0877
     90  N         -1.2000  165.2600  393.7110 N.3   156  MET156     -0.1245
     91  CA        -0.2760  166.3530  393.4130 C.3   156  MET156      0.1570
     92  C         -1.0860  167.5940  393.1280 C.2   156  MET156      0.2261
     93  O         -2.0380  167.5400  392.3490 O.2   156  MET156     -0.2867
     94  CB         0.5970  166.0350  392.1970 C.3   156  MET156      0.0387
     95  CG         1.6310  164.9940  392.4650 C.3   156  MET156      0.0595
     96  SD         2.7730  164.8720  391.0830 S.3   156  MET156     -0.1393
     97  CE         3.8150  166.2870  391.3910 C.3   156  MET156      0.0692
     98  N         -1.9730  160.5870  391.1720 N.3   167  ILE167     -0.1231
     99  CA        -0.7950  159.8250  390.6960 C.3   167  ILE167      0.1692
    100  C         -0.6880  158.4300  391.3630 C.2   167  ILE167      0.2592
    101  O         -1.5060  158.0570  392.2180 O.2   167  ILE167     -0.2718
    102  CB         0.5120  160.6550  390.9340 C.3   167  ILE167      0.0266
    103  CG1        0.7350  160.8650  392.4420 C.3   167  ILE167      0.0019
    104  CG2        0.4750  162.0150  390.1920 C.3   167  ILE167      0.0020
    105  CD1        2.2140  161.2100  392.8120 C.3   167  ILE167      0.0001
    106  N          0.3770  157.7040  390.9840 N.am  168  ASP168     -0.1960
    107  CA         0.7820  156.3890  391.4780 C.3   168  ASP168      0.1840
    108  C         -0.3320  155.3750  391.3810 C.2   168  ASP168      0.2622
    109  O         -0.9640  154.9980  392.3740 O.2   168  ASP168     -0.2715
    110  CB         1.4170  156.4110  392.8850 C.3   168  ASP168      0.1450
    111  CG         2.2660  155.1620  393.1340 C.2   168  ASP168      0.3671
    112  OD1        2.1750  154.2050  392.3300 O.co2 168  ASP168     -0.2456
    113  OD2        3.0450  155.1560  394.1110 O.co2 168  ASP168     -0.2456
    114  N         -0.4980  154.8830  390.1660 N.am  169  TRP169     -0.1974
    115  CA        -1.5130  153.8900  389.8240 C.3   169  TRP169      0.1640
    116  C         -0.9310  152.4560  389.9410 C.2   169  TRP169      0.2290
    117  O         -1.5100  151.5070  389.3980 O.2   169  TRP169     -0.2864
    118  CB        -2.0350  154.2070  388.4010 C.3   169  TRP169      0.0576
    119  CG        -2.7560  155.5280  388.3620 C.ar  169  TRP169      0.0006
    120  CD1       -2.1980  156.7820  388.3100 C.ar  169  TRP169      0.0946
    121  CD2       -4.1460  155.7140  388.6160 C.ar  169  TRP169      0.0152
    122  NE1       -3.1850  157.7440  388.4410 N.ar  169  TRP169     -0.2442
    123  CE2       -4.3900  157.1110  388.6390 C.ar  169  TRP169      0.0810
    124  CE3       -5.2380  154.8250  388.7880 C.ar  169  TRP169      0.0012
    125  CZ2       -5.6770  157.6380  388.8090 C.ar  169  TRP169      0.0191
    126  CZ3       -6.5110  155.3500  388.9540 C.ar  169  TRP169      0.0001
    127  CH2       -6.7230  156.7360  388.9930 C.ar  169  TRP169      0.0015
@<TRIPOS>BOND
     1    70    67    1
     2    70    71    1
     3    67    66    1
     4    67    68    1
     5    66    57   am
     6    57    58    2
     7    57    56    1
     8    55    56    1
     9    56    59    1
    10    71    72    1
    11    68    69    2
    12    72    73   ar
    13    72    74   ar
    14    50    49    2
    15    49    48    1
    16    22    23    1
    17    25    24    2
    18    41    40    2
    19    59    60    1
    20    40    39    1
    21    61    60   ar
    22    61    63   ar
    23    60    62   ar
    24    24    23    1
    25    63    65   ar
    26    23    26    1
    27    48    47    1
    28    48    51    1
    29    62    64   ar
    30    38    39    1
    31    65    64   ar
    32    39    42    1
    33    32    31    2
    34    52    51    1
    35    52    54    1
    36    29    30    1
    37    26    28    1
    38    26    27    1
    39    51    53    1
    40    75    76    1
    41    42    43    1
    42    43    44    1
    43    31    30    1
    44    81    79    1
    45    30    33    1
    46    76    79    1
    47    76    77    1
    48    44    46   ar
    49    44    45   ar
    50    33    34    1
    51    79    80    1
    52   120   119   ar
    53   120   122   ar
    54   119   118    1
    55   119   121   ar
    56   118   115    1
    57   122   123   ar
    58   121   123   ar
    59   121   124   ar
    60   123   125   ar
    61    77    78    2
    62   124   126   ar
    63   125   127   ar
    64    36    37    1
    65    36    35    1
    66   126   127   ar
    67    34    35    1
    68   117   116    2
    69   115   116    1
    70   115   114    1
    71   114   108   am
    72   104   102    1
    73     7     6    1
    74    17    16    1
    75    17    18    2
    76    20    19    1
    77    99   102    1
    78    99    98    1
    79    99   100    1
    80    16    19    1
    81    16    15    1
    82   102   103    1
    83   106   100   am
    84   106   107    1
    85    96    97    1
    86    96    95    1
    87     6     8    1
    88     6     5    1
    89   100   101    2
    90   108   107    1
    91   108   109    2
    92    19    21    1
    93   107   110    1
    94    94    95    1
    95    94    91    1
    96    13    10    1
    97    13    14    1
    98   112   111   ar
    99    93    92    2
   100   103   105    1
   101     5     2    1
   102    10    11    1
   103    10     9    1
   104     1     2    1
   105    11    12    2
   106   110   111    1
   107    92    91    1
   108   111   113   ar
   109     2     3    1
   110    91    90    1
   111    85    84    2
   112     3     4    2
   113    84    83    1
   114    88    87    2
   115    86    83    1
   116    86    87    1
   117    83    82    1
   118    87    89   am
