@<TRIPOS>MOLECULE
tmp/5clpA03.pdb
 107 100 0 0 0
SMALL
GASTEIGER

@<TRIPOS>ATOM
      1  N          4.8010  170.2790  392.1770 N.3   116  ASN116     -0.1225
      2  CA         4.1240  169.9740  393.4380 C.3   116  ASN116      0.1785
      3  C          4.2810  171.0420  394.5040 C.2   116  ASN116      0.2597
      4  O          5.4100  171.3630  394.8730 O.2   116  ASN116     -0.2718
      5  CB         4.6380  168.6500  393.9980 C.3   116  ASN116      0.1169
      6  CG         3.7140  168.0210  395.0090 C.2   116  ASN116      0.2627
      7  OD1        4.1220  167.5730  396.0840 O.2   116  ASN116     -0.2716
      8  ND2        2.4490  167.9450  394.6650 N.am  116  ASN116     -0.0877
      9  N          3.1490  171.5550  395.0340 N.am  117  THR117     -0.1953
     10  CA         3.1410  172.5140  396.1380 C.3   117  THR117      0.1897
     11  C          3.2720  171.6850  397.4240 C.2   117  THR117      0.2313
     12  O          2.4540  170.7890  397.6670 O.2   117  THR117     -0.2863
     13  CB         1.8550  173.3800  396.1430 C.3   117  THR117      0.1794
     14  OG1        1.7060  174.0650  394.8930 O.3   117  THR117     -0.2208
     15  CG2        1.8150  174.3880  397.3080 C.3   117  THR117      0.0378
     16  N         -4.3980  176.9980  403.8330 N.3   121  LEU121     -0.1245
     17  CA        -5.6110  176.4220  403.2500 C.3   121  LEU121      0.1561
     18  C         -6.8630  177.0080  403.8640 C.2   121  LEU121      0.2260
     19  O         -6.9640  177.0800  405.0890 O.2   121  LEU121     -0.2867
     20  CB        -5.6460  174.8910  403.4320 C.3   121  LEU121      0.0270
     21  CG        -4.7730  174.0500  402.5140 C.3   121  LEU121      0.0019
     22  CD1       -4.7280  172.6030  402.9950 C.3   121  LEU121      0.0001
     23  CD2       -5.2320  174.1410  401.0670 C.3   121  LEU121      0.0001
     24  N        -10.2390  173.5650  400.4740 N.3   126  ILE126     -0.1245
     25  CA       -10.4700  172.1430  400.7270 C.3   126  ILE126      0.1561
     26  C        -11.6390  171.6480  399.8840 C.2   126  ILE126      0.2260
     27  O        -11.4960  170.6230  399.2340 O.2   126  ILE126     -0.2867
     28  CB       -10.5880  171.8250  402.2390 C.3   126  ILE126      0.0252
     29  CG1       -9.2790  172.2630  402.9660 C.3   126  ILE126      0.0019
     30  CG2      -10.8920  170.3270  402.4940 C.3   126  ILE126      0.0019
     31  CD1       -9.3260  172.1810  404.4790 C.3   126  ILE126      0.0001
     32  N        -10.4100  171.4510  396.0630 N.3   129  TYR129     -0.1227
     33  CA        -9.5080  170.3330  395.7570 C.3   129  TYR129      0.1736
     34  C        -10.1610  168.9680  395.9680 C.2   129  TYR129      0.2595
     35  O         -9.9400  168.0640  395.1500 O.2   129  TYR129     -0.2718
     36  CB        -8.1800  170.4620  396.4840 C.3   129  TYR129      0.0548
     37  CG        -7.3270  171.5650  395.8910 C.ar  129  TYR129     -0.0200
     38  CD1       -7.0070  171.5760  394.5340 C.ar  129  TYR129     -0.0009
     39  CD2       -6.8210  172.5840  396.6850 C.ar  129  TYR129     -0.0009
     40  CE1       -6.2310  172.5940  393.9810 C.ar  129  TYR129      0.0417
     41  CE2       -6.0310  173.6010  396.1430 C.ar  129  TYR129      0.0417
     42  CZ        -5.7410  173.6010  394.7930 C.ar  129  TYR129      0.1957
     43  OH        -4.9590  174.5980  394.2610 O.3   129  TYR129     -0.2866
     44  N        -11.0080  168.8310  397.0080 N.am  130  MET130     -0.1979
     45  CA       -11.7590  167.5990  397.2240 C.3   130  MET130      0.1605
     46  C        -12.6390  167.3070  395.9900 C.2   130  MET130      0.2287
     47  O        -12.7280  166.1510  395.5470 O.2   130  MET130     -0.2864
     48  CB       -12.6350  167.7150  398.4870 C.3   130  MET130      0.0413
     49  CG       -11.8550  167.5490  399.7790 C.3   130  MET130      0.0598
     50  SD       -11.2140  165.8580  399.9880 S.3   130  MET130     -0.1393
     51  CE       -12.7050  165.0090  400.1600 C.3   130  MET130      0.0692
     52  N        -10.4890  165.8890  393.2000 N.3   133  ILE133     -0.1245
     53  CA       -10.1520  164.4660  393.4130 C.3   133  ILE133      0.1561
     54  C        -11.3590  163.6060  393.0380 C.2   133  ILE133      0.2260
     55  O        -11.1970  162.5480  392.4240 O.2   133  ILE133     -0.2867
     56  CB        -9.7160  164.2070  394.8690 C.3   133  ILE133      0.0252
     57  CG1       -8.4830  165.0590  395.2170 C.3   133  ILE133      0.0019
     58  CG2       -9.4380  162.6820  395.1050 C.3   133  ILE133      0.0019
     59  CD1       -8.1800  165.0410  396.7240 C.3   133  ILE133      0.0001
     60  N         -2.7450  161.5150  400.7240 N.3   152  PRO152     -0.2102
     61  CA        -2.2490  162.8540  400.3550 C.3   152  PRO152      0.1504
     62  C         -1.0340  162.8730  399.4230 C.2   152  PRO152      0.2575
     63  O         -1.0100  163.6810  398.4990 O.2   152  PRO152     -0.2718
     64  CB        -1.9590  163.5190  401.7120 C.3   152  PRO152      0.0282
     65  CG        -2.9360  162.8590  402.6420 C.3   152  PRO152      0.0208
     66  CD        -2.9590  161.4100  402.1930 C.3   152  PRO152      0.0893
     67  N         -0.0500  161.9800  399.6280 N.am  153  HIS153     -0.1976
     68  CA         1.1610  161.9820  398.7900 C.3   153  HIS153      0.1656
     69  C          0.8490  161.5950  397.3460 C.2   153  HIS153      0.2291
     70  O          1.6380  161.9150  396.4690 O.2   153  HIS153     -0.2864
     71  CB         2.2490  161.0570  399.3660 C.3   153  HIS153      0.0771
     72  CG         3.6650  161.4550  399.0290 C.ar  153  HIS153      0.0820
     73  ND1        3.9790  162.7240  398.5410 N.ar  153  HIS153     -0.2267
     74  CD2        4.8150  160.7550  399.1880 C.ar  153  HIS153      0.1154
     75  CE1        5.2980  162.7370  398.3940 C.ar  153  HIS153      0.1986
     76  NE2        5.8440  161.5750  398.7610 N.ar  153  HIS153     -0.2212
     77  N         -1.7690  162.7290  395.6900 N.3   155  VAL155     -0.1245
     78  CA        -2.5490  163.8520  395.1470 C.3   155  VAL155      0.1561
     79  C         -1.5510  164.9740  394.9580 C.2   155  VAL155      0.2260
     80  O         -1.0720  165.5510  395.9500 O.2   155  VAL155     -0.2867
     81  CB        -3.7270  164.2850  396.0430 C.3   155  VAL155      0.0252
     82  CG1       -4.4570  165.4920  395.4270 C.3   155  VAL155      0.0019
     83  CG2       -4.7000  163.1280  396.2750 C.3   155  VAL155      0.0019
     84  N         -0.7200  168.7110  393.7630 N.3   157  ILE157     -0.1245
     85  CA        -1.3940  169.9970  393.5430 C.3   157  ILE157      0.1561
     86  C         -0.3570  171.0650  393.1690 C.2   157  ILE157      0.2260
     87  O          0.6020  171.2410  393.9020 O.2   157  ILE157     -0.2867
     88  CB        -2.1750  170.4220  394.8120 C.3   157  ILE157      0.0252
     89  CG1       -3.3480  169.4460  395.1340 C.3   157  ILE157      0.0019
     90  CG2       -2.6810  171.8720  394.6750 C.3   157  ILE157      0.0019
     91  CD1       -4.1030  169.7720  396.4500 C.3   157  ILE157      0.0001
     92  N         -8.6720  161.2860  404.2340 N.3   214  MET214     -0.1245
     93  CA        -7.9600  162.5010  403.8180 C.3   214  MET214      0.1570
     94  C         -8.7370  163.7450  404.2270 C.2   214  MET214      0.2261
     95  O         -8.1420  164.6820  404.7750 O.2   214  MET214     -0.2867
     96  CB        -7.7540  162.4950  402.3080 C.3   214  MET214      0.0387
     97  CG        -6.6710  161.6050  401.9090 C.3   214  MET214      0.0595
     98  SD        -6.3220  161.7940  400.1390 S.3   214  MET214     -0.1393
     99  CE        -6.1660  163.4620  400.0030 C.3   214  MET214      0.0692
    100  N         -7.5620  166.7980  406.8390 N.3   218  MET218     -0.1245
    101  CA        -7.4960  168.1850  406.3580 C.3   218  MET218      0.1570
    102  C         -8.3520  169.1350  407.2150 C.2   218  MET218      0.2261
    103  O         -7.8510  170.1680  407.6800 O.2   218  MET218     -0.2867
    104  CB        -7.9280  168.3120  404.8810 C.3   218  MET218      0.0387
    105  CG        -7.0280  167.5650  403.9000 C.3   218  MET218      0.0595
    106  SD        -5.3550  168.2060  403.8150 S.3   218  MET218     -0.1393
    107  CE        -4.5170  166.7650  402.9930 C.3   218  MET218      0.0692
@<TRIPOS>BOND
     1     1     2    1
     2    55    54    2
     3    54    53    1
     4    86    85    1
     5    86    87    2
     6    52    53    1
     7    53    56    1
     8     2     5    1
     9     2     3    1
    10    85    84    1
    11    85    88    1
    12    40    38   ar
    13    40    42   ar
    14     5     6    1
    15    43    42    1
    16     3     4    2
    17     3     9   am
    18    38    37   ar
    19     8     6   am
    20    90    88    1
    21    42    41   ar
    22    88    89    1
    23    56    58    1
    24    56    57    1
    25    14    13    1
    26    79    78    1
    27    79    80    2
    28     6     7    2
    29     9    10    1
    30    89    91    1
    31    78    77    1
    32    78    81    1
    33    35    34    2
    34    57    59    1
    35    82    81    1
    36    47    46    2
    37    33    34    1
    38    33    32    1
    39    33    36    1
    40    37    36    1
    41    37    39   ar
    42    34    44   am
    43    46    45    1
    44    81    83    1
    45    10    13    1
    46    10    11    1
    47    41    39   ar
    48    13    15    1
    49    70    69    2
    50    44    45    1
    51    45    48    1
    52    69    68    1
    53    11    12    2
    54    75    73   ar
    55    75    76   ar
    56    48    49    1
    57    63    62    2
    58    73    72   ar
    59    76    74   ar
    60    68    71    1
    61    68    67    1
    62    72    74   ar
    63    72    71    1
    64    27    26    2
    65    62    67   am
    66    62    61    1
    67    49    50    1
    68    26    25    1
    69    50    51    1
    70    99    98    1
    71    98    97    1
    72    61    60    1
    73    61    64    1
    74    24    25    1
    75    60    66    1
    76    25    28    1
    77    23    21    1
    78    64    65    1
    79    97    96    1
    80    66    65    1
    81    28    30    1
    82    28    29    1
    83    96    93    1
    84    21    22    1
    85    21    20    1
    86    29    31    1
    87   107   106    1
    88    17    20    1
    89    17    16    1
    90    17    18    1
    91   106   105    1
    92    93    94    1
    93    93    92    1
    94    18    19    2
    95   105   104    1
    96    94    95    2
    97   104   101    1
    98   101   100    1
    99   101   102    1
   100   102   103    2
