@<TRIPOS>MOLECULE
tmp/5clpA02.pdb
 80 73 0 0 0
SMALL
GASTEIGER

@<TRIPOS>ATOM
      1  N         14.8080  156.0290  375.4010 N.3    34  GLN34      -0.1245
      2  CA        15.3570  156.6550  376.6390 C.3    34  GLN34       0.1566
      3  C         16.3480  157.7940  376.2640 C.2    34  GLN34       0.2260
      4  O         16.4870  158.7470  377.0420 O.2    34  GLN34      -0.2867
      5  CB        16.0510  155.5970  377.5330 C.3    34  GLN34       0.0367
      6  CG        16.2470  156.0770  378.9740 C.3    34  GLN34       0.0905
      7  CD        16.9100  155.0750  379.8920 C.2    34  GLN34       0.2608
      8  OE1       18.1480  155.0200  380.0260 O.2    34  GLN34      -0.2717
      9  NE2       16.0890  154.3050  380.5920 N.am   34  GLN34      -0.0878
     10  N         15.5620  161.6620  376.5510 N.3    37  TYR37      -0.1227
     11  CA        15.4810  162.3340  377.8460 C.3    37  TYR37       0.1736
     12  C         16.8180  162.5100  378.5420 C.2    37  TYR37       0.2595
     13  O         17.6990  161.6570  378.4140 O.2    37  TYR37      -0.2718
     14  CB        14.5300  161.5360  378.7820 C.3    37  TYR37       0.0548
     15  CG        13.1580  161.3250  378.1720 C.ar   37  TYR37      -0.0200
     16  CD1       12.1920  162.3240  378.2210 C.ar   37  TYR37      -0.0009
     17  CD2       12.8530  160.1530  377.4710 C.ar   37  TYR37      -0.0009
     18  CE1       10.9500  162.1610  377.6040 C.ar   37  TYR37       0.0417
     19  CE2       11.6230  159.9870  376.8350 C.ar   37  TYR37       0.0417
     20  CZ        10.6750  160.9950  376.9120 C.ar   37  TYR37       0.1957
     21  OH         9.4610  160.8580  376.3010 O.3    37  TYR37      -0.2866
     22  N         16.9440  163.5950  379.3280 N.am   38  GLN38      -0.1965
     23  CA        18.1150  163.8030  380.1740 C.3    38  GLN38       0.1733
     24  C         17.5970  164.0640  381.5770 C.2    38  GLN38       0.2616
     25  O         16.7320  164.9290  381.7480 O.2    38  GLN38      -0.2715
     26  CB        18.9810  164.9900  379.7100 C.3    38  GLN38       0.0408
     27  CG        19.8750  164.6720  378.5040 C.3    38  GLN38       0.0908
     28  CD        21.0640  163.7650  378.7700 C.2    38  GLN38       0.2608
     29  OE1       21.5190  163.5820  379.9050 O.2    38  GLN38      -0.2717
     30  NE2       21.6230  163.2080  377.7040 N.am   38  GLN38      -0.0878
     31  N         18.1000  163.3230  382.5750 N.am   39  LEU39      -0.1977
     32  CA        17.6920  163.5410  383.9680 C.3    39  LEU39       0.1596
     33  C         18.2620  164.8640  384.4730 C.2    39  LEU39       0.2287
     34  O         19.4140  165.1830  384.1580 O.2    39  LEU39      -0.2864
     35  CB        18.1450  162.3860  384.8770 C.3    39  LEU39       0.0297
     36  CG        17.6240  160.9920  384.5030 C.3    39  LEU39       0.0022
     37  CD1       18.0960  159.9410  385.5180 C.3    39  LEU39       0.0001
     38  CD2       16.0870  160.9690  384.3920 C.3    39  LEU39       0.0001
     39  N         10.1680  161.4680  385.4930 N.3    65  VAL65      -0.1245
     40  CA        10.5160  160.0860  385.1410 C.3    65  VAL65       0.1561
     41  C         10.5040  159.2500  386.4040 C.2    65  VAL65       0.2260
     42  O         11.1540  159.6130  387.3940 O.2    65  VAL65      -0.2867
     43  CB        11.9010  160.0100  384.4230 C.3    65  VAL65       0.0252
     44  CG1       12.3420  158.5590  384.2270 C.3    65  VAL65       0.0019
     45  CG2       11.8560  160.7240  383.0680 C.3    65  VAL65       0.0019
     46  N         11.6110  155.7180  387.6360 N.3    67  ILE67      -0.1245
     47  CA        12.4050  154.5150  387.3210 C.3    67  ILE67       0.1561
     48  C         11.9570  153.3990  388.2620 C.2    67  ILE67       0.2260
     49  O         12.0060  153.5770  389.4800 O.2    67  ILE67      -0.2867
     50  CB        13.9360  154.7340  387.4020 C.3    67  ILE67       0.0252
     51  CG1       14.4080  155.8810  386.5130 C.3    67  ILE67       0.0019
     52  CG2       14.6790  153.4390  387.0840 C.3    67  ILE67       0.0019
     53  CD1       15.8730  156.3600  386.8300 C.3    67  ILE67       0.0001
     54  N         10.0030  153.9540  378.7400 N.3    99  VAL99      -0.1245
     55  CA        11.3450  153.6770  378.1980 C.3    99  VAL99       0.1561
     56  C         12.0280  152.5960  378.9900 C.2    99  VAL99       0.2260
     57  O         11.6040  152.2880  380.0960 O.2    99  VAL99      -0.2867
     58  CB        12.2080  154.9690  378.1280 C.3    99  VAL99       0.0252
     59  CG1       11.5810  156.0370  377.2230 C.3    99  VAL99       0.0019
     60  CG2       12.4970  155.5210  379.5250 C.3    99  VAL99       0.0019
     61  N         16.1750  151.1370  380.0160 N.3   101  ASP101     -0.1239
     62  CA        17.6200  151.3690  379.9520 C.3   101  ASP101      0.1674
     63  C         18.2120  150.3210  378.9890 C.2   101  ASP101      0.2266
     64  O         17.9560  149.1410  379.1630 O.2   101  ASP101     -0.2867
     65  CB        18.2690  151.2630  381.3410 C.3   101  ASP101      0.1410
     66  CG        19.7160  151.7210  381.2880 C.2   101  ASP101      0.3668
     67  OD1       20.5610  150.9470  380.8140 O.co2 101  ASP101     -0.2456
     68  OD2       19.9740  152.9020  381.5910 O.co2 101  ASP101     -0.2456
     69  N         11.2220  152.6020  382.8420 N.3   108  ALA108     -0.1245
     70  CA        10.8910  153.8980  383.4070 C.3   108  ALA108      0.1562
     71  C          9.6430  154.4770  382.7470 C.2   108  ALA108      0.2260
     72  O          9.4730  154.4000  381.5270 O.2   108  ALA108     -0.2867
     73  CB        12.0700  154.8630  383.2950 C.3   108  ALA108      0.0290
     74  N          7.3580  157.8060  381.9820 N.3   110  VAL110     -0.1245
     75  CA         7.5690  159.2290  381.7910 C.3   110  VAL110      0.1561
     76  C          6.2090  159.9160  381.8480 C.2   110  VAL110      0.2260
     77  O          5.3090  159.5640  381.0830 O.2   110  VAL110     -0.2867
     78  CB         8.3050  159.5210  380.4580 C.3   110  VAL110      0.0252
     79  CG1        8.5690  161.0160  380.3240 C.3   110  VAL110      0.0019
     80  CG2        9.6180  158.7370  380.3640 C.3   110  VAL110      0.0019
@<TRIPOS>BOND
     1     1     2    1
     2     3     2    1
     3     3     4    2
     4    21    20    1
     5    10    11    1
     6     2     5    1
     7    19    20   ar
     8    19    17   ar
     9    20    18   ar
    10    59    58    1
    11    17    15   ar
    12     5     6    1
    13    18    16   ar
    14    30    28   am
    15    11    12    1
    16    11    14    1
    17    58    55    1
    18    58    60    1
    19    15    16   ar
    20    15    14    1
    21    55    54    1
    22    55    56    1
    23    13    12    2
    24    27    28    1
    25    27    26    1
    26    12    22   am
    27    28    29    2
    28     6     7    1
    29    63    64    2
    30    63    62    1
    31    56    57    2
    32    22    23    1
    33    26    23    1
    34     7     8    2
    35     7     9   am
    36    62    61    1
    37    62    65    1
    38    23    24    1
    39    79    78    1
    40    80    78    1
    41    78    75    1
    42    67    66   ar
    43    77    76    2
    44    66    65    1
    45    66    68   ar
    46    72    71    2
    47    24    25    2
    48    24    31   am
    49    75    76    1
    50    75    74    1
    51    31    32    1
    52    71    70    1
    53    69    70    1
    54    45    43    1
    55    73    70    1
    56    32    33    1
    57    32    35    1
    58    34    33    2
    59    44    43    1
    60    38    36    1
    61    43    40    1
    62    36    35    1
    63    36    37    1
    64    40    39    1
    65    40    41    1
    66    41    42    2
    67    51    53    1
    68    51    50    1
    69    52    50    1
    70    47    50    1
    71    47    46    1
    72    47    48    1
    73    48    49    2
