@<TRIPOS>MOLECULE
tmp/5cltA00.pdb
 112 111 0 0 0
SMALL
GASTEIGER

@<TRIPOS>ATOM
      1  N         60.7640    5.5150  -10.3210 N.3    19  ASN19      -0.1225
      2  CA        61.1650    5.4360   -8.9130 C.3    19  ASN19       0.1785
      3  C         60.0860    5.2290   -7.8720 C.2    19  ASN19       0.2597
      4  O         60.3920    4.7760   -6.7620 O.2    19  ASN19      -0.2718
      5  CB        61.9250    6.6930   -8.5430 C.3    19  ASN19       0.1169
      6  CG        63.2760    6.7380   -9.1900 C.2    19  ASN19       0.2627
      7  OD1       63.8060    5.7070   -9.6050 O.2    19  ASN19      -0.2716
      8  ND2       63.8210    7.9360   -9.3320 N.am   19  ASN19      -0.0877
      9  N         58.8550    5.6330   -8.1900 N.am   20  GLU20      -0.1979
     10  CA        57.7250    5.5070   -7.2720 C.3    20  GLU20       0.1602
     11  C         56.5440    4.7300   -7.8910 C.2    20  GLU20       0.2287
     12  O         55.4910    4.5970   -7.2950 O.2    20  GLU20      -0.2864
     13  CB        57.2570    6.8970   -6.8100 C.3    20  GLU20       0.0415
     14  CG        58.3320    7.7810   -6.1280 C.3    20  GLU20       0.1163
     15  CD        58.5770    7.4020   -4.6660 C.2    20  GLU20       0.3649
     16  OE1       57.7570    6.6450   -4.0680 O.co2  20  GLU20      -0.2457
     17  OE2       59.6130    7.8270   -4.1180 O.co2  20  GLU20      -0.2457
     18  N         59.2420   11.5910    7.8760 N.3    48  TRP48      -0.1241
     19  CA        60.4100   12.0610    7.1820 C.3    48  TRP48       0.1605
     20  C         61.0100   13.1290    8.0460 C.2    48  TRP48       0.2264
     21  O         60.3720   14.1290    8.3160 O.2    48  TRP48      -0.2867
     22  CB        60.0490   12.6040    5.8320 C.3    48  TRP48       0.0550
     23  CG        61.2130   13.0350    5.0560 C.ar   48  TRP48       0.0003
     24  CD1       62.2810   12.2690    4.7060 C.ar   48  TRP48       0.0946
     25  CD2       61.4340   14.3270    4.4710 C.ar   48  TRP48       0.0152
     26  NE1       63.1650   13.0080    3.9570 N.ar   48  TRP48      -0.2442
     27  CE2       62.6680   14.2740    3.7970 C.ar   48  TRP48       0.0810
     28  CE3       60.7130   15.5180    4.4530 C.ar   48  TRP48       0.0012
     29  CZ2       63.1930   15.3650    3.1080 C.ar   48  TRP48       0.0191
     30  CZ3       61.2460   16.6040    3.7750 C.ar   48  TRP48       0.0001
     31  CH2       62.4660   16.5170    3.1120 C.ar   48  TRP48       0.0015
     32  N         64.8990   14.2510    8.2120 N.3    50  PRO50      -0.2116
     33  CA        66.2980   14.0060    7.8600 C.3    50  PRO50       0.1372
     34  C         67.3000   14.6360    8.8170 C.2    50  PRO50       0.2244
     35  O         68.4170   14.1560    8.9180 O.2    50  PRO50      -0.2868
     36  CB        66.4040   14.5920    6.4510 C.3    50  PRO50       0.0268
     37  CG        65.2740   15.5340    6.3130 C.3    50  PRO50       0.0207
     38  CD        64.1960   15.0910    7.2200 C.3    50  PRO50       0.0892
     39  N         65.9260    4.3210   12.1200 N.3    73  LYS73      -0.1245
     40  CA        66.4100    5.1880   11.0530 C.3    73  LYS73       0.1561
     41  C         66.5000    4.3810    9.7660 C.2    73  LYS73       0.2260
     42  O         67.1210    3.3320    9.7400 O.2    73  LYS73      -0.2867
     43  CB        67.7610    5.8210   11.3910 C.3    73  LYS73       0.0271
     44  CG        68.2910    6.7550   10.3060 C.3    73  LYS73       0.0035
     45  CD        69.3710    7.6740   10.8430 C.3    73  LYS73       0.0206
     46  CE        70.0400    8.4930    9.7490 C.3    73  LYS73       0.1093
     47  NZ        69.0910    9.0770    8.7530 N.3    73  LYS73      -0.1314
     48  N         67.3580    7.5530    3.2820 N.3    76  TYR76      -0.1227
     49  CA        66.6710    8.7650    2.8220 C.3    76  TYR76       0.1736
     50  C         65.9720    9.5880    3.9170 C.2    76  TYR76       0.2596
     51  O         64.9410   10.2090    3.6780 O.2    76  TYR76      -0.2718
     52  CB        65.6410    8.3830    1.7660 C.3    76  TYR76       0.0548
     53  CG        66.2160    7.6040    0.6040 C.ar   76  TYR76      -0.0200
     54  CD1       67.2090    8.1630   -0.2090 C.ar   76  TYR76      -0.0009
     55  CD2       65.7780    6.3200    0.3140 C.ar   76  TYR76      -0.0009
     56  CE1       67.7440    7.4690   -1.2770 C.ar   76  TYR76       0.0417
     57  CE2       66.2990    5.6180   -0.7570 C.ar   76  TYR76       0.0417
     58  CZ        67.2830    6.1970   -1.5530 C.ar   76  TYR76       0.1957
     59  OH        67.8130    5.5060   -2.6270 O.3    76  TYR76      -0.2866
     60  N         66.5390    9.6210    5.1130 N.am   77  GLY77      -0.1942
     61  CA        65.9940   10.4630    6.1530 C.3    77  GLY77       0.2014
     62  C         64.6440   10.0250    6.6880 C.2    77  GLY77       0.2638
     63  O         64.0190   10.7280    7.4790 O.2    77  GLY77      -0.2714
     64  N         64.1720    8.8510    6.3090 N.am   78  LYS78      -0.1977
     65  CA        62.8640    8.4740    6.8170 C.3    78  LYS78       0.1596
     66  C         63.0080    7.6360    8.0740 C.2    78  LYS78       0.2287
     67  O         64.0980    7.1540    8.4040 O.2    78  LYS78      -0.2864
     68  CB        62.0420    7.7440    5.7530 C.3    78  LYS78       0.0298
     69  CG        62.0000    8.5050    4.4680 C.3    78  LYS78       0.0038
     70  CD        61.0490    7.9170    3.5100 C.3    78  LYS78       0.0206
     71  CE        61.1990    8.5120    2.1280 C.3    78  LYS78       0.1093
     72  NZ        61.6940    7.5060    1.1370 N.3    78  LYS78      -0.1314
     73  N         62.0520   19.5120   -3.5970 N.3   288  SER288     -0.1202
     74  CA        62.3810   18.3860   -2.7700 C.3   288  SER288      0.2020
     75  C         61.3770   17.2240   -2.9120 C.2   288  SER288      0.2619
     76  O         60.1700   17.3830   -2.7290 O.2   288  SER288     -0.2717
     77  CB        62.4920   18.8640   -1.3230 C.3   288  SER288      0.2103
     78  OG        62.5040   17.7570   -0.4560 O.3   288  SER288     -0.2182
     79  N         61.9000   16.0560   -3.2670 N.am  289  TRP289     -0.1961
     80  CA        61.0920   14.8680   -3.5410 C.3   289  TRP289      0.1771
     81  C         60.0840   14.5240   -2.4250 C.2   289  TRP289      0.2619
     82  O         58.9710   14.0930   -2.7190 O.2   289  TRP289     -0.2715
     83  CB        62.0110   13.6860   -3.7810 C.3   289  TRP289      0.0590
     84  CG        61.3950   12.5140   -4.4520 C.ar  289  TRP289      0.0006
     85  CD1       60.9840   11.3560   -3.8620 C.ar  289  TRP289      0.0946
     86  CD2       61.1950   12.3350   -5.8590 C.ar  289  TRP289      0.0152
     87  NE1       60.5080   10.4900   -4.8030 N.ar  289  TRP289     -0.2442
     88  CE2       60.6220   11.0630   -6.0380 C.ar  289  TRP289      0.0810
     89  CE3       61.4190   13.1380   -6.9810 C.ar  289  TRP289      0.0012
     90  CZ2       60.2690   10.5710   -7.2910 C.ar  289  TRP289      0.0191
     91  CZ3       61.0660   12.6450   -8.2390 C.ar  289  TRP289      0.0001
     92  CH2       60.5020   11.3700   -8.3810 C.ar  289  TRP289      0.0015
     93  N         60.4500   14.6880   -1.1580 N.am  290  GLU290     -0.1977
     94  CA        59.5110   14.3540   -0.0910 C.3   290  GLU290      0.1602
     95  C         58.4550   15.4560    0.0320 C.2   290  GLU290      0.2287
     96  O         57.3270   15.2080    0.4470 O.2   290  GLU290     -0.2864
     97  CB        60.2270   14.1450    1.2520 C.3   290  GLU290      0.0415
     98  CG        61.0820   12.8860    1.3270 C.3   290  GLU290      0.1163
     99  CD        60.3160   11.6710    0.9050 C.2   290  GLU290      0.3649
    100  OE1       59.1500   11.4860    1.3440 O.co2 290  GLU290     -0.2457
    101  OE2       60.8570   10.9220    0.0750 O.co2 290  GLU290     -0.2457
    102  N         56.0850   14.4760   -2.4290 N.3   293  ARG293     -0.1245
    103  CA        55.2400   13.3790   -1.9730 C.3   293  ARG293      0.1563
    104  C         54.1590   13.9260   -1.0280 C.2   293  ARG293      0.2260
    105  O         52.9900   13.6220   -1.1800 O.2   293  ARG293     -0.2867
    106  CB        56.0590   12.2660   -1.2970 C.3   293  ARG293      0.0307
    107  CG        55.2340   11.0210   -0.9770 C.3   293  ARG293      0.0489
    108  CD        55.9260   10.0930    0.0070 C.3   293  ARG293      0.2205
    109  NE        57.3490    9.9630   -0.2700 N.pl3 293  ARG293     -0.0865
    110  CZ        57.8760    9.1630   -1.1960 C.cat 293  ARG293      0.5346
    111  NH1       57.0960    8.4290   -1.9880 N.pl3 293  ARG293      0.1354
    112  NH2       59.1960    9.1350   -1.3530 N.pl3 293  ARG293      0.1354
@<TRIPOS>BOND
     1     1     2    1
     2     7     6    2
     3     8     6   am
     4     6     5    1
     5     2     5    1
     6     2     3    1
     7    92    91   ar
     8    92    90   ar
     9    91    89   ar
    10     9     3   am
    11     9    10    1
    12    11    12    2
    13    11    10    1
    14     3     4    2
    15    90    88   ar
    16    10    13    1
    17    89    86   ar
    18    13    14    1
    19    14    15    1
    20    88    86   ar
    21    88    87   ar
    22    86    84   ar
    23    87    85   ar
    24    15    17   ar
    25    15    16   ar
    26    84    85   ar
    27    84    83    1
    28    83    80    1
    29    73    74    1
    30    80    79    1
    31    80    81    1
    32    79    75   am
    33    75    74    1
    34    75    76    2
    35    74    77    1
    36    82    81    2
    37    59    58    1
    38   102   103    1
    39    81    93   am
    40   111   110    1
    41   103   106    1
    42   103   104    1
    43    58    56   ar
    44    58    57   ar
    45   112   110    1
    46    77    78    1
    47   106   107    1
    48    56    54   ar
    49   110   109    2
    50   105   104    2
    51    93    94    1
    52   107   108    1
    53    57    55   ar
    54   109   108    1
    55    54    53   ar
    56    94    95    1
    57    94    97    1
    58    95    96    2
    59   101    99   ar
    60    55    53   ar
    61    53    52    1
    62    99    98    1
    63    99   100   ar
    64    72    71    1
    65    97    98    1
    66    52    49    1
    67    71    70    1
    68    49    48    1
    69    49    50    1
    70    29    31   ar
    71    29    27   ar
    72    31    30   ar
    73    70    69    1
    74    51    50    2
    75    30    28   ar
    76    27    26   ar
    77    27    25   ar
    78    50    60   am
    79    26    24   ar
    80    28    25   ar
    81    69    68    1
    82    25    23   ar
    83    24    23   ar
    84    23    22    1
    85    60    61    1
    86    68    65    1
    87    22    19    1
    88    61    62    1
    89    64    62   am
    90    64    65    1
    91    37    36    1
    92    37    38    1
    93    36    33    1
    94    62    63    2
    95    65    66    1
    96    19    18    1
    97    19    20    1
    98    38    32    1
    99    33    32    1
   100    33    34    1
   101    20    21    2
   102    66    67    2
   103    47    46    1
   104    34    35    2
   105    42    41    2
   106    46    45    1
   107    41    40    1
   108    44    45    1
   109    44    43    1
   110    40    43    1
   111    40    39    1
