@<TRIPOS>MOLECULE
tmp/5cluA00.pdb
 136 135 0 0 0
SMALL
GASTEIGER

@<TRIPOS>ATOM
      1  N          8.5470   -0.4610   10.4580 N.3     2  TRP2       -0.1241
      2  CA         7.8560   -1.4650   11.2420 C.3     2  TRP2        0.1605
      3  C          6.8170   -2.2470   10.4770 C.2     2  TRP2        0.2264
      4  O          6.2510   -1.7750    9.4820 O.2     2  TRP2       -0.2867
      5  CB         7.2050   -0.8240   12.4740 C.3     2  TRP2        0.0550
      6  CG         6.0410    0.0810   12.1680 C.ar    2  TRP2        0.0003
      7  CD1        6.0660    1.4400   11.9380 C.ar    2  TRP2        0.0946
      8  CD2        4.6770   -0.3230   12.0590 C.ar    2  TRP2        0.0152
      9  NE1        4.7850    1.8930   11.6930 N.ar    2  TRP2       -0.2442
     10  CE2        3.9160    0.8320   11.7600 C.ar    2  TRP2        0.0810
     11  CE3        4.0200   -1.5580   12.1850 C.ar    2  TRP2        0.0012
     12  CZ2        2.5340    0.7850   11.5900 C.ar    2  TRP2        0.0191
     13  CZ3        2.6550   -1.6050   12.0160 C.ar    2  TRP2        0.0001
     14  CH2        1.9210   -0.4290   11.7220 C.ar    2  TRP2        0.0015
     15  N        -12.6820    6.0990   11.1800 N.3    89  GLN89      -0.1245
     16  CA       -12.4930    4.9260   10.3100 C.3    89  GLN89       0.1566
     17  C        -12.6280    3.6530   11.1050 C.2    89  GLN89       0.2260
     18  O        -12.6640    3.7020   12.3430 O.2    89  GLN89      -0.2867
     19  CB       -11.0920    4.9400    9.6550 C.3    89  GLN89       0.0367
     20  CG        -9.9320    5.1570   10.6530 C.3    89  GLN89       0.0905
     21  CD        -9.2590    3.8980   11.1780 C.2    89  GLN89       0.2608
     22  OE1       -9.7480    2.7740   11.0340 O.2    89  GLN89      -0.2717
     23  NE2       -8.1080    4.0960   11.8070 N.am   89  GLN89      -0.0878
     24  N        -11.3040   -0.6280   10.8670 N.3    91  HIS91      -0.1241
     25  CA       -10.4280   -1.5870   10.2240 C.3    91  HIS91       0.1621
     26  C        -10.4640   -2.8490   11.0630 C.2    91  HIS91       0.2264
     27  O        -11.1150   -2.8970   12.1210 O.2    91  HIS91      -0.2867
     28  CB        -9.0000   -1.0700   10.1700 C.3    91  HIS91       0.0745
     29  CG        -8.4360   -0.7780   11.5200 C.ar   91  HIS91       0.0817
     30  ND1       -8.6200    0.4270   12.1670 N.ar   91  HIS91      -0.2268
     31  CD2       -7.7870   -1.5840   12.3900 C.ar   91  HIS91       0.1154
     32  CE1       -8.1090    0.3420   13.3840 C.ar   91  HIS91       0.1986
     33  NE2       -7.6000   -0.8720   13.5400 N.ar   91  HIS91      -0.2212
     34  N         -8.0640   -6.5420   12.3960 N.3    93  HIS93      -0.1241
     35  CA        -6.7900   -7.2340   12.5890 C.3    93  HIS93       0.1621
     36  C         -7.2210   -8.6920   12.4880 C.2    93  HIS93       0.2264
     37  O         -8.2710   -9.0730   13.0530 O.2    93  HIS93      -0.2867
     38  CB        -6.2040   -6.9720   13.9630 C.3    93  HIS93       0.0745
     39  CG        -5.9250   -5.5280   14.2130 C.ar   93  HIS93       0.0817
     40  ND1       -4.6790   -4.9750   13.9990 N.ar   93  HIS93      -0.2268
     41  CD2       -6.7310   -4.5140   14.6170 C.ar   93  HIS93       0.1154
     42  CE1       -4.7290   -3.6800   14.2730 C.ar   93  HIS93       0.1986
     43  NE2       -5.9610   -3.3740   14.6410 N.ar   93  HIS93      -0.2212
     44  N        -12.0520   -2.7630   14.8100 N.3   116  HIS116     -0.1241
     45  CA       -11.8430   -1.5510   15.5930 C.3   116  HIS116      0.1621
     46  C        -12.5190   -0.3910   14.9070 C.2   116  HIS116      0.2264
     47  O        -12.1520   -0.0540   13.7660 O.2   116  HIS116     -0.2867
     48  CB       -10.3580   -1.2520   15.6870 C.3   116  HIS116      0.0745
     49  CG        -9.6360   -2.2200   16.5600 C.ar  116  HIS116      0.0817
     50  ND1       -8.2710   -2.4100   16.5100 N.ar  116  HIS116     -0.2268
     51  CD2      -10.1000   -3.0400   17.5310 C.ar  116  HIS116      0.1154
     52  CE1       -7.9270   -3.3010   17.4200 C.ar  116  HIS116      0.1986
     53  NE2       -9.0140   -3.6980   18.0570 N.ar  116  HIS116     -0.2212
     54  N        -12.7740    3.3530   15.1770 N.3   118  VAL118     -0.1245
     55  CA       -11.9780    4.4120   15.8170 C.3   118  VAL118      0.1561
     56  C        -12.6730    5.7480   15.8510 C.2   118  VAL118      0.2260
     57  O        -13.1270    6.2210   14.8110 O.2   118  VAL118     -0.2867
     58  CB       -10.6240    4.5330   15.0780 C.3   118  VAL118      0.0252
     59  CG1       -9.7670    5.5930   15.7210 C.3   118  VAL118      0.0019
     60  CG2       -9.8980    3.1630   15.0250 C.3   118  VAL118      0.0019
     61  N         -8.0570   14.4870   14.6690 N.3   127  PHE127     -0.1241
     62  CA        -7.4350   13.2300   15.0840 C.3   127  PHE127      0.1605
     63  C         -5.9880   13.3910   15.5300 C.2   127  PHE127      0.2264
     64  O         -5.5670   12.8180   16.5490 O.2   127  PHE127     -0.2867
     65  CB        -7.5100   12.2320   13.9250 C.3   127  PHE127      0.0534
     66  CG        -6.9520   10.8780   14.2450 C.ar  127  PHE127     -0.0203
     67  CD1       -7.7210    9.9330   14.9160 C.ar  127  PHE127     -0.0042
     68  CD2       -5.6520   10.5460   13.8820 C.ar  127  PHE127     -0.0042
     69  CE1       -7.2120    8.6810   15.2230 C.ar  127  PHE127     -0.0003
     70  CE2       -5.1280    9.3000   14.1830 C.ar  127  PHE127     -0.0003
     71  CZ        -5.9120    8.3610   14.8590 C.ar  127  PHE127     -0.0000
     72  N         -8.9420    9.3070   22.1590 N.3   137  LEU137     -0.1245
     73  CA        -9.6640    8.3800   21.2900 C.3   137  LEU137      0.1561
     74  C        -10.5390    7.4290   22.0750 C.2   137  LEU137      0.2260
     75  O        -10.2900    7.1570   23.2490 O.2   137  LEU137     -0.2867
     76  CB        -8.6790    7.5130   20.4920 C.3   137  LEU137      0.0270
     77  CG        -7.6730    8.1500   19.5100 C.3   137  LEU137      0.0019
     78  CD1       -7.0670    7.0380   18.6520 C.3   137  LEU137      0.0001
     79  CD2       -8.2790    9.2000   18.5960 C.3   137  LEU137      0.0001
     80  N        -11.9910    3.6480   21.1020 N.3   139  VAL139     -0.1245
     81  CA       -12.0440    2.6210   20.0690 C.3   139  VAL139      0.1561
     82  C        -12.9910    1.5340   20.5280 C.2   139  VAL139      0.2260
     83  O        -12.8720    1.0210   21.6380 O.2   139  VAL139     -0.2867
     84  CB       -10.6800    1.9850   19.7660 C.3   139  VAL139      0.0252
     85  CG1      -10.8530    0.9830   18.5860 C.3   139  VAL139      0.0019
     86  CG2       -9.6980    3.0560   19.3120 C.3   139  VAL139      0.0019
     87  N         -2.8030    2.9470   21.2450 N.3   194  LEU194     -0.1231
     88  CA        -2.8860    2.5490   19.8420 C.3   194  LEU194      0.1693
     89  C         -2.1480    1.1910   19.8510 C.2   194  LEU194      0.2593
     90  O         -1.1680    0.9920   20.6170 O.2   194  LEU194     -0.2718
     91  CB        -2.1000    3.5450   18.9790 C.3   194  LEU194      0.0284
     92  CG        -2.5720    5.0010   19.0470 C.3   194  LEU194      0.0019
     93  CD1       -1.6980    5.8420   18.1120 C.3   194  LEU194      0.0001
     94  CD2       -4.0470    5.1140   18.6780 C.3   194  LEU194      0.0001
     95  N         -2.5760    0.2580   18.9980 N.am  195  THR195     -0.1939
     96  CA        -1.9280   -1.0540   18.9720 C.3   195  THR195      0.2028
     97  C         -0.9000   -1.1830   17.8600 C.2   195  THR195      0.2643
     98  O         -0.3340   -2.2560   17.6690 O.2   195  THR195     -0.2714
     99  CB        -2.9210   -2.2100   18.8580 C.3   195  THR195      0.1808
    100  OG1       -3.6090   -2.1120   17.6020 O.3   195  THR195     -0.2208
    101  CG2       -3.9310   -2.2140   20.0230 C.3   195  THR195      0.0379
    102  N         -0.6680   -0.0850   17.1280 N.am  196  THR196     -0.1937
    103  CA         0.4120   -0.0310   16.1310 C.3   196  THR196      0.2013
    104  C          1.1560    1.2800   16.3930 C.2   196  THR196      0.2484
    105  O          0.6200    2.1970   17.0430 O.2   196  THR196     -0.2729
    106  CB        -0.1010   -0.0100   14.6540 C.3   196  THR196      0.1807
    107  OG1       -1.2110    0.8810   14.5290 O.3   196  THR196     -0.2208
    108  CG2       -0.5230   -1.3800   14.2290 C.3   196  THR196      0.0379
    109  N          2.4110    1.3750   15.9260 N.am  197  PRO197     -0.2715
    110  CA         3.2140    2.5920   16.1000 C.3   197  PRO197      0.1521
    111  C          2.3260    3.7450   15.6100 C.2   197  PRO197      0.2440
    112  O          1.6340    3.6260   14.5720 O.2   197  PRO197     -0.2731
    113  CB         4.4030    2.3410   15.1590 C.3   197  PRO197      0.0310
    114  CG         4.6410    0.8820   15.3480 C.3   197  PRO197      0.0237
    115  CD         3.2120    0.2880   15.3290 C.3   197  PRO197      0.0939
    116  N          2.4010    4.9050   16.2620 N.am  198  PRO198     -0.2727
    117  CA         3.2420    5.2660   17.4010 C.3   198  PRO198      0.1402
    118  C          2.9080    4.7510   18.8030 C.2   198  PRO198      0.2269
    119  O          3.5280    5.1780   19.7640 O.2   198  PRO198     -0.2865
    120  CB         3.2580    6.7880   17.3080 C.3   198  PRO198      0.0296
    121  CG         1.8610    7.0880   16.9050 C.3   198  PRO198      0.0237
    122  CD         1.6270    6.0800   15.7920 C.3   198  PRO198      0.0939
    123  N        -10.4580    2.1510   25.6470 N.3   205  TRP205     -0.1241
    124  CA       -10.9060    0.9580   24.9440 C.3   205  TRP205      0.1605
    125  C        -12.2630    0.5070   25.4420 C.2   205  TRP205      0.2264
    126  O        -12.5150    0.4480   26.6530 O.2   205  TRP205     -0.2867
    127  CB        -9.8890   -0.1970   25.1180 C.3   205  TRP205      0.0550
    128  CG        -8.7580   -0.0940   24.1300 C.ar  205  TRP205      0.0003
    129  CD1       -7.5300    0.4760   24.3320 C.ar  205  TRP205      0.0946
    130  CD2       -8.8000   -0.4980   22.7590 C.ar  205  TRP205      0.0152
    131  NE1       -6.8060    0.4560   23.1580 N.ar  205  TRP205     -0.2442
    132  CE2       -7.5600   -0.1410   22.1790 C.ar  205  TRP205      0.0810
    133  CE3       -9.7740   -1.1220   21.9570 C.ar  205  TRP205      0.0012
    134  CZ2       -7.2610   -0.3890   20.8410 C.ar  205  TRP205      0.0191
    135  CZ3       -9.4810   -1.3700   20.6280 C.ar  205  TRP205      0.0001
    136  CH2       -8.2350   -1.0050   20.0780 C.ar  205  TRP205      0.0015
@<TRIPOS>BOND
     1     4     3    2
     2    19    16    1
     3    19    20    1
     4    28    25    1
     5    28    29    1
     6    25    24    1
     7    25    26    1
     8    16    17    1
     9    16    15    1
    10     1     2    1
    11     3     2    1
    12    20    21    1
    13    22    21    2
    14    26    27    2
    15    17    18    2
    16    21    23   am
    17     2     5    1
    18    29    30   ar
    19    29    31   ar
    20    12    14   ar
    21    12    10   ar
    22     9    10   ar
    23     9     7   ar
    24    14    13   ar
    25    10     8   ar
    26     7     6   ar
    27    13    11   ar
    28     8     6   ar
    29     8    11   ar
    30    30    32   ar
    31     6     5    1
    32    31    33   ar
    33    34    35    1
    34    36    35    1
    35    36    37    2
    36    35    38    1
    37    32    33   ar
    38    47    46    2
    39    68    70   ar
    40    68    66   ar
    41    65    66    1
    42    65    62    1
    43    38    39    1
    44    40    39   ar
    45    40    42   ar
    46    70    71   ar
    47    39    41   ar
    48   108   106    1
    49    66    67   ar
    50    42    43   ar
    51   107   106    1
    52   112   111    2
    53    41    43   ar
    54   106   103    1
    55    61    62    1
    56    44    45    1
    57    57    56    2
    58    71    69   ar
    59    46    45    1
    60    67    69   ar
    61    60    58    1
    62    58    59    1
    63    58    55    1
    64    62    63    1
    65   113   114    1
    66   113   110    1
    67    54    55    1
    68   115   114    1
    69   115   109    1
    70    63    64    2
    71    45    48    1
    72   111   110    1
    73   111   116   am
    74    48    49    1
    75   122   116    1
    76   122   121    1
    77    55    56    1
    78   109   110    1
    79   109   104   am
    80   103   104    1
    81   103   102    1
    82   116   117    1
    83   104   105    2
    84    50    49   ar
    85    50    52   ar
    86    49    51   ar
    87   121   120    1
    88   102    97   am
    89   120   117    1
    90   117   118    1
    91    52    53   ar
    92    51    53   ar
    93   100    99    1
    94    98    97    2
    95    97    96    1
    96    93    92    1
    97    85    84    1
    98    79    77    1
    99    78    77    1
   100    94    92    1
   101   118   119    2
   102    99    96    1
   103    99   101    1
   104    96    95    1
   105    91    92    1
   106    91    88    1
   107    95    89   am
   108    86    84    1
   109    77    76    1
   110    84    81    1
   111    88    89    1
   112    88    87    1
   113    89    90    2
   114    81    82    1
   115    81    80    1
   116   136   135   ar
   117   136   134   ar
   118    76    73    1
   119    82    83    2
   120   135   133   ar
   121   134   132   ar
   122    73    74    1
   123    73    72    1
   124   133   130   ar
   125    74    75    2
   126   132   130   ar
   127   132   131   ar
   128   130   128   ar
   129   131   129   ar
   130   128   129   ar
   131   128   127    1
   132   124   127    1
   133   124   125    1
   134   124   123    1
   135   125   126    2
