@<TRIPOS>MOLECULE
tmp/5cmsE00.pdb
 157 149 0 0 0
SMALL
GASTEIGER

@<TRIPOS>ATOM
      1  N        -41.4780   14.1680   -0.4840 N.3     9  GLY9       -0.1210
      2  CA       -42.4440   13.1640   -0.0380 C.3     9  GLY9        0.1956
      3  C        -43.2740   12.4940   -1.1100 C.2     9  GLY9        0.2612
      4  O        -42.8960   12.4310   -2.2900 O.2     9  GLY9       -0.2717
      5  N        -44.4370   12.0560   -0.6620 N.am   10  ASP10      -0.1959
      6  CA       -45.3850   11.3280   -1.4820 C.3    10  ASP10       0.1840
      7  C        -46.4810   12.3050   -2.0140 C.2    10  ASP10       0.2621
      8  O        -47.3190   12.7990   -1.2720 O.2    10  ASP10      -0.2715
      9  CB       -45.9850   10.1800   -0.6710 C.3    10  ASP10       0.1450
     10  CG       -46.9750    9.3260   -1.4500 C.2    10  ASP10       0.3671
     11  OD1      -47.0170    9.3470   -2.7080 O.co2  10  ASP10      -0.2456
     12  OD2      -47.7520    8.6320   -0.7540 O.co2  10  ASP10      -0.2456
     13  N        -46.4880   12.4800   -3.3260 N.am   11  ILE11      -0.1977
     14  CA       -47.4280   13.3710   -4.0110 C.3    11  ILE11       0.1596
     15  C        -48.9110   13.0870   -3.7220 C.2    11  ILE11       0.2287
     16  O        -49.7500   13.9800   -3.7630 O.2    11  ILE11      -0.2864
     17  CB       -47.2140   13.3640   -5.5280 C.3    11  ILE11       0.0276
     18  CG1      -47.8270   14.6150   -6.1520 C.3    11  ILE11       0.0022
     19  CG2      -47.8030   12.1110   -6.1630 C.3    11  ILE11       0.0022
     20  CD1      -47.3840   14.8400   -7.5880 C.3    11  ILE11       0.0001
     21  N        -47.5550   11.4820  -13.9490 N.3    22  ALA22      -0.1231
     22  CA       -46.6260   11.1650  -15.0290 C.3    22  ALA22       0.1694
     23  C        -47.0900    9.8820  -15.6880 C.2    22  ALA22       0.2591
     24  O        -46.6660    8.7790  -15.3800 O.2    22  ALA22      -0.2718
     25  CB       -45.2170   11.0210  -14.5350 C.3    22  ALA22       0.0304
     26  N        -47.9830   10.0600  -16.6330 N.am   23  ALA23      -0.1980
     27  CA       -48.7230    8.9480  -17.2320 C.3    23  ALA23       0.1597
     28  C        -48.0450    8.4620  -18.4890 C.2    23  ALA23       0.2287
     29  O        -47.0020    8.9680  -18.8790 O.2    23  ALA23      -0.2864
     30  CB       -50.1530    9.3460  -17.5340 C.3    23  ALA23       0.0319
     31  N        -46.1670    2.2340  -12.8970 N.3    31  GLY31      -0.1210
     32  CA       -45.7970    2.2130  -11.5180 C.3    31  GLY31       0.1956
     33  C        -44.7070    3.1720  -11.1930 C.2    31  GLY31       0.2612
     34  O        -43.5830    3.0390  -11.5910 O.2    31  GLY31      -0.2717
     35  N        -45.0690    4.1490  -10.4160 N.am   32  GLY32      -0.1942
     36  CA       -44.1580    5.1310   -9.9630 C.3    32  GLY32       0.2014
     37  C        -45.2720    5.9630   -9.4740 C.2    32  GLY32       0.2639
     38  O        -46.1550    5.4500   -8.8400 O.2    32  GLY32      -0.2714
     39  N        -45.2850    7.2170   -9.8400 N.am   33  VAL33      -0.1963
     40  CA       -46.3540    8.0830   -9.4900 C.3    33  VAL33       0.1727
     41  C        -47.6220    7.4950   -9.9950 C.2    33  VAL33       0.2616
     42  O        -48.6380    7.6240   -9.3850 O.2    33  VAL33      -0.2715
     43  CB       -46.2430    9.4530  -10.1670 C.3    33  VAL33       0.0290
     44  CG1      -46.6900   10.5300   -9.2210 C.3    33  VAL33       0.0023
     45  CG2      -44.8610    9.7690  -10.6600 C.3    33  VAL33       0.0023
     46  N        -47.5670    6.8810  -11.1510 N.am   34  ASP34      -0.1971
     47  CA       -48.7690    6.5220  -11.8460 C.3    34  ASP34       0.1709
     48  C        -49.5300    5.5080  -11.0640 C.2    34  ASP34       0.2293
     49  O        -50.7260    5.5980  -10.9430 O.2    34  ASP34      -0.2864
     50  CB       -48.4500    5.9840  -13.2260 C.3    34  ASP34       0.1436
     51  CG       -49.6570    5.8610  -14.0890 C.2    34  ASP34       0.3671
     52  OD1      -50.7610    5.8280  -13.5650 O.co2  34  ASP34      -0.2456
     53  OD2      -49.5110    5.7850  -15.3000 O.co2  34  ASP34      -0.2456
     54  N        -48.8920    4.6510   -7.8260 N.3    36  ALA36      -0.1245
     55  CA       -49.1560    5.2210   -6.5380 C.3    36  ALA36       0.1562
     56  C        -50.3900    6.0490   -6.5330 C.2    36  ALA36       0.2260
     57  O        -51.0040    6.1920   -5.5270 O.2    36  ALA36      -0.2867
     58  CB       -47.9900    6.0540   -6.1020 C.3    36  ALA36       0.0290
     59  N        -45.0920   12.4210  -20.3470 N.3    82  GLY82      -0.1225
     60  CA       -43.6900   12.8270  -20.5080 C.3    82  GLY82       0.1811
     61  C        -43.0030   11.9740  -21.5490 C.2    82  GLY82       0.2280
     62  O        -43.4230   10.8570  -21.8320 O.2    82  GLY82      -0.2866
     63  N        -44.7740   15.8430   -9.8860 N.3   118  PRO118     -0.2102
     64  CA       -43.6600   15.0080   -9.6130 C.3   118  PRO118      0.1504
     65  C        -42.5210   15.3440  -10.5690 C.2   118  PRO118      0.2576
     66  O        -42.5880   16.3240  -11.3010 O.2   118  PRO118     -0.2718
     67  CB       -44.2130   13.6340   -9.9260 C.3   118  PRO118      0.0282
     68  CG       -45.1150   13.8710  -11.0620 C.3   118  PRO118      0.0208
     69  CD       -45.6740   15.2320  -10.8630 C.3   118  PRO118      0.0893
     70  N        -41.4810   14.5280  -10.5580 N.am  119  ALA119     -0.1966
     71  CA       -40.3310   14.7570  -11.4710 C.3   119  ALA119      0.1728
     72  C        -40.5100   13.9800  -12.7640 C.2   119  ALA119      0.2616
     73  O        -39.8950   12.9500  -12.9890 O.2   119  ALA119     -0.2715
     74  CB       -38.9930   14.4370  -10.8250 C.3   119  ALA119      0.0334
     75  N        -41.3540   14.5170  -13.6210 N.am  120  ILE120     -0.1963
     76  CA       -41.7600   13.8210  -14.8570 C.3   120  ILE120      0.1727
     77  C        -40.5650   13.2800  -15.6360 C.2   120  ILE120      0.2617
     78  O        -39.5490   13.9300  -15.7680 O.2   120  ILE120     -0.2715
     79  CB       -42.6390   14.6890  -15.7660 C.3   120  ILE120      0.0290
     80  CG1      -43.9690   14.9700  -15.0640 C.3   120  ILE120      0.0022
     81  CG2      -42.9250   13.9970  -17.0980 C.3   120  ILE120      0.0023
     82  CD1      -44.7420   16.1410  -15.6430 C.3   120  ILE120      0.0001
     83  N        -40.7290   12.0510  -16.0990 N.am  121  SER121     -0.1936
     84  CA       -39.7910   11.3770  -17.0380 C.3   121  SER121      0.2055
     85  C        -38.4130   10.9330  -16.4670 C.2   121  SER121      0.2644
     86  O        -37.6280   10.2950  -17.1710 O.2   121  SER121     -0.2714
     87  CB       -39.5890   12.2170  -18.2870 C.3   121  SER121      0.2130
     88  OG       -40.5730   11.8670  -19.2510 O.3   121  SER121     -0.2179
     89  N        -38.1920   11.1610  -15.1810 N.am  122  THR122     -0.1936
     90  CA       -36.9090   10.8280  -14.5280 C.3   122  THR122      0.2028
     91  C        -36.8170    9.4760  -13.8100 C.2   122  THR122      0.2643
     92  O        -35.8190    9.1610  -13.1680 O.2   122  THR122     -0.2714
     93  CB       -36.5110   11.8590  -13.4590 C.3   122  THR122      0.1808
     94  OG1      -37.4520   11.8240  -12.3840 O.3   122  THR122     -0.2208
     95  CG2      -36.4170   13.2160  -14.0450 C.3   122  THR122      0.0379
     96  N        -37.8640    8.6920  -13.8720 N.am  123  GLY123     -0.1939
     97  CA       -37.8230    7.3340  -13.2760 C.3   123  GLY123      0.2014
     98  C        -37.5450    6.2820  -14.3480 C.2   123  GLY123      0.2639
     99  O        -36.4870    6.2900  -14.9670 O.2   123  GLY123     -0.2714
    100  N        -38.5430    5.4440  -14.6010 N.am  124  VAL124     -0.1963
    101  CA       -38.4890    4.3790  -15.6220 C.3   124  VAL124      0.1727
    102  C        -38.1160    4.9540  -17.0110 C.2   124  VAL124      0.2616
    103  O        -37.3740    4.3540  -17.7880 O.2   124  VAL124     -0.2715
    104  CB       -39.8660    3.6450  -15.7900 C.3   124  VAL124      0.0290
    105  CG1      -39.7760    2.4750  -16.7620 C.3   124  VAL124      0.0023
    106  CG2      -40.4330    3.1580  -14.4630 C.3   124  VAL124      0.0023
    107  N        -38.6390    6.1290  -17.3080 N.am  125  ALA125     -0.1977
    108  CA       -38.4250    6.7680  -18.6350 C.3   125  ALA125      0.1597
    109  C        -36.9600    7.1890  -18.8550 C.2   125  ALA125      0.2287
    110  O        -36.5510    7.5570  -19.9640 O.2   125  ALA125     -0.2864
    111  CB       -39.3510    7.9680  -18.8250 C.3   125  ALA125      0.0319
    112  N        -31.6940   13.0710  -14.5580 N.3   129  ARG129     -0.1245
    113  CA       -32.2660   13.8080  -13.3840 C.3   129  ARG129      0.1563
    114  C        -31.9740   15.3310  -13.3950 C.2   129  ARG129      0.2260
    115  O        -32.8250   16.1550  -13.0330 O.2   129  ARG129     -0.2867
    116  CB       -31.7880   13.1670  -12.0540 C.3   129  ARG129      0.0307
    117  CG       -32.3080   13.9650  -10.8670 C.3   129  ARG129      0.0489
    118  CD       -31.9750   13.2810   -9.5570 C.3   129  ARG129      0.2205
    119  NE       -32.4970   11.9170   -9.5750 N.pl3 129  ARG129     -0.0865
    120  CZ       -32.1760   11.0930   -8.5950 C.cat 129  ARG129      0.5346
    121  NH1      -31.3830   11.5150   -7.6170 N.pl3 129  ARG129      0.1354
    122  NH2      -32.6250    9.8460   -8.5910 N.pl3 129  ARG129      0.1354
    123  N        -42.9530   18.1980   -6.1530 N.3   156  VAL156     -0.1245
    124  CA       -42.8510   17.0910   -5.2250 C.3   156  VAL156      0.1561
    125  C        -41.7600   16.1570   -5.6490 C.2   156  VAL156      0.2260
    126  O        -41.7790   15.5810   -6.7220 O.2   156  VAL156     -0.2867
    127  CB       -44.1420   16.2990   -5.0760 C.3   156  VAL156      0.0252
    128  CG1      -43.9710   15.2170   -4.0100 C.3   156  VAL156      0.0019
    129  CG2      -45.2680   17.2140   -4.6500 C.3   156  VAL156      0.0019
    130  N        -39.2800   12.8100   -4.6160 N.3   158  TYR158     -0.1227
    131  CA       -39.4170   11.5100   -3.8960 C.3   158  TYR158      0.1736
    132  C        -38.2440   11.1780   -2.9780 C.2   158  TYR158      0.2595
    133  O        -38.3950   10.5190   -1.9520 O.2   158  TYR158     -0.2718
    134  CB       -39.6010   10.3640   -4.8670 C.3   158  TYR158      0.0548
    135  CG       -40.3710    9.2050   -4.2650 C.ar  158  TYR158     -0.0200
    136  CD1      -41.4980    9.4270   -3.4700 C.ar  158  TYR158     -0.0009
    137  CD2      -39.9960    7.8820   -4.5300 C.ar  158  TYR158     -0.0009
    138  CE1      -42.2330    8.3770   -2.9550 C.ar  158  TYR158      0.0417
    139  CE2      -40.7270    6.8210   -4.0200 C.ar  158  TYR158      0.0417
    140  CZ       -41.8420    7.0790   -3.2270 C.ar  158  TYR158      0.1957
    141  OH       -42.5620    6.0200   -2.7290 O.3   158  TYR158     -0.2866
    142  N        -37.0900   11.6690   -3.3770 N.am  159  ASP159     -0.1974
    143  CA       -35.8640   11.5230   -2.6090 C.3   159  ASP159      0.1709
    144  C        -35.2680   12.9010   -2.3130 C.2   159  ASP159      0.2293
    145  O        -35.6370   13.9310   -2.8940 O.2   159  ASP159     -0.2864
    146  CB       -34.8350   10.6680   -3.3150 C.3   159  ASP159      0.1436
    147  CG       -34.4350   11.2430   -4.6350 C.2   159  ASP159      0.3671
    148  OD1      -33.9470   12.3920   -4.6840 O.co2 159  ASP159     -0.2456
    149  OD2      -34.6380   10.5400   -5.6370 O.co2 159  ASP159     -0.2456
    150  N        -32.8630   14.7360   -5.1830 N.3   162  ASN162     -0.1240
    151  CA       -33.6960   15.4950   -6.1500 C.3   162  ASN162      0.1653
    152  C        -34.2130   16.8010   -5.5770 C.2   162  ASN162      0.2266
    153  O        -34.2210   17.8370   -6.2130 O.2   162  ASN162     -0.2867
    154  CB       -34.9110   14.6470   -6.5630 C.3   162  ASN162      0.1155
    155  CG       -35.2350   14.7480   -8.0470 C.2   162  ASN162      0.2627
    156  OD1      -34.4210   15.1790   -8.8600 O.2   162  ASN162     -0.2716
    157  ND2      -36.4180   14.2870   -8.4170 N.am  162  ASN162     -0.0877
@<TRIPOS>BOND
     1    62    61    2
     2    61    60    1
     3    60    59    1
     4   110   109    2
     5    88    87    1
     6    29    28    2
     7   109   108    1
     8   111   108    1
     9   108   107    1
    10    28    27    1
    11    87    84    1
    12   103   102    2
    13    30    27    1
    14   107   102   am
    15    27    26    1
    16    86    85    2
    17    81    79    1
    18    84    85    1
    19    84    83    1
    20   102   101    1
    21   105   104    1
    22    26    23   am
    23    85    89   am
    24    83    77   am
    25   104   101    1
    26   104   106    1
    27    78    77    2
    28    79    80    1
    29    79    76    1
    30    23    24    2
    31    23    22    1
    32    82    80    1
    33    77    76    1
    34   101   100    1
    35    53    51   ar
    36    89    90    1
    37    22    25    1
    38    22    21    1
    39    99    98    2
    40    76    75    1
    41   100    98   am
    42   112   113    1
    43    90    91    1
    44    90    93    1
    45    98    97    1
    46    51    52   ar
    47    51    50    1
    48    95    93    1
    49    96    91   am
    50    96    97    1
    51    91    92    2
    52    75    72   am
    53    93    94    1
    54   114   113    1
    55   114   115    2
    56   113   116    1
    57    50    47    1
    58    73    72    2
    59    31    32    1
    60    72    71    1
    61   116   117    1
    62    47    46    1
    63    47    48    1
    64    34    33    2
    65    32    33    1
    66    71    74    1
    67    71    70    1
    68    66    65    2
    69    33    35   am
    70    46    41   am
    71    48    49    2
    72    68    69    1
    73    68    67    1
    74   117   118    1
    75    69    63    1
    76    45    43    1
    77    65    70   am
    78    65    64    1
    79    35    36    1
    80    43    40    1
    81    43    44    1
    82    41    40    1
    83    41    42    2
    84    36    37    1
    85    67    64    1
    86    63    64    1
    87    39    40    1
    88    39    37   am
    89   119   118    1
    90   119   120    2
    91    37    38    2
    92   156   155    2
    93   120   122    1
    94   120   121    1
    95   157   155   am
    96   155   154    1
    97    54    55    1
    98    20    18    1
    99   126   125    2
   100   154   151    1
   101    55    56    1
   102    55    58    1
   103    56    57    2
   104   153   152    2
   105    19    17    1
   106   123   124    1
   107    18    17    1
   108   151   152    1
   109   151   150    1
   110   125   124    1
   111   149   147   ar
   112    17    14    1
   113   124   127    1
   114   127   129    1
   115   127   128    1
   116   134   135    1
   117   134   131    1
   118   148   147   ar
   119   147   146    1
   120   130   131    1
   121   137   135   ar
   122   137   139   ar
   123   135   136   ar
   124   139   140   ar
   125    14    15    1
   126    14    13    1
   127   131   132    1
   128    16    15    2
   129   136   138   ar
   130   142   132   am
   131   142   143    1
   132    13     7   am
   133   146   143    1
   134   140   138   ar
   135   140   141    1
   136   132   133    2
   137   145   144    2
   138    11    10   ar
   139   143   144    1
   140     4     3    2
   141     7     6    1
   142     7     8    2
   143     6     9    1
   144     6     5    1
   145    10    12   ar
   146    10     9    1
   147     3     5   am
   148     3     2    1
   149     1     2    1
