@<TRIPOS>MOLECULE
tmp/5cmvA00.pdb
 133 127 0 0 0
SMALL
GASTEIGER

@<TRIPOS>ATOM
      1  N          5.7000  -20.8770   10.7310 N.3    29  LEU29      -0.1245
      2  CA         6.3030  -21.6620    9.6540 C.3    29  LEU29       0.1561
      3  C          6.1300  -20.9620    8.3110 C.2    29  LEU29       0.2260
      4  O          7.0240  -20.9760    7.4680 O.2    29  LEU29      -0.2867
      5  CB         5.7020  -23.0690    9.6020 C.3    29  LEU29       0.0270
      6  CG         6.0890  -23.9850   10.7640 C.3    29  LEU29       0.0019
      7  CD1        5.3660  -25.3210   10.6640 C.3    29  LEU29       0.0001
      8  CD2        7.5940  -24.1940   10.7600 C.3    29  LEU29       0.0001
      9  N          8.6900  -18.2450    8.1390 N.3    32  LEU32      -0.1245
     10  CA         9.9630  -18.8980    7.8000 C.3    32  LEU32       0.1561
     11  C         10.0830  -19.2840    6.3150 C.2    32  LEU32       0.2260
     12  O         11.0670  -18.9440    5.6390 O.2    32  LEU32      -0.2867
     13  CB        10.1480  -20.1500    8.6610 C.3    32  LEU32       0.0270
     14  CG        11.4210  -20.9630    8.4050 C.3    32  LEU32       0.0019
     15  CD1       12.6590  -20.2030    8.8480 C.3    32  LEU32       0.0001
     16  CD2       11.3610  -22.3060    9.1080 C.3    32  LEU32       0.0001
     17  N         14.6380  -22.8400    3.3520 N.3    39  THR39      -0.1218
     18  CA        14.2220  -23.6570    4.4990 C.3    39  THR39       0.1862
     19  C         13.1730  -24.6790    4.0970 C.2    39  THR39       0.2287
     20  O         13.1570  -25.7970    4.5970 O.2    39  THR39      -0.2866
     21  CB        13.6570  -22.8050    5.6610 C.3    39  THR39       0.1770
     22  OG1       12.5790  -21.9820    5.1970 O.3    39  THR39      -0.2211
     23  CG2       14.7450  -21.9210    6.2730 C.3    39  THR39       0.0375
     24  N         14.1300  -28.2870    3.2730 N.3    42  LYS42      -0.1231
     25  CA        14.4800  -29.2570    4.2990 C.3    42  LYS42       0.1693
     26  C         13.3090  -30.1440    4.6850 C.2    42  LYS42       0.2592
     27  O         13.4950  -31.1490    5.3690 O.2    42  LYS42      -0.2718
     28  CB        15.0110  -28.5460    5.5390 C.3    42  LYS42       0.0285
     29  CG        16.3440  -27.8830    5.3100 C.3    42  LYS42       0.0035
     30  CD        17.4440  -28.9300    5.1080 C.3    42  LYS42       0.0206
     31  CE        18.8080  -28.2640    4.9040 C.3    42  LYS42       0.1093
     32  NZ        19.9300  -29.2540    4.8960 N.3    42  LYS42      -0.1314
     33  N         12.1100  -29.7670    4.2490 N.am   43  PHE43      -0.1962
     34  CA        10.8880  -30.5100    4.5730 C.3    43  PHE43       0.1771
     35  C         10.3700  -31.2640    3.3770 C.2    43  PHE43       0.2620
     36  O          9.7330  -30.6740    2.5160 O.2    43  PHE43      -0.2715
     37  CB         9.7720  -29.5750    5.0580 C.3    43  PHE43       0.0574
     38  CG        10.0470  -28.9050    6.3680 C.ar   43  PHE43      -0.0200
     39  CD1       10.7630  -27.7250    6.4200 C.ar   43  PHE43      -0.0042
     40  CD2        9.5590  -29.4410    7.5490 C.ar   43  PHE43      -0.0042
     41  CE1       11.0090  -27.0950    7.6240 C.ar   43  PHE43      -0.0003
     42  CE2        9.8000  -28.8120    8.7550 C.ar   43  PHE43      -0.0003
     43  CZ        10.5300  -27.6340    8.7860 C.ar   43  PHE43      -0.0000
     44  N         10.6010  -32.5690    3.3450 N.am   44  ASP44      -0.1957
     45  CA        10.1060  -33.3990    2.2630 C.3    44  ASP44       0.1840
     46  C          8.5820  -33.4570    2.2150 C.2    44  ASP44       0.2621
     47  O          8.0180  -33.8750    1.2110 O.2    44  ASP44      -0.2715
     48  CB        10.6700  -34.8110    2.3870 C.3    44  ASP44       0.1450
     49  CG        12.1490  -34.8670    2.0800 C.2    44  ASP44       0.3671
     50  OD1       12.6000  -34.1080    1.1960 O.co2  44  ASP44      -0.2456
     51  OD2       12.8610  -35.6630    2.7240 O.co2  44  ASP44      -0.2456
     52  N          7.9120  -33.0490    3.2900 N.am   45  LYS45      -0.1977
     53  CA         6.4500  -33.0700    3.2770 C.3    45  LYS45       0.1596
     54  C          5.8170  -31.6910    3.0910 C.2    45  LYS45       0.2287
     55  O          4.5930  -31.5590    3.1130 O.2    45  LYS45      -0.2864
     56  CB         5.9110  -33.7110    4.5520 C.3    45  LYS45       0.0298
     57  CG         6.0310  -32.8620    5.8030 C.3    45  LYS45       0.0038
     58  CD         5.3210  -33.5570    6.9530 C.3    45  LYS45       0.0206
     59  CE         5.4340  -32.7610    8.2410 C.3    45  LYS45       0.1093
     60  NZ         4.7670  -33.4690    9.3700 N.3    45  LYS45      -0.1314
     61  N          1.9500  -29.5360   11.9850 N.3    64  HIS64      -0.1241
     62  CA         3.3750  -29.4860   12.3450 C.3    64  HIS64       0.1621
     63  C          3.7030  -28.2260   13.1440 C.2    64  HIS64       0.2264
     64  O          4.5500  -28.2500   14.0270 O.2    64  HIS64      -0.2867
     65  CB         4.2800  -29.5670   11.1100 C.3    64  HIS64       0.0745
     66  CG         5.6680  -30.0150   11.4440 C.ar   64  HIS64       0.0817
     67  ND1        5.9340  -31.2700   11.9460 N.ar   64  HIS64      -0.2268
     68  CD2        6.8520  -29.3610   11.4180 C.ar   64  HIS64       0.1154
     69  CE1        7.2290  -31.3830   12.1860 C.ar   64  HIS64       0.1986
     70  NE2        7.8070  -30.2370   11.8750 N.ar   64  HIS64      -0.2212
     71  N          5.6940  -28.1760   16.6400 N.3    68  VAL68      -0.1245
     72  CA         6.8790  -27.3610   16.8800 C.3    68  VAL68       0.1561
     73  C          6.6970  -26.4460   18.0850 C.2    68  VAL68       0.2260
     74  O          7.5590  -26.3950   18.9670 O.2    68  VAL68      -0.2867
     75  CB         7.2340  -26.5450   15.6230 C.3    68  VAL68       0.0252
     76  CG1        8.3170  -25.5100   15.9220 C.3    68  VAL68       0.0019
     77  CG2        7.6670  -27.4900   14.5170 C.3    68  VAL68       0.0019
     78  N         17.7750  -32.6450   14.6940 N.3    93  HIS93      -0.1241
     79  CA        17.9240  -31.6010   13.6910 C.3    93  HIS93       0.1621
     80  C         19.3140  -31.5320   13.0850 C.2    93  HIS93       0.2264
     81  O         19.4530  -31.1940   11.9120 O.2    93  HIS93      -0.2867
     82  CB        17.5050  -30.2770   14.2830 C.3    93  HIS93       0.0745
     83  CG        16.0220  -30.1650   14.3960 C.ar   93  HIS93       0.0817
     84  ND1       15.2750  -31.0140   15.1870 N.ar   93  HIS93      -0.2268
     85  CD2       15.1410  -29.3630   13.7620 C.ar   93  HIS93       0.1154
     86  CE1       13.9970  -30.7060   15.0740 C.ar   93  HIS93       0.1986
     87  NE2       13.8910  -29.7120   14.2140 N.ar   93  HIS93      -0.2212
     88  N         17.6900  -34.2630   10.2670 N.3    97  HIS97      -0.1241
     89  CA        17.0920  -33.2320    9.4240 C.3    97  HIS97       0.1621
     90  C         18.1350  -32.3500    8.7560 C.2    97  HIS97       0.2264
     91  O         17.8580  -31.7170    7.7390 O.2    97  HIS97      -0.2867
     92  CB        16.1340  -32.3840   10.2500 C.3    97  HIS97       0.0745
     93  CG        15.1100  -33.1900   10.9850 C.ar   97  HIS97       0.0817
     94  ND1       14.4720  -34.2760   10.4210 N.ar   97  HIS97      -0.2268
     95  CD2       14.6290  -33.0830   12.2430 C.ar   97  HIS97       0.1154
     96  CE1       13.6380  -34.8000   11.3010 C.ar   97  HIS97       0.1986
     97  NE2       13.7080  -34.0890   12.4140 N.ar   97  HIS97      -0.2212
     98  N         19.7060  -29.4420    9.7980 N.3    99  ILE99      -0.1245
     99  CA        19.2960  -28.0480    9.8500 C.3    99  ILE99       0.1561
    100  C         20.4220  -27.1730   10.3800 C.2    99  ILE99       0.2260
    101  O         20.7460  -27.2500   11.5540 O.2    99  ILE99      -0.2867
    102  CB        18.0490  -27.8710   10.7610 C.3    99  ILE99       0.0252
    103  CG1       16.9390  -28.8440   10.3410 C.3    99  ILE99       0.0019
    104  CG2       17.5600  -26.4270   10.7310 C.3    99  ILE99       0.0019
    105  CD1       16.6080  -28.7730    8.8740 C.3    99  ILE99       0.0001
    106  N         19.2800  -21.4630   10.3170 N.3   103  TYR103     -0.1227
    107  CA        17.8240  -21.5710   10.1380 C.3   103  TYR103      0.1736
    108  C         17.0930  -21.4480   11.4630 C.2   103  TYR103      0.2595
    109  O         15.9230  -21.0570   11.5160 O.2   103  TYR103     -0.2718
    110  CB        17.4470  -22.8890    9.4720 C.3   103  TYR103      0.0548
    111  CG        17.9510  -23.0390    8.0550 C.ar  103  TYR103     -0.0200
    112  CD1       18.7230  -22.0520    7.4510 C.ar  103  TYR103     -0.0009
    113  CD2       17.6390  -24.1690    7.3190 C.ar  103  TYR103     -0.0009
    114  CE1       19.1760  -22.2000    6.1450 C.ar  103  TYR103      0.0417
    115  CE2       18.0840  -24.3260    6.0290 C.ar  103  TYR103      0.0417
    116  CZ        18.8560  -23.3470    5.4480 C.ar  103  TYR103      0.1957
    117  OH        19.2920  -23.5260    4.1570 O.3   103  TYR103     -0.2866
    118  N         17.7710  -21.7960   12.5460 N.am  104  LEU104     -0.1980
    119  CA        17.1850  -21.5840   13.8600 C.3   104  LEU104      0.1596
    120  C         17.1910  -20.0860   14.1940 C.2   104  LEU104      0.2287
    121  O         16.3100  -19.5810   14.9000 O.2   104  LEU104     -0.2864
    122  CB        17.9360  -22.4020   14.9120 C.3   104  LEU104      0.0297
    123  CG        17.8860  -23.8930   14.5870 C.3   104  LEU104      0.0022
    124  CD1       18.8770  -24.6740   15.4350 C.3   104  LEU104      0.0001
    125  CD2       16.4840  -24.4130   14.8030 C.3   104  LEU104      0.0001
    126  N         14.0970  -18.8170   12.3680 N.3   107  ILE107     -0.1245
    127  CA        12.7720  -19.1120   12.9180 C.3   107  ILE107      0.1561
    128  C         12.5820  -18.3270   14.2180 C.2   107  ILE107      0.2260
    129  O         11.4570  -17.9800   14.5840 O.2   107  ILE107     -0.2867
    130  CB        12.5490  -20.6360   13.1360 C.3   107  ILE107      0.0252
    131  CG1       11.0420  -20.9470   13.2520 C.3   107  ILE107      0.0019
    132  CG2       13.3220  -21.1390   14.3470 C.3   107  ILE107      0.0019
    133  CD1       10.7110  -22.4370   13.2150 C.3   107  ILE107      0.0001
@<TRIPOS>BOND
     1    50    49   ar
     2    47    46    2
     3    49    48    1
     4    49    51   ar
     5    46    45    1
     6    46    52   am
     7    45    48    1
     8    45    44    1
     9    36    35    2
    10    54    55    2
    11    54    53    1
    12    24    25    1
    13    53    52    1
    14    53    56    1
    15    44    35   am
    16    17    18    1
    17    35    34    1
    18    19    18    1
    19    19    20    2
    20   117   116    1
    21    33    34    1
    22    33    26   am
    23    25    26    1
    24    25    28    1
    25    18    21    1
    26    56    57    1
    27    34    37    1
    28    26    27    2
    29    32    31    1
    30    31    30    1
    31    37    38    1
    32    30    29    1
    33    22    21    1
    34    29    28    1
    35   116   115   ar
    36   116   114   ar
    37    12    11    2
    38    21    23    1
    39    57    58    1
    40   115   113   ar
    41   114   112   ar
    42    11    10    1
    43    38    39   ar
    44    38    40   ar
    45    39    41   ar
    46    58    59    1
    47   113   111   ar
    48   112   111   ar
    49     4     3    2
    50    40    42   ar
    51    41    43   ar
    52    91    90    2
    53    10     9    1
    54    10    13    1
    55   111   110    1
    56    59    60    1
    57     3     2    1
    58    14    13    1
    59    14    15    1
    60    14    16    1
    61    42    43   ar
    62    90    89    1
    63   105   103    1
    64    89    92    1
    65    89    88    1
    66   110   107    1
    67     5     2    1
    68     5     6    1
    69     2     1    1
    70    98    99    1
    71    99   100    1
    72    99   102    1
    73   107   106    1
    74   107   108    1
    75    92    93    1
    76   103   102    1
    77   100   101    2
    78    94    93   ar
    79    94    96   ar
    80     7     6    1
    81   104   102    1
    82     8     6    1
    83    93    95   ar
    84    65    66    1
    85    65    62    1
    86    96    97   ar
    87    68    66   ar
    88    68    70   ar
    89    66    67   ar
    90   108   109    2
    91   108   118   am
    92    70    69   ar
    93    81    80    2
    94    67    69   ar
    95    61    62    1
    96    95    97   ar
    97    62    63    1
    98   126   127    1
    99   118   119    1
   100   127   130    1
   101   127   128    1
   102    80    79    1
   103   130   131    1
   104   130   132    1
   105    63    64    2
   106   133   131    1
   107    79    82    1
   108    79    78    1
   109    85    87   ar
   110    85    83   ar
   111   119   120    1
   112   119   122    1
   113   120   121    2
   114    87    86   ar
   115   128   129    2
   116    82    83    1
   117    83    84   ar
   118    77    75    1
   119   123   125    1
   120   123   122    1
   121   123   124    1
   122    86    84   ar
   123    75    76    1
   124    75    72    1
   125    71    72    1
   126    72    73    1
   127    73    74    2
