@<TRIPOS>MOLECULE
tmp/5cniA00.pdb
 108 102 0 0 0
SMALL
GASTEIGER

@<TRIPOS>ATOM
      1  N        185.9290   91.3290   34.0910 N.3    35  ARG35      -0.1245
      2  CA       185.8070   90.4590   32.9390 C.3    35  ARG35       0.1563
      3  C        184.6390   89.4580   33.0510 C.2    35  ARG35       0.2260
      4  O        184.3730   88.7320   32.0920 O.2    35  ARG35      -0.2867
      5  CB       187.1450   89.7950   32.6480 C.3    35  ARG35       0.0307
      6  CG       188.1860   90.7910   32.1630 C.3    35  ARG35       0.0489
      7  CD       189.5050   90.1060   31.8930 C.3    35  ARG35       0.2205
      8  NE       190.4670   90.9590   31.1980 N.pl3  35  ARG35      -0.0865
      9  CZ       191.6810   90.5690   30.8440 C.cat  35  ARG35       0.5346
     10  NH1      192.1050   89.3490   31.1440 N.pl3  35  ARG35       0.1354
     11  NH2      192.5040   91.4120   30.2310 N.pl3  35  ARG35       0.1354
     12  N        181.2250   92.3640   31.6050 N.3    39  ARG39      -0.1245
     13  CA       181.1190   91.7330   30.2960 C.3    39  ARG39       0.1563
     14  C        179.7700   91.1010   30.0710 C.2    39  ARG39       0.2260
     15  O        179.2140   91.2940   29.0010 O.2    39  ARG39      -0.2867
     16  CB       182.2570   90.7450   30.0540 C.3    39  ARG39       0.0307
     17  CG       183.4990   91.4090   29.5020 C.3    39  ARG39       0.0489
     18  CD       184.5490   90.3650   29.1720 C.3    39  ARG39       0.2205
     19  NE       185.8700   90.9580   29.0040 N.pl3  39  ARG39      -0.0865
     20  CZ       186.9840   90.2710   28.8020 C.cat  39  ARG39       0.5346
     21  NH1      186.9550   88.9430   28.7510 N.pl3  39  ARG39       0.1354
     22  NH2      188.1370   90.9020   28.6640 N.pl3  39  ARG39       0.1354
     23  N        185.5550   83.9430   26.9020 N.3    97  SER97      -0.1202
     24  CA       186.6620   84.8800   27.0600 C.3    97  SER97       0.2020
     25  C        187.9880   84.1930   26.8090 C.2    97  SER97       0.2619
     26  O        188.7140   84.5600   25.8850 O.2    97  SER97      -0.2717
     27  CB       186.6580   85.4670   28.4650 C.3    97  SER97       0.2103
     28  OG       185.5040   86.2640   28.6290 O.3    97  SER97      -0.2182
     29  N        188.3150   83.2160   27.6620 N.am   98  TYR98      -0.1961
     30  CA       189.5260   82.4190   27.6140 C.3    98  TYR98       0.1771
     31  C        189.4990   81.5490   26.3740 C.2    98  TYR98       0.2620
     32  O        188.4770   80.9250   26.0800 O.2    98  TYR98      -0.2715
     33  CB       189.5980   81.5330   28.8640 C.3    98  TYR98       0.0574
     34  CG       189.9200   82.2500   30.1520 C.ar   98  TYR98      -0.0198
     35  CD1      191.2310   82.5590   30.4890 C.ar   98  TYR98      -0.0009
     36  CD2      188.9140   82.6040   31.0460 C.ar   98  TYR98      -0.0009
     37  CE1      191.5420   83.2210   31.6750 C.ar   98  TYR98       0.0417
     38  CE2      189.2060   83.2920   32.2240 C.ar   98  TYR98       0.0417
     39  CZ       190.5300   83.5570   32.5620 C.ar   98  TYR98       0.1957
     40  OH       190.8450   84.1970   33.7550 O.3    98  TYR98      -0.2866
     41  N        190.6300   81.4920   25.6540 N.am   99  SER99      -0.1950
     42  CA       190.7760   80.6560   24.4330 C.3    99  SER99       0.1924
     43  C        190.5210   79.1580   24.6810 C.2    99  SER99       0.2314
     44  O        189.7560   78.5640   23.9390 O.2    99  SER99      -0.2863
     45  CB       192.1240   80.8810   23.7620 C.3    99  SER99       0.2116
     46  OG       192.0940   82.1020   23.0460 O.3    99  SER99      -0.2180
     47  N        186.6190   87.9450   23.1540 N.3   120  ALA120     -0.1231
     48  CA       187.9450   88.1470   23.7600 C.3   120  ALA120      0.1694
     49  C        188.9830   87.0600   23.4780 C.2   120  ALA120      0.2593
     50  O        190.1410   87.2710   23.8540 O.2   120  ALA120     -0.2718
     51  CB       187.7990   88.3370   25.2590 C.3   120  ALA120      0.0304
     52  N        188.5910   85.9020   22.8360 N.am  121  SER121     -0.1938
     53  CA       189.4970   84.7820   22.5670 C.3   121  SER121      0.2055
     54  C        190.3850   85.0790   21.4100 C.2   121  SER121      0.2643
     55  O        189.9090   85.1780   20.2810 O.2   121  SER121     -0.2714
     56  CB       188.7320   83.4850   22.3910 C.3   121  SER121      0.2130
     57  OG       188.1580   83.1280   23.6400 O.3   121  SER121     -0.2179
     58  N        191.6910   85.2590   21.6880 N.am  122  THR122     -0.1950
     59  CA       192.6380   85.7080   20.6600 C.3   122  THR122      0.1897
     60  C        193.5800   84.6570   20.1200 C.2   122  THR122      0.2313
     61  O        194.3280   84.9750   19.1870 O.2   122  THR122     -0.2863
     62  CB       193.4420   86.8770   21.1880 C.3   122  THR122      0.1794
     63  OG1      194.0430   86.4260   22.3980 O.3   122  THR122     -0.2208
     64  CG2      192.5940   88.1440   21.4400 C.3   122  THR122      0.0378
     65  N        196.2580   79.8090   24.4210 N.3   170  TYR170     -0.1241
     66  CA       196.5440   81.2340   24.3560 C.3   170  TYR170      0.1605
     67  C        198.0580   81.4900   24.5810 C.2   170  TYR170      0.2264
     68  O        198.7270   82.0780   23.7230 O.2   170  TYR170     -0.2867
     69  CB       195.6680   82.0250   25.3520 C.3   170  TYR170      0.0534
     70  CG       196.1320   83.4530   25.5810 C.ar  170  TYR170     -0.0201
     71  CD1      195.7790   84.4730   24.7000 C.ar  170  TYR170     -0.0009
     72  CD2      196.8890   83.7910   26.6990 C.ar  170  TYR170     -0.0009
     73  CE1      196.1470   85.7930   24.9390 C.ar  170  TYR170      0.0417
     74  CE2      197.2850   85.1030   26.9350 C.ar  170  TYR170      0.0417
     75  CZ       196.9250   86.1030   26.0460 C.ar  170  TYR170      0.1957
     76  OH       197.2900   87.4130   26.3020 O.3   170  TYR170     -0.2866
     77  N        197.6740   84.2810   31.1770 N.3   225  ARG225     -0.1245
     78  CA       196.3150   84.5190   31.6170 C.3   225  ARG225      0.1563
     79  C        196.4440   85.5350   32.7870 C.2   225  ARG225      0.2260
     80  O        197.5140   85.6040   33.4370 O.2   225  ARG225     -0.2867
     81  CB       195.6880   83.1900   32.1080 C.3   225  ARG225      0.0307
     82  CG       195.4640   82.1410   30.9910 C.3   225  ARG225      0.0489
     83  CD       195.2470   80.7510   31.5410 C.3   225  ARG225      0.2205
     84  NE       193.9680   80.6250   32.2390 N.pl3 225  ARG225     -0.0865
     85  CZ       192.8740   80.0840   31.7060 C.cat 225  ARG225      0.5346
     86  NH1      191.7500   80.0170   32.4090 N.pl3 225  ARG225      0.1354
     87  NH2      192.8830   79.6490   30.4500 N.pl3 225  ARG225      0.1354
     88  N        197.5510   90.9140   26.3130 N.3   249  ASP249     -0.1225
     89  CA       196.1960   91.3290   26.6960 C.3   249  ASP249      0.1805
     90  C        195.6350   90.6260   27.9390 C.2   249  ASP249      0.2598
     91  O        194.8230   91.2300   28.6410 O.2   249  ASP249     -0.2718
     92  CB       195.2470   91.2080   25.4960 C.3   249  ASP249      0.1424
     93  CG       194.8190   89.7950   25.1430 C.2   249  ASP249      0.3668
     94  OD1      195.7020   88.9780   24.7400 O.co2 249  ASP249     -0.2456
     95  OD2      193.6020   89.5350   25.1520 O.co2 249  ASP249     -0.2456
     96  N        196.0890   89.3950   28.2140 N.am  250  GLY250     -0.1957
     97  CA       195.7200   88.6220   29.4030 C.3   250  GLY250      0.1869
     98  C        195.8370   89.4920   30.6380 C.2   250  GLY250      0.2309
     99  O        194.8680   89.6730   31.3720 O.2   250  GLY250     -0.2863
    100  N        187.4570   95.2620   26.9240 N.3   330  LYS330     -0.1245
    101  CA       186.7910   94.5000   25.8690 C.3   330  LYS330      0.1561
    102  C        185.2550   94.6310   25.7900 C.2   330  LYS330      0.2260
    103  O        184.6500   93.9190   24.9770 O.2   330  LYS330     -0.2867
    104  CB       187.1770   93.0270   25.9810 C.3   330  LYS330      0.0271
    105  CG       188.2630   92.6100   25.0150 C.3   330  LYS330      0.0035
    106  CD       189.3730   91.9850   25.7650 C.3   330  LYS330      0.0206
    107  CE       190.3910   91.4050   24.8580 C.3   330  LYS330      0.1093
    108  NZ       191.6700   91.2920   25.5740 N.3   330  LYS330     -0.1314
@<TRIPOS>BOND
     1    61    60    2
     2    60    59    1
     3    55    54    2
     4    59    62    1
     5    59    58    1
     6    62    64    1
     7    62    63    1
     8    54    58   am
     9    54    53    1
    10    56    53    1
    11    56    57    1
    12    53    52    1
    13    52    49   am
    14    46    45    1
    15    47    48    1
    16    49    48    1
    17    49    50    2
    18    68    67    2
    19    48    51    1
    20    45    42    1
    21    44    43    2
    22    66    65    1
    23    66    67    1
    24    66    69    1
    25    42    43    1
    26    42    41    1
    27    71    73   ar
    28    71    70   ar
    29    94    93   ar
    30   107   108    1
    31   107   106    1
    32    73    75   ar
    33   103   102    2
    34   105   106    1
    35   105   104    1
    36    93    95   ar
    37    93    92    1
    38    69    70    1
    39    92    89    1
    40    70    72   ar
    41    41    31   am
    42   102   101    1
    43   101   104    1
    44   101   100    1
    45    26    25    2
    46    75    76    1
    47    75    74   ar
    48    32    31    2
    49    88    89    1
    50    31    30    1
    51    89    90    1
    52    72    74   ar
    53    25    24    1
    54    25    29   am
    55    23    24    1
    56    24    27    1
    57    30    29    1
    58    30    33    1
    59    90    96   am
    60    90    91    2
    61    96    97    1
    62    27    28    1
    63    22    20    1
    64    21    20    1
    65    20    19    2
    66    33    34    1
    67    15    14    2
    68    19    18    1
    69    18    17    1
    70    97    98    1
    71    17    16    1
    72    16    13    1
    73    14    13    1
    74    34    35   ar
    75    34    36   ar
    76    11     9    1
    77    13    12    1
    78    87    85    1
    79    35    37   ar
    80    98    99    2
    81     9    10    1
    82     9     8    2
    83    82    83    1
    84    82    81    1
    85    36    38   ar
    86    77    78    1
    87     8     7    1
    88    83    84    1
    89    78    81    1
    90    78    79    1
    91    37    39   ar
    92    85    84    2
    93    85    86    1
    94     7     6    1
    95     4     3    2
    96     6     5    1
    97    38    39   ar
    98    39    40    1
    99     5     2    1
   100    79    80    2
   101     2     3    1
   102     2     1    1
