@<TRIPOS>MOLECULE
tmp/5cnjB00.pdb
 123 117 0 0 0
SMALL
GASTEIGER

@<TRIPOS>ATOM
      1  N        -30.2020   41.1200  -12.0850 N.3    35  ARG35      -0.1245
      2  CA       -29.4190   40.4550  -13.1270 C.3    35  ARG35       0.1563
      3  C        -29.3490   38.8790  -12.9920 C.2    35  ARG35       0.2260
      4  O        -28.9560   38.1840  -13.9280 O.2    35  ARG35      -0.2867
      5  CB       -28.0220   41.0730  -13.2260 C.3    35  ARG35       0.0307
      6  CG       -28.0260   42.4390  -13.8550 C.3    35  ARG35       0.0489
      7  CD       -26.6450   42.9950  -14.1290 C.3    35  ARG35       0.2205
      8  NE       -26.7450   44.1320  -15.0540 N.pl3  35  ARG35      -0.0865
      9  CZ       -26.3210   45.3680  -14.8060 C.cat  35  ARG35       0.5346
     10  NH1      -25.7160   45.6530  -13.6580 N.pl3  35  ARG35       0.1354
     11  NH2      -26.4920   46.3290  -15.7090 N.pl3  35  ARG35       0.1354
     12  N        -33.5630   37.7210  -14.5650 N.3    39  ARG39      -0.1245
     13  CA       -33.1070   37.3120  -15.8970 C.3    39  ARG39       0.1563
     14  C        -33.3120   35.8250  -16.1730 C.2    39  ARG39       0.2260
     15  O        -33.6610   35.4540  -17.2930 O.2    39  ARG39      -0.2867
     16  CB       -31.6710   37.7430  -16.1600 C.3    39  ARG39       0.0307
     17  CG       -31.5860   39.1970  -16.5480 C.3    39  ARG39       0.0489
     18  CD       -30.1570   39.5090  -16.7970 C.3    39  ARG39       0.2205
     19  NE       -29.9080   40.9360  -16.9180 N.pl3  39  ARG39      -0.0865
     20  CZ       -28.7030   41.4450  -17.1540 C.cat  39  ARG39       0.5346
     21  NH1      -27.6460   40.6420  -17.2790 N.pl3  39  ARG39       0.1354
     22  NH2      -28.5440   42.7560  -17.2740 N.pl3  39  ARG39       0.1354
     23  N        -23.6510   36.8490  -19.0820 N.3   100  SER100     -0.1202
     24  CA       -24.0910   38.1760  -18.6940 C.3   100  SER100      0.2020
     25  C        -22.8630   39.0750  -18.9300 C.2   100  SER100      0.2619
     26  O        -22.8420   39.8600  -19.8660 O.2   100  SER100     -0.2717
     27  CB       -24.5240   38.2000  -17.2250 C.3   100  SER100      0.2103
     28  OG       -25.9350   38.2350  -17.1120 O.3   100  SER100     -0.2182
     29  N        -21.8250   38.8860  -18.1100 N.am  101  TYR101     -0.1961
     30  CA       -20.5500   39.5950  -18.1410 C.3   101  TYR101      0.1771
     31  C        -19.7390   39.0930  -19.3270 C.2   101  TYR101      0.2620
     32  O        -19.5590   37.8720  -19.4720 O.2   101  TYR101     -0.2715
     33  CB       -19.7530   39.2960  -16.8540 C.3   101  TYR101      0.0574
     34  CG       -20.4060   39.6970  -15.5500 C.ar  101  TYR101     -0.0198
     35  CD1      -21.4040   38.9130  -14.9770 C.ar  101  TYR101     -0.0009
     36  CD2      -19.9350   40.7830  -14.8210 C.ar  101  TYR101     -0.0009
     37  CE1      -21.9740   39.2490  -13.7510 C.ar  101  TYR101      0.0417
     38  CE2      -20.4780   41.1120  -13.5820 C.ar  101  TYR101      0.0417
     39  CZ       -21.5110   40.3530  -13.0560 C.ar  101  TYR101      0.1957
     40  OH       -22.0600   40.6870  -11.8320 O.3   101  TYR101     -0.2866
     41  N        -19.1960   40.0320  -20.1220 N.am  102  SER102     -0.1950
     42  CA       -18.3770   39.7640  -21.3140 C.3   102  SER102      0.1924
     43  C        -17.3050   38.7010  -21.0600 C.2   102  SER102      0.2314
     44  O        -17.1720   37.7940  -21.8710 O.2   102  SER102     -0.2863
     45  CB       -17.7130   41.0450  -21.8040 C.3   102  SER102      0.2116
     46  OG       -18.6120   41.9560  -22.4160 O.3   102  SER102     -0.2180
     47  N        -26.5260   40.0720  -22.7960 N.3   123  ALA123     -0.1231
     48  CA       -25.9210   41.1640  -22.0450 C.3   123  ALA123      0.1694
     49  C        -24.4910   41.5100  -22.3650 C.2   123  ALA123      0.2593
     50  O        -24.0690   42.6140  -22.0130 O.2   123  ALA123     -0.2718
     51  CB       -26.0070   40.8330  -20.5730 C.3   123  ALA123      0.0304
     52  N        -23.6970   40.5610  -22.9050 N.am  124  SER124     -0.1938
     53  CA       -22.2660   40.7890  -23.1840 C.3   124  SER124      0.2055
     54  C        -22.0310   41.7320  -24.3600 C.2   124  SER124      0.2643
     55  O        -22.4940   41.4780  -25.4740 O.2   124  SER124     -0.2714
     56  CB       -21.5360   39.4690  -23.3710 C.3   124  SER124      0.2130
     57  OG       -21.5360   38.7820  -22.1340 O.3   124  SER124     -0.2179
     58  N        -21.3130   42.8210  -24.1090 N.am  125  THR125     -0.1950
     59  CA       -21.1130   43.8300  -25.1440 C.3   125  THR125      0.1897
     60  C        -19.6530   44.1180  -25.5260 C.2   125  THR125      0.2313
     61  O        -19.4550   45.0350  -26.3200 O.2   125  THR125     -0.2863
     62  CB       -21.8240   45.1430  -24.7640 C.3   125  THR125      0.1794
     63  OG1      -21.4240   45.5240  -23.4400 O.3   125  THR125     -0.2208
     64  CG2      -23.3350   45.0600  -24.8800 C.3   125  THR125      0.0378
     65  N        -14.8870   43.9940  -20.9300 N.3   173  TYR173     -0.1241
     66  CA       -15.8710   45.0730  -21.1350 C.3   173  TYR173      0.1605
     67  C        -15.3320   46.5220  -20.9900 C.2   173  TYR173      0.2264
     68  O        -15.4250   47.2960  -21.9410 O.2   173  TYR173     -0.2867
     69  CB       -17.0630   44.8620  -20.1810 C.3   173  TYR173      0.0534
     70  CG       -18.0010   46.0400  -20.0220 C.ar  173  TYR173     -0.0201
     71  CD1      -18.9260   46.3550  -21.0100 C.ar  173  TYR173     -0.0009
     72  CD2      -18.0360   46.7760  -18.8370 C.ar  173  TYR173     -0.0009
     73  CE1      -19.8490   47.3820  -20.8340 C.ar  173  TYR173      0.0417
     74  CE2      -18.9380   47.8260  -18.6590 C.ar  173  TYR173      0.0417
     75  CZ       -19.8490   48.1190  -19.6580 C.ar  173  TYR173      0.1957
     76  OH       -20.7720   49.1150  -19.4850 O.3   173  TYR173     -0.2866
     77  N        -18.4160   48.7260  -14.1200 N.3   228  ARG228     -0.1231
     78  CA       -19.3980   47.7870  -13.5910 C.3   228  ARG228      0.1694
     79  C        -20.2590   48.5900  -12.6130 C.2   228  ARG228      0.2593
     80  O        -19.8830   49.7060  -12.2590 O.2   228  ARG228     -0.2718
     81  CB       -18.7160   46.5690  -12.9330 C.3   228  ARG228      0.0321
     82  CG       -17.9850   45.7090  -13.9480 C.3   228  ARG228      0.0489
     83  CD       -17.7040   44.2960  -13.4970 C.3   228  ARG228      0.2205
     84  NE       -17.0930   43.5430  -14.5960 N.pl3 228  ARG228     -0.0865
     85  CZ       -16.7450   42.2610  -14.5470 C.cat 228  ARG228      0.5346
     86  NH1      -16.2000   41.6740  -15.6080 N.pl3 228  ARG228      0.1354
     87  NH2      -16.9450   41.5520  -13.4410 N.pl3 228  ARG228      0.1354
     88  N        -21.4430   48.0880  -12.2580 N.am  229  SER229     -0.1938
     89  CA       -22.3800   48.7990  -11.3810 C.3   229  SER229      0.2055
     90  C        -21.7490   49.2260  -10.0700 C.2   229  SER229      0.2642
     91  O        -21.7130   50.4220   -9.7740 O.2   229  SER229     -0.2714
     92  CB       -23.6210   47.9530  -11.1220 C.3   229  SER229      0.2130
     93  OG       -24.2890   47.7160  -12.3430 O.3   229  SER229     -0.2179
     94  N        -21.2050   48.2520   -9.3290 N.am  230  GLU230     -0.1976
     95  CA       -20.5540   48.4160   -8.0380 C.3   230  GLU230      0.1602
     96  C        -19.2750   49.2510   -8.0870 C.2   230  GLU230      0.2287
     97  O        -18.8330   49.7170   -7.0430 O.2   230  GLU230     -0.2864
     98  CB       -20.3040   47.0620   -7.3560 C.3   230  GLU230      0.0415
     99  CG       -19.8710   45.9250   -8.2700 C.3   230  GLU230      0.1163
    100  CD       -20.9890   45.3200   -9.1000 C.2   230  GLU230      0.3649
    101  OE1      -20.9750   45.5450  -10.3290 O.co2 230  GLU230     -0.2457
    102  OE2      -21.9140   44.7000   -8.5250 O.co2 230  GLU230     -0.2457
    103  N        -23.6270   51.4620  -19.9440 N.3   252  ASP252     -0.1225
    104  CA       -24.7210   50.5620  -19.5650 C.3   252  ASP252      0.1805
    105  C        -24.5780   49.9090  -18.1760 C.2   252  ASP252      0.2598
    106  O        -25.5990   49.6480  -17.5370 O.2   252  ASP252     -0.2718
    107  CB       -24.9710   49.5010  -20.6530 C.3   252  ASP252      0.1424
    108  CG       -23.9820   48.3470  -20.6830 C.2   252  ASP252      0.3668
    109  OD1      -22.8140   48.5660  -21.0960 O.co2 252  ASP252     -0.2456
    110  OD2      -24.3790   47.2220  -20.3240 O.co2 252  ASP252     -0.2456
    111  N        -23.3480   49.6590  -17.7340 N.am  253  GLY253     -0.1957
    112  CA       -23.0410   49.1200  -16.4070 C.3   253  GLY253      0.1869
    113  C        -23.7370   49.8890  -15.3040 C.2   253  GLY253      0.2309
    114  O        -24.4540   49.2940  -14.5010 O.2   253  GLY253     -0.2863
    115  N        -32.4310   44.8130  -19.3190 N.3   334  LYS334     -0.1245
    116  CA       -32.1260   43.8530  -20.3690 C.3   334  LYS334      0.1561
    117  C        -33.0740   42.6350  -20.4360 C.2   334  LYS334      0.2260
    118  O        -32.7310   41.6540  -21.0990 O.2   334  LYS334     -0.2867
    119  CB       -30.6510   43.4060  -20.2520 C.3   334  LYS334      0.0271
    120  CG       -29.6700   44.5570  -20.3860 C.3   334  LYS334      0.0035
    121  CD       -28.2530   44.0680  -20.6650 C.3   334  LYS334      0.0206
    122  CE       -27.2530   45.1670  -20.9980 C.3   334  LYS334      0.1093
    123  NZ       -26.7810   45.8820  -19.7760 N.3   334  LYS334     -0.1314
@<TRIPOS>BOND
     1    61    60    2
     2    60    59    1
     3    55    54    2
     4    59    62    1
     5    59    58    1
     6    64    62    1
     7    62    63    1
     8    54    58   am
     9    54    53    1
    10    56    53    1
    11    56    57    1
    12    53    52    1
    13    52    49   am
    14    47    48    1
    15    46    45    1
    16    49    48    1
    17    49    50    2
    18    48    51    1
    19    68    67    2
    20    44    43    2
    21    45    42    1
    22    42    43    1
    23    42    41    1
    24    66    67    1
    25    66    65    1
    26    66    69    1
    27   118   117    2
    28   109   108   ar
    29    71    73   ar
    30    71    70   ar
    31   122   121    1
    32   122   123    1
    33    73    75   ar
    34   108   107    1
    35   108   110   ar
    36   121   120    1
    37   107   104    1
    38   117   116    1
    39   120   119    1
    40   116   119    1
    41   116   115    1
    42    69    70    1
    43    41    31   am
    44    70    72   ar
    45   103   104    1
    46    26    25    2
    47    75    76    1
    48    75    74   ar
    49   104   105    1
    50    32    31    2
    51    31    30    1
    52    23    24    1
    53    25    24    1
    54    25    29   am
    55    72    74   ar
    56    24    27    1
    57   105   111   am
    58   105   106    2
    59    30    29    1
    60    30    33    1
    61   111   112    1
    62    15    14    2
    63    21    20    1
    64    22    20    1
    65    27    28    1
    66    20    19    2
    67    19    18    1
    68    33    34    1
    69    18    17    1
    70    17    16    1
    71   112   113    1
    72    14    13    1
    73    16    13    1
    74    13    12    1
    75    11     9    1
    76    86    85    1
    77    34    35   ar
    78    34    36   ar
    79   113   114    2
    80     8     9    2
    81     8     7    1
    82    35    37   ar
    83    36    38   ar
    84     9    10    1
    85    84    85    2
    86    84    83    1
    87    85    87    1
    88     7     6    1
    89    77    78    1
    90    82    83    1
    91    82    81    1
    92     4     3    2
    93     6     5    1
    94    37    39   ar
    95    78    81    1
    96    78    79    1
    97    38    39   ar
    98     5     2    1
    99     2     3    1
   100     2     1    1
   101    39    40    1
   102    79    80    2
   103    79    88   am
   104    93    92    1
   105    88    89    1
   106    89    92    1
   107    89    90    1
   108   101   100   ar
   109    90    91    2
   110    90    94   am
   111    94    95    1
   112   100   102   ar
   113   100    99    1
   114    99    98    1
   115    96    95    1
   116    96    97    2
   117    95    98    1
