@<TRIPOS>MOLECULE
tmp/5cnlA00.pdb
 110 104 0 0 0
SMALL
GASTEIGER

@<TRIPOS>ATOM
      1  N         34.9300   10.2490   17.0450 N.3    20  TYR20      -0.1241
      2  CA        35.9280   11.0320   17.7660 C.3    20  TYR20       0.1605
      3  C         36.5430   10.2380   18.9620 C.2    20  TYR20       0.2264
      4  O         37.0420   10.8220   19.9350 O.2    20  TYR20      -0.2867
      5  CB        35.3250   12.3700   18.2020 C.3    20  TYR20       0.0534
      6  CG        35.0760   13.3060   17.0330 C.ar   20  TYR20      -0.0201
      7  CD1       36.0880   14.1230   16.5410 C.ar   20  TYR20      -0.0009
      8  CD2       33.8310   13.3630   16.4100 C.ar   20  TYR20      -0.0009
      9  CE1       35.8670   14.9810   15.4590 C.ar   20  TYR20       0.0417
     10  CE2       33.5950   14.2180   15.3280 C.ar   20  TYR20       0.0417
     11  CZ        34.6180   15.0240   14.8510 C.ar   20  TYR20       0.1957
     12  OH        34.3740   15.8800   13.7870 O.3    20  TYR20      -0.2866
     13  N         34.0780   11.9240    4.5800 N.3    45  TYR45      -0.1241
     14  CA        34.5960   12.1170    5.9190 C.3    45  TYR45       0.1605
     15  C         36.1100   11.8960    5.9490 C.2    45  TYR45       0.2264
     16  O         36.8360   12.7740    6.4350 O.2    45  TYR45      -0.2867
     17  CB        33.8630   11.2290    6.9460 C.3    45  TYR45       0.0534
     18  CG        34.5330   11.2660    8.3030 C.ar   45  TYR45      -0.0201
     19  CD1       34.4430   12.3970    9.1160 C.ar   45  TYR45      -0.0009
     20  CD2       35.3600   10.2280    8.7210 C.ar   45  TYR45      -0.0009
     21  CE1       35.1470   12.4800   10.3190 C.ar   45  TYR45       0.0417
     22  CE2       36.0620   10.2980    9.9230 C.ar   45  TYR45       0.0417
     23  CZ        35.9580   11.4290   10.7170 C.ar   45  TYR45       0.1957
     24  OH        36.6530   11.4860   11.8960 O.3    45  TYR45      -0.2866
     25  N         38.0640   14.6800    4.3170 N.3    48  ALA48      -0.1231
     26  CA        38.1230   15.8190    5.2320 C.3    48  ALA48       0.1694
     27  C         39.1290   15.5990    6.3780 C.2    48  ALA48       0.2591
     28  O         39.9600   16.4780    6.6330 O.2    48  ALA48      -0.2718
     29  CB        36.7390   16.1000    5.7940 C.3    48  ALA48       0.0304
     30  N         39.0690   14.4160    7.0300 N.am   49  LEU49      -0.1980
     31  CA        39.9390   14.0210    8.1410 C.3    49  LEU49       0.1596
     32  C         41.4340   14.0020    7.7340 C.2    49  LEU49       0.2287
     33  O         42.2700   14.4820    8.4950 O.2    49  LEU49      -0.2864
     34  CB        39.4990   12.6410    8.6680 C.3    49  LEU49       0.0297
     35  CG        40.3140   11.9830    9.7940 C.3    49  LEU49       0.0022
     36  CD1       40.1890   12.7570   11.0990 C.3    49  LEU49       0.0001
     37  CD2       39.8780   10.5450   10.0140 C.3    49  LEU49       0.0001
     38  N         42.6630   17.6260    6.8970 N.3    52  SER52      -0.1217
     39  CA        42.7870   18.4360    8.1250 C.3    52  SER52       0.1889
     40  C         44.1410   18.1760    8.7890 C.2    52  SER52       0.2288
     41  O         44.5750   18.9410    9.6560 O.2    52  SER52      -0.2866
     42  CB        41.6580   18.1200    9.0970 C.3    52  SER52       0.2089
     43  OG        41.9080   16.8920    9.7580 O.3    52  SER52      -0.2183
     44  N         44.8020   15.9520   10.8640 N.3    54  LEU54      -0.1245
     45  CA        44.5700   15.4920   12.2340 C.3    54  LEU54       0.1561
     46  C         45.3140   14.1410   12.4750 C.2    54  LEU54       0.2260
     47  O         45.9820   14.0410   13.5060 O.2    54  LEU54      -0.2867
     48  CB        43.0540   15.3790   12.5460 C.3    54  LEU54       0.0270
     49  CG        42.6300   14.7630   13.8960 C.3    54  LEU54       0.0019
     50  CD1       43.3150   15.4590   15.0670 C.3    54  LEU54       0.0001
     51  CD2       41.1120   14.8300   14.1050 C.3    54  LEU54       0.0001
     52  N         42.0250   15.9350   23.2130 N.3    92  TYR92      -0.1241
     53  CA        43.2250   15.3420   22.6360 C.3    92  TYR92       0.1605
     54  C         44.2180   15.3130   23.7720 C.2    92  TYR92       0.2264
     55  O         44.7340   16.3570   24.1890 O.2    92  TYR92      -0.2867
     56  CB        43.7090   16.1520   21.4250 C.3    92  TYR92       0.0534
     57  CG        42.6580   16.3820   20.3600 C.ar   92  TYR92      -0.0201
     58  CD1       41.8260   17.4870   20.4090 C.ar   92  TYR92      -0.0009
     59  CD2       42.5830   15.5600   19.2380 C.ar   92  TYR92      -0.0009
     60  CE1       40.8850   17.7320   19.4090 C.ar   92  TYR92       0.0417
     61  CE2       41.6490   15.8000   18.2240 C.ar   92  TYR92       0.0417
     62  CZ        40.8040   16.8910   18.3120 C.ar   92  TYR92       0.1957
     63  OH        39.8950   17.1500   17.3120 O.3    92  TYR92      -0.2866
     64  N         38.5540   21.0210   22.4020 N.3   101  GLN101     -0.1245
     65  CA        37.8570   21.6860   21.3110 C.3   101  GLN101      0.1566
     66  C         36.3580   21.4100   21.3680 C.2   101  GLN101      0.2260
     67  O         35.9540   20.2780   21.5970 O.2   101  GLN101     -0.2867
     68  CB        38.4350   21.2240   19.9720 C.3   101  GLN101      0.0367
     69  CG        38.1360   22.1560   18.8180 C.3   101  GLN101      0.0905
     70  CD        38.8770   21.7640   17.5580 C.2   101  GLN101      0.2608
     71  OE1       39.3570   22.6360   16.8120 O.2   101  GLN101     -0.2717
     72  NE2       38.9740   20.4450   17.2790 N.am  101  GLN101     -0.0878
     73  N         32.9050   21.4550   19.1470 N.3   103  LEU103     -0.1245
     74  CA        32.4530   21.3430   17.7600 C.3   103  LEU103      0.1561
     75  C         30.9560   21.2020   17.6400 C.2   103  LEU103      0.2260
     76  O         30.3360   20.5650   18.4920 O.2   103  LEU103     -0.2867
     77  CB        33.0960   20.1110   17.0930 C.3   103  LEU103      0.0270
     78  CG        34.6110   19.9320   17.1910 C.3   103  LEU103      0.0019
     79  CD1       35.0420   18.6470   16.5370 C.3   103  LEU103      0.0001
     80  CD2       35.3530   21.0640   16.5180 C.3   103  LEU103      0.0001
     81  N         28.8750   13.8310    7.7290 N.3   126  LEU126     -0.1231
     82  CA        29.3240   14.3000    9.0230 C.3   126  LEU126      0.1693
     83  C         30.0950   15.5760    8.7740 C.2   126  LEU126      0.2592
     84  O         31.1130   15.5760    8.0660 O.2   126  LEU126     -0.2718
     85  CB        30.1740   13.2620    9.7610 C.3   126  LEU126      0.0284
     86  CG        30.3200   13.4710   11.2840 C.3   126  LEU126      0.0019
     87  CD1       30.6680   12.1510   11.9880 C.3   126  LEU126      0.0001
     88  CD2       31.3740   14.5150   11.6050 C.3   126  LEU126      0.0001
     89  N         29.5620   16.6710    9.2990 N.am  127  GLN127     -0.1966
     90  CA        30.1730   17.9690    9.1820 C.3   127  GLN127      0.1733
     91  C         30.3590   18.5590   10.5470 C.2   127  GLN127      0.2617
     92  O         29.4250   18.5860   11.3340 O.2   127  GLN127     -0.2715
     93  CB        29.3300   18.8740    8.3030 C.3   127  GLN127      0.0408
     94  CG        29.4410   18.5150    6.8320 C.3   127  GLN127      0.0908
     95  CD        28.6340   19.4530    5.9960 C.2   127  GLN127      0.2608
     96  OE1       27.3890   19.5080    6.0980 O.2   127  GLN127     -0.2717
     97  NE2       29.3410   20.2300    5.1720 N.am  127  GLN127     -0.0878
     98  N         31.5740   18.9880   10.8570 N.am  128  SER128     -0.1936
     99  CA        31.8430   19.5750   12.1470 C.3   128  SER128      0.2055
    100  C         32.5020   20.9160   11.9820 C.2   128  SER128      0.2643
    101  O         33.4160   21.0820   11.1760 O.2   128  SER128     -0.2714
    102  CB        32.6850   18.6460   13.0120 C.3   128  SER128      0.2130
    103  OG        33.9390   18.3710   12.4140 O.3   128  SER128     -0.2179
    104  N         31.9750   21.8990   12.6940 N.am  129  THR129     -0.1950
    105  CA        32.5100   23.2460   12.6730 C.3   129  THR129      0.1897
    106  C         32.8720   23.6160   14.1200 C.2   129  THR129      0.2313
    107  O         32.0930   23.3000   15.0290 O.2   129  THR129     -0.2863
    108  CB        31.5390   24.2460   12.0020 C.3   129  THR129      0.1794
    109  OG1       30.5150   24.6380   12.9090 O.3   129  THR129     -0.2208
    110  CG2       30.9120   23.7060   10.7410 C.3   129  THR129      0.0378
@<TRIPOS>BOND
     1    25    26    1
     2    13    14    1
     3    97    95   am
     4    26    29    1
     5    26    27    1
     6    14    15    1
     7    14    17    1
     8    15    16    2
     9    95    96    2
    10    95    94    1
    11    27    28    2
    12    27    30   am
    13    94    93    1
    14    38    39    1
    15    17    18    1
    16    30    31    1
    17    81    82    1
    18    32    31    1
    19    32    33    2
    20    84    83    2
    21    39    40    1
    22    39    42    1
    23    31    34    1
    24    93    90    1
    25    18    20   ar
    26    18    19   ar
    27    34    35    1
    28    20    22   ar
    29    83    82    1
    30    83    89   am
    31    40    41    2
    32    82    85    1
    33    42    43    1
    34    19    21   ar
    35    90    89    1
    36    90    91    1
    37    85    86    1
    38    35    37    1
    39    35    36    1
    40    22    23   ar
    41    21    23   ar
    42    91    98   am
    43    91    92    2
    44    23    24    1
    45   110   108    1
    46    98    99    1
    47    44    45    1
    48   101   100    2
    49    86    88    1
    50    86    87    1
    51   100    99    1
    52   100   104   am
    53   108   105    1
    54   108   109    1
    55    99   102    1
    56    45    46    1
    57    45    48    1
    58   103   102    1
    59    46    47    2
    60    48    49    1
    61   105   104    1
    62   105   106    1
    63    12    11    1
    64    49    51    1
    65    49    50    1
    66   106   107    2
    67    11    10   ar
    68    11     9   ar
    69    10     8   ar
    70     9     7   ar
    71     8     6   ar
    72    80    78    1
    73    79    78    1
    74     7     6   ar
    75    71    70    2
    76     6     5    1
    77     1     2    1
    78    77    78    1
    79    77    74    1
    80    72    70   am
    81    63    62    1
    82    70    69    1
    83    75    74    1
    84    75    76    2
    85    74    73    1
    86     2     5    1
    87     2     3    1
    88    61    62   ar
    89    61    59   ar
    90    62    60   ar
    91    69    68    1
    92     3     4    2
    93    59    57   ar
    94    60    58   ar
    95    68    65    1
    96    57    58   ar
    97    57    56    1
    98    65    66    1
    99    65    64    1
   100    66    67    2
   101    56    53    1
   102    53    52    1
   103    53    54    1
   104    54    55    2
