@<TRIPOS>MOLECULE
tmp/5cnlA02.pdb
 77 73 0 0 0
SMALL
GASTEIGER

@<TRIPOS>ATOM
      1  N         29.3250    4.4380    8.6290 N.3    37  PHE37      -0.1227
      2  CA        29.1080    5.2360    7.4320 C.3    37  PHE37       0.1736
      3  C         28.6680    4.4530    6.1880 C.2    37  PHE37       0.2596
      4  O         28.9020    3.2460    6.0430 O.2    37  PHE37      -0.2718
      5  CB        30.4140    5.9850    7.0790 C.3    37  PHE37       0.0547
      6  CG        30.8720    7.0040    8.1000 C.ar   37  PHE37      -0.0202
      7  CD1       31.4180    6.5990    9.3240 C.ar   37  PHE37      -0.0042
      8  CD2       30.8010    8.3650    7.8270 C.ar   37  PHE37      -0.0042
      9  CE1       31.8430    7.5370   10.2620 C.ar   37  PHE37      -0.0003
     10  CE2       31.2340    9.3060    8.7650 C.ar   37  PHE37      -0.0003
     11  CZ        31.7520    8.8850    9.9730 C.ar   37  PHE37      -0.0000
     12  N         28.0660    5.2000    5.2560 N.am   38  SER38      -0.1938
     13  CA        27.7300    4.7580    3.9150 C.3    38  SER38       0.2055
     14  C         29.0170    4.8930    3.1200 C.2    38  SER38       0.2643
     15  O         29.9160    5.6450    3.5300 O.2    38  SER38      -0.2714
     16  CB        26.6140    5.6170    3.3270 C.3    38  SER38       0.2130
     17  OG        27.0540    6.9440    3.0720 O.3    38  SER38      -0.2179
     18  N         29.1380    4.1750    2.0040 N.am   39  ALA39      -0.1963
     19  CA        30.3580    4.2430    1.2110 C.3    39  ALA39       0.1728
     20  C         30.6980    5.6960    0.8650 C.2    39  ALA39       0.2616
     21  O         31.8200    6.1230    1.1270 O.2    39  ALA39      -0.2715
     22  CB        30.2210    3.3970   -0.0490 C.3    39  ALA39       0.0334
     23  N         29.7120    6.4690    0.3660 N.am   40  ASP40      -0.1971
     24  CA        29.9230    7.8650   -0.0120 C.3    40  ASP40       0.1709
     25  C         30.1920    8.7380    1.2160 C.2    40  ASP40       0.2293
     26  O         31.0610    9.6200    1.1610 O.2    40  ASP40      -0.2864
     27  CB        28.7440    8.3980   -0.8270 C.3    40  ASP40       0.1436
     28  CG        28.6460    7.7740   -2.2190 C.2    40  ASP40       0.3671
     29  OD1       29.6410    7.8350   -2.9750 O.co2  40  ASP40      -0.2456
     30  OD2       27.5860    7.1970   -2.5400 O.co2  40  ASP40      -0.2456
     31  N         20.8110    7.7300    7.4250 N.3   110  THR110     -0.1203
     32  CA        19.7070    7.0180    6.8040 C.3   110  THR110      0.1994
     33  C         19.6600    5.5540    7.2480 C.2   110  THR110      0.2618
     34  O         20.5290    5.0980    8.0100 O.2   110  THR110     -0.2717
     35  CB        19.8670    7.1330    5.2540 C.3   110  THR110      0.1784
     36  OG1       18.6850    6.6980    4.6200 O.3   110  THR110     -0.2211
     37  CG2       21.0470    6.3270    4.7040 C.3   110  THR110      0.0376
     38  N         18.6410    4.8150    6.7480 N.am  111  VAL111     -0.1965
     39  CA        18.5080    3.3700    6.9360 C.3   111  VAL111      0.1727
     40  C         19.6630    2.7350    6.1210 C.2   111  VAL111      0.2616
     41  O         19.8160    3.0430    4.9460 O.2   111  VAL111     -0.2715
     42  CB        17.1010    2.8820    6.4980 C.3   111  VAL111      0.0290
     43  CG1       17.0450    1.3600    6.4120 C.3   111  VAL111      0.0023
     44  CG2       16.0270    3.4140    7.4500 C.3   111  VAL111      0.0023
     45  N         20.5110    1.9340    6.7640 N.am  112  ALA112     -0.1963
     46  CA        21.6740    1.3200    6.1150 C.3   112  ALA112      0.1728
     47  C         21.2920    0.3540    4.9820 C.2   112  ALA112      0.2616
     48  O         20.2300   -0.2800    4.9910 O.2   112  ALA112     -0.2715
     49  CB        22.5180    0.5800    7.1460 C.3   112  ALA112      0.0334
     50  N         22.2030    0.2340    4.0190 N.am  113  SER113     -0.1950
     51  CA        22.0340   -0.6790    2.9200 C.3   113  SER113      0.1924
     52  C         22.4730   -2.1010    3.3670 C.2   113  SER113      0.2314
     53  O         23.2260   -2.2100    4.3370 O.2   113  SER113     -0.2863
     54  CB        22.8180   -0.1720    1.7190 C.3   113  SER113      0.2116
     55  OG        24.0890   -0.7720    1.5350 O.3   113  SER113     -0.2180
     56  N         25.7120   -3.2450    5.3780 N.3   116  GLN116     -0.1245
     57  CA        26.4070   -2.0230    5.7380 C.3   116  GLN116      0.1566
     58  C         25.7580   -1.3370    6.9590 C.2   116  GLN116      0.2260
     59  O         24.7210   -1.7750    7.4590 O.2   116  GLN116     -0.2867
     60  CB        26.4810   -1.0890    4.5280 C.3   116  GLN116      0.0367
     61  CG        27.1250   -1.7210    3.2740 C.3   116  GLN116      0.0905
     62  CD        28.5560   -2.1800    3.4850 C.2   116  GLN116      0.2608
     63  OE1       29.4710   -1.3730    3.7180 O.2   116  GLN116     -0.2717
     64  NE2       28.7830   -3.4950    3.3960 N.am  116  GLN116     -0.0878
     65  N         23.2630    4.1690    8.6590 N.3   122  SER122     -0.1217
     66  CA        24.4890    4.6150    8.0210 C.3   122  SER122      0.1889
     67  C         24.5790    6.1270    8.0290 C.2   122  SER122      0.2288
     68  O         23.5780    6.8020    7.7840 O.2   122  SER122     -0.2866
     69  CB        24.5340    4.1170    6.5810 C.3   122  SER122      0.2089
     70  OG        25.0010    2.7850    6.5240 O.3   122  SER122     -0.2183
     71  N         25.4480    9.3860    6.2780 N.3   124  THR124     -0.1218
     72  CA        25.5590    9.8230    4.8850 C.3   124  THR124      0.1862
     73  C         26.4770   11.0390    4.8000 C.2   124  THR124      0.2287
     74  O         27.1040   11.2410    3.7660 O.2   124  THR124     -0.2866
     75  CB        24.2000   10.0870    4.2550 C.3   124  THR124      0.1770
     76  OG1       23.5410   11.1690    4.9150 O.3   124  THR124     -0.2211
     77  CG2       23.3300    8.8610    4.2530 C.3   124  THR124      0.0375
@<TRIPOS>BOND
     1    29    28   ar
     2    30    28   ar
     3    28    27    1
     4    27    24    1
     5    22    19    1
     6    24    23    1
     7    24    25    1
     8    23    20   am
     9    20    21    2
    10    20    19    1
    11    26    25    2
    12    19    18    1
    13    55    54    1
    14    54    51    1
    15    18    14   am
    16    51    52    1
    17    51    50    1
    18    17    16    1
    19    14    15    2
    20    14    13    1
    21    61    62    1
    22    61    60    1
    23    16    13    1
    24    52    53    2
    25    64    62   am
    26    62    63    2
    27    74    73    2
    28    13    12    1
    29    50    47   am
    30    77    75    1
    31    75    72    1
    32    75    76    1
    33    60    57    1
    34    36    35    1
    35    37    35    1
    36    73    72    1
    37    72    71    1
    38    41    40    2
    39    47    48    2
    40    47    46    1
    41    35    32    1
    42    12     3   am
    43    56    57    1
    44    57    58    1
    45     4     3    2
    46    46    45    1
    47    46    49    1
    48    40    45   am
    49    40    39    1
    50     3     2    1
    51    43    42    1
    52    42    39    1
    53    42    44    1
    54    70    69    1
    55    69    66    1
    56    38    39    1
    57    38    33   am
    58    32    33    1
    59    32    31    1
    60    58    59    2
    61     5     2    1
    62     5     6    1
    63    33    34    2
    64     2     1    1
    65    68    67    2
    66     8     6   ar
    67     8    10   ar
    68    66    67    1
    69    66    65    1
    70     6     7   ar
    71    10    11   ar
    72     7     9   ar
    73    11     9   ar
