@<TRIPOS>MOLECULE
tmp/5cnmA00.pdb
 112 105 0 0 0
SMALL
GASTEIGER

@<TRIPOS>ATOM
      1  N          5.9230   26.2130    9.5010 N.3    35  ARG35      -0.1245
      2  CA         6.0220   24.8170    9.8890 C.3    35  ARG35       0.1563
      3  C          6.0080   23.8710    8.6830 C.2    35  ARG35       0.2260
      4  O          6.3680   22.6940    8.8060 O.2    35  ARG35      -0.2867
      5  CB         4.8600   24.4860   10.8100 C.3    35  ARG35       0.0307
      6  CG         5.0040   25.0450   12.1980 C.3    35  ARG35       0.0489
      7  CD         3.7380   24.7280   12.9530 C.3    35  ARG35       0.2205
      8  NE         3.7790   25.2000   14.3340 N.pl3  35  ARG35      -0.0865
      9  CZ         2.7000   25.3870   15.0840 C.cat  35  ARG35       0.5346
     10  NH1        2.8200   25.8150   16.3340 N.pl3  35  ARG35       0.1354
     11  NH2        1.4890   25.1520   14.5890 N.pl3  35  ARG35       0.1354
     12  N         10.2780   24.1650    7.0400 N.3    39  ARG39      -0.1245
     13  CA        10.7100   22.8840    7.5950 C.3    39  ARG39       0.1563
     14  C         11.0030   21.8860    6.4890 C.2    39  ARG39       0.2260
     15  O         11.9990   21.1700    6.5590 O.2    39  ARG39      -0.2867
     16  CB         9.6740   22.3590    8.5770 C.3    39  ARG39       0.0307
     17  CG         9.5830   23.2120    9.8210 C.3    39  ARG39       0.0489
     18  CD         8.8490   22.4620   10.9100 C.3    39  ARG39       0.2205
     19  NE         8.6870   23.3070   12.0830 N.pl3  39  ARG39      -0.0865
     20  CZ         7.8010   23.0950   13.0400 C.cat  39  ARG39       0.5346
     21  NH1        7.7280   23.9170   14.0750 N.pl3  39  ARG39       0.1354
     22  NH2        6.9830   22.0580   12.9740 N.pl3  39  ARG39       0.1354
     23  N          5.2850   16.9060   12.2870 N.3   100  SER100     -0.1202
     24  CA         5.3540   18.0620   13.1850 C.3   100  SER100      0.2020
     25  C          4.5310   17.7660   14.4440 C.2   100  SER100      0.2619
     26  O          5.1020   17.5160   15.5230 O.2   100  SER100     -0.2717
     27  CB         4.8090   19.3050   12.5040 C.3   100  SER100      0.2103
     28  OG         5.8550   19.9410   11.8000 O.3   100  SER100     -0.2182
     29  N          3.1780   17.7630   14.2760 N.am  101  TYR101     -0.1961
     30  CA         2.2080   17.5150   15.3340 C.3   101  TYR101      0.1771
     31  C          2.3260   16.1160   15.8730 C.2   101  TYR101      0.2620
     32  O          2.5840   15.1840   15.0940 O.2   101  TYR101     -0.2715
     33  CB         0.7960   17.7610   14.8180 C.3   101  TYR101      0.0574
     34  CG         0.5910   19.1440   14.2480 C.ar  101  TYR101     -0.0198
     35  CD1        0.4480   20.2560   15.0850 C.ar  101  TYR101     -0.0009
     36  CD2        0.5360   19.3480   12.8760 C.ar  101  TYR101     -0.0009
     37  CE1        0.3150   21.5390   14.5620 C.ar  101  TYR101      0.0417
     38  CE2        0.3540   20.6240   12.3420 C.ar  101  TYR101      0.0417
     39  CZ         0.2260   21.7140   13.1870 C.ar  101  TYR101      0.1957
     40  OH         0.0020   22.9480   12.6200 O.3   101  TYR101     -0.2866
     41  N          2.1580   15.9560   17.2090 N.am  102  SER102     -0.1950
     42  CA         2.2890   14.6320   17.8260 C.3   102  SER102      0.1924
     43  C          1.2020   13.6660   17.4040 C.2   102  SER102      0.2314
     44  O          1.4660   12.4730   17.3040 O.2   102  SER102     -0.2863
     45  CB         2.3500   14.7250   19.3390 C.3   102  SER102      0.2116
     46  OG         3.2430   15.7460   19.7400 O.3   102  SER102     -0.2180
     47  N          9.7020   17.9570   15.8250 N.3   123  ALA123     -0.1231
     48  CA         8.7700   18.8510   16.5080 C.3   123  ALA123      0.1694
     49  C          7.8160   18.2110   17.5020 C.2   123  ALA123      0.2593
     50  O          7.3700   18.9160   18.4020 O.2   123  ALA123     -0.2718
     51  CB         8.0070   19.6850   15.4910 C.3   123  ALA123      0.0304
     52  N          7.4930   16.8990   17.3610 N.am  124  SER124     -0.1938
     53  CA         6.5330   16.1820   18.2160 C.3   124  SER124      0.2055
     54  C          7.0920   15.9420   19.5860 C.2   124  SER124      0.2644
     55  O          8.0230   15.1570   19.7780 O.2   124  SER124     -0.2714
     56  CB         6.0880   14.8880   17.5650 C.3   124  SER124      0.2130
     57  OG         5.4230   15.1650   16.3440 O.3   124  SER124     -0.2179
     58  N          6.5100   16.6320   20.5490 N.am  125  THR125     -0.1936
     59  CA         6.9530   16.6670   21.9330 C.3   125  THR125      0.2028
     60  C          6.0820   15.8830   22.9230 C.2   125  THR125      0.2642
     61  O          6.4490   15.7840   24.0890 O.2   125  THR125     -0.2714
     62  CB         7.1640   18.1220   22.3120 C.3   125  THR125      0.1808
     63  OG1        6.0030   18.8350   21.9080 O.3   125  THR125     -0.2208
     64  CG2        8.3340   18.7460   21.5990 C.3   125  THR125      0.0379
     65  N          4.9820   15.2620   22.4760 N.am  126  SER126     -0.1949
     66  CA         4.1480   14.4890   23.4020 C.3   126  SER126      0.1924
     67  C          4.9120   13.4110   24.1320 C.2   126  SER126      0.2314
     68  O          5.8130   12.7790   23.5610 O.2   126  SER126     -0.2863
     69  CB         2.9540   13.8640   22.6990 C.3   126  SER126      0.2116
     70  OG         2.4000   12.8620   23.5390 O.3   126  SER126     -0.2180
     71  N          7.9600   17.3840   26.0890 N.3   145  ASP145     -0.1239
     72  CA         7.4650   18.4870   26.9220 C.3   145  ASP145      0.1674
     73  C          7.5480   18.2510   28.4010 C.2   145  ASP145      0.2266
     74  O          7.6410   19.2140   29.1390 O.2   145  ASP145     -0.2867
     75  CB         6.0380   18.8560   26.5430 C.3   145  ASP145      0.1410
     76  CG         5.9060   19.4780   25.1730 C.2   145  ASP145      0.3668
     77  OD1        6.7700   20.3290   24.8150 O.co2 145  ASP145     -0.2456
     78  OD2        4.9180   19.1470   24.4640 O.co2 145  ASP145     -0.2456
     79  N         -1.0940   26.0460   27.5490 N.3   225  ARG225     -0.1245
     80  CA        -0.8560   26.4690   26.1830 C.3   225  ARG225      0.1563
     81  C         -0.9680   27.9890   26.1230 C.2   225  ARG225      0.2260
     82  O         -1.3600   28.6020   27.1180 O.2   225  ARG225     -0.2867
     83  CB        -1.8690   25.7930   25.2430 C.3   225  ARG225      0.0307
     84  CG        -1.6840   24.2820   25.1020 C.3   225  ARG225      0.0489
     85  CD        -2.7990   23.6410   24.3080 C.3   225  ARG225      0.2205
     86  NE        -4.0970   23.7600   24.9690 N.pl3 225  ARG225     -0.0865
     87  CZ        -5.2330   23.2790   24.4740 C.cat 225  ARG225      0.5346
     88  NH1       -5.2400   22.6330   23.3140 N.pl3 225  ARG225      0.1354
     89  NH2       -6.3710   23.4300   25.1420 N.pl3 225  ARG225      0.1354
     90  N          6.6490   26.3530   28.1780 N.3   249  ASP249     -0.1239
     91  CA         6.7960   26.9800   26.8550 C.3   249  ASP249      0.1674
     92  C          5.5050   27.5140   26.2260 C.2   249  ASP249      0.2266
     93  O          5.5740   28.2160   25.2110 O.2   249  ASP249     -0.2867
     94  CB         7.5740   26.0690   25.8830 C.3   249  ASP249      0.1410
     95  CG         6.7590   24.9190   25.3050 C.2   249  ASP249      0.3668
     96  OD1        6.1520   24.1650   26.0980 O.co2 249  ASP249     -0.2456
     97  OD2        6.7080   24.7930   24.0580 O.co2 249  ASP249     -0.2456
     98  N         11.4660   28.6430   14.4670 N.3   333  SER333     -0.1202
     99  CA        12.1620   28.1540   15.6660 C.3   333  SER333      0.2020
    100  C         12.6950   26.7410   15.6650 C.2   333  SER333      0.2618
    101  O         13.6440   26.4720   16.3970 O.2   333  SER333     -0.2717
    102  CB        11.3250   28.3730   16.9150 C.3   333  SER333      0.2103
    103  OG        10.1700   27.5500   16.9400 O.3   333  SER333     -0.2182
    104  N         12.0880   25.8250   14.9000 N.am  334  LYS334     -0.1979
    105  CA        12.5110   24.4260   14.9040 C.3   334  LYS334      0.1596
    106  C         13.3910   23.9570   13.7410 C.2   334  LYS334      0.2287
    107  O         13.7080   22.7730   13.6730 O.2   334  LYS334     -0.2864
    108  CB        11.3180   23.5020   15.1640 C.3   334  LYS334      0.0298
    109  CG        11.0020   23.3780   16.6580 C.3   334  LYS334      0.0038
    110  CD         9.6710   22.7410   16.8850 C.3   334  LYS334      0.0206
    111  CE         9.4420   22.4270   18.3280 C.3   334  LYS334      0.1093
    112  NZ         8.7670   23.5480   19.0210 N.3   334  LYS334     -0.1314
@<TRIPOS>BOND
     1    14    15    2
     2    14    13    1
     3    12    13    1
     4    13    16    1
     5    16    17    1
     6     3     4    2
     7     3     2    1
     8     1     2    1
     9    17    18    1
    10     2     5    1
    11     5     6    1
    12    18    19    1
    13    28    27    1
    14    19    20    2
    15     6     7    1
    16    23    24    1
    17    38    36   ar
    18    38    39   ar
    19    27    24    1
    20    40    39    1
    21    36    34   ar
    22     7     8    1
    23    22    20    1
    24    20    21    1
    25    24    25    1
    26    39    37   ar
    27   107   106    2
    28   106   105    1
    29    34    33    1
    30    34    35   ar
    31    29    25   am
    32    29    30    1
    33     8     9    2
    34    25    26    2
    35    98    99    1
    36    37    35   ar
    37    11     9    1
    38    33    30    1
    39   104   105    1
    40   104   100   am
    41   105   108    1
    42     9    10    1
    43    32    31    2
    44   108   109    1
    45    30    31    1
    46    51    48    1
    47   100    99    1
    48   100   101    2
    49    99   102    1
    50    47    48    1
    51    31    41   am
    52    57    56    1
    53    48    49    1
    54   109   110    1
    55   110   111    1
    56   102   103    1
    57    41    42    1
    58    44    43    2
    59    52    49   am
    60    52    53    1
    61    43    42    1
    62    49    50    2
    63    56    53    1
    64    42    45    1
    65    53    54    1
    66   111   112    1
    67    45    46    1
    68    54    55    2
    69    54    58   am
    70    58    59    1
    71    64    62    1
    72    63    62    1
    73    59    62    1
    74    59    60    1
    75    65    60   am
    76    65    66    1
    77    69    66    1
    78    69    70    1
    79    60    61    2
    80    88    87    1
    81    66    67    1
    82    68    67    2
    83    97    95   ar
    84    85    86    1
    85    85    84    1
    86    78    76   ar
    87    87    86    2
    88    87    89    1
    89    77    76   ar
    90    84    83    1
    91    76    75    1
    92    93    92    2
    93    83    80    1
    94    95    94    1
    95    95    96   ar
    96    94    91    1
    97    71    72    1
    98    81    80    1
    99    81    82    2
   100    80    79    1
   101    92    91    1
   102    75    72    1
   103    91    90    1
   104    72    73    1
   105    73    74    2
