@<TRIPOS>MOLECULE
tmp/5cnoA00.pdb
 136 130 0 0 0
SMALL
GASTEIGER

@<TRIPOS>ATOM
      1  N        -18.8030  -31.6800    4.4670 N.3     1  ASN1       -0.1240
      2  CA       -18.8660  -31.4320    3.0300 C.3     1  ASN1        0.1653
      3  C        -18.6770  -29.9540    2.6700 C.2     1  ASN1        0.2266
      4  O        -19.3860  -29.0470    3.1770 O.2     1  ASN1       -0.2867
      5  CB       -20.1940  -31.9460    2.4550 C.3     1  ASN1        0.1155
      6  CG       -20.3640  -31.6310    0.9670 C.2     1  ASN1        0.2627
      7  OD1      -19.3930  -31.3860    0.2420 O.2     1  ASN1       -0.2716
      8  ND2      -21.6120  -31.6500    0.5080 N.am    1  ASN1       -0.0877
      9  N        -19.4140  -28.6110   -0.0710 N.3     3  ALA3       -0.1231
     10  CA       -20.5620  -28.1060   -0.7970 C.3     3  ALA3        0.1694
     11  C        -21.6000  -27.3840    0.0780 C.2     3  ALA3        0.2591
     12  O        -22.4420  -26.6830   -0.4660 O.2     3  ALA3       -0.2718
     13  CB       -21.2300  -29.2330   -1.5370 C.3     3  ALA3        0.0304
     14  N        -21.5530  -27.5450    1.3960 N.am    4  LEU4       -0.1980
     15  CA       -22.6440  -26.9820    2.2010 C.3     4  LEU4        0.1596
     16  C        -22.3350  -25.5740    2.6400 C.2     4  LEU4        0.2287
     17  O        -23.2080  -24.8580    3.0840 O.2     4  LEU4       -0.2864
     18  CB       -22.9090  -27.8410    3.4350 C.3     4  LEU4        0.0297
     19  CG       -23.3390  -29.2520    3.0290 C.3     4  LEU4        0.0022
     20  CD1      -23.6760  -30.0410    4.2750 C.3     4  LEU4        0.0001
     21  CD2      -24.5180  -29.2130    2.1100 C.3     4  LEU4        0.0001
     22  N        -23.4420  -28.0590    8.2300 N.3    64  SER64      -0.1217
     23  CA       -23.9190  -29.4420    8.0640 C.3    64  SER64       0.1889
     24  C        -25.2180  -29.7010    8.8080 C.2    64  SER64       0.2288
     25  O        -25.7960  -30.7630    8.6760 O.2    64  SER64      -0.2866
     26  CB       -22.8560  -30.4500    8.5720 C.3    64  SER64       0.2089
     27  OG       -22.8840  -30.5130    9.9760 O.3    64  SER64      -0.2183
     28  N        -28.7690  -29.9640    9.2550 N.3    66  ASP66      -0.1225
     29  CA       -29.8540  -29.9660    8.2770 C.3    66  ASP66       0.1805
     30  C        -31.0800  -30.6100    8.9520 C.2    66  ASP66       0.2598
     31  O        -31.2080  -31.8190    9.0340 O.2    66  ASP66      -0.2718
     32  CB       -29.3990  -30.7250    6.9950 C.3    66  ASP66       0.1424
     33  CG       -30.3450  -30.4900    5.8250 C.2    66  ASP66       0.3668
     34  OD1      -31.5280  -30.2000    6.0730 O.co2  66  ASP66      -0.2456
     35  OD2      -29.9290  -30.5600    4.6350 O.co2  66  ASP66      -0.2456
     36  N        -31.9160  -29.7590    9.5490 N.am   67  ASN67      -0.1961
     37  CA       -33.0520  -30.2180   10.3200 C.3    67  ASN67       0.1804
     38  C        -34.0870  -29.0880   10.2600 C.2    67  ASN67       0.2463
     39  O        -33.7210  -27.9100   10.3490 O.2    67  ASN67      -0.2730
     40  CB       -32.6350  -30.5130   11.7600 C.3    67  ASN67       0.1195
     41  CG       -33.8290  -30.9450   12.6210 C.2    67  ASN67       0.2630
     42  OD1      -34.4270  -30.1100   13.3440 O.2    67  ASN67      -0.2716
     43  ND2      -34.1580  -32.2420   12.6040 N.am   67  ASN67      -0.0877
     44  N        -35.3900  -29.3920   10.1670 N.am   68  PRO68      -0.2716
     45  CA       -36.3930  -28.3480   10.0730 C.3    68  PRO68       0.1536
     46  C        -36.4610  -27.4590   11.3080 C.2    68  PRO68       0.2598
     47  O        -37.0130  -26.3840   11.1960 O.2    68  PRO68      -0.2715
     48  CB       -37.7160  -29.1160    9.9700 C.3    68  PRO68       0.0310
     49  CG       -37.3150  -30.4390    9.4600 C.3    68  PRO68       0.0237
     50  CD       -35.9590  -30.7350   10.0700 C.3    68  PRO68       0.0939
     51  N        -35.8410  -27.8710   12.4190 N.am   69  HIS69      -0.1974
     52  CA       -35.9830  -27.0790   13.6480 C.3    69  HIS69       0.1656
     53  C        -34.6640  -26.5280   14.1460 C.2    69  HIS69       0.2291
     54  O        -34.5490  -26.1090   15.2770 O.2    69  HIS69      -0.2864
     55  CB       -36.6940  -27.8910   14.7400 C.3    69  HIS69       0.0771
     56  CG       -38.0360  -28.2890   14.2550 C.ar   69  HIS69       0.0820
     57  ND1      -39.0230  -27.3580   14.0020 N.ar   69  HIS69      -0.2267
     58  CD2      -38.5440  -29.5010   13.9490 C.ar   69  HIS69       0.1154
     59  CE1      -40.0840  -27.9900   13.5030 C.ar   69  HIS69       0.1986
     60  NE2      -39.8260  -29.2880   13.4910 N.ar   69  HIS69      -0.2212
     61  N        -29.4820  -23.6220    9.6750 N.3    72  ARG72      -0.1245
     62  CA       -28.2050  -23.9430    9.0960 C.3    72  ARG72       0.1563
     63  C        -27.3310  -22.7130    8.7500 C.2    72  ARG72       0.2260
     64  O        -27.8690  -21.7450    8.2610 O.2    72  ARG72      -0.2867
     65  CB       -28.5000  -24.7390    7.7840 C.3    72  ARG72       0.0307
     66  CG       -27.2480  -25.3770    7.1710 C.3    72  ARG72       0.0489
     67  CD       -27.6660  -26.3640    6.1020 C.3    72  ARG72       0.2205
     68  NE       -27.8990  -25.7180    4.8090 N.pl3  72  ARG72      -0.0865
     69  CZ       -26.9280  -25.3350    3.9850 C.cat  72  ARG72       0.5346
     70  NH1      -25.6660  -25.4800    4.3390 N.pl3  72  ARG72       0.1354
     71  NH2      -27.2060  -24.8170    2.7710 N.pl3  72  ARG72       0.1354
     72  N        -37.2690  -31.3270   19.3430 N.3   119  LYS119     -0.1245
     73  CA       -36.8620  -32.0750   18.1170 C.3   119  LYS119      0.1561
     74  C        -35.5530  -31.5150   17.5800 C.2   119  LYS119      0.2260
     75  O        -34.6370  -32.2710   17.2130 O.2   119  LYS119     -0.2867
     76  CB       -37.9230  -31.9820   17.0160 C.3   119  LYS119      0.0271
     77  CG       -39.1020  -32.8970   17.3650 C.3   119  LYS119      0.0035
     78  CD       -40.1770  -32.7590   16.2520 C.3   119  LYS119      0.0206
     79  CE       -41.2140  -33.8720   16.4870 C.3   119  LYS119      0.1093
     80  NZ       -42.2420  -33.8950   15.3950 N.3   119  LYS119     -0.1314
     81  N        -31.9530  -33.5170   17.5000 N.3   123  TYR123     -0.1241
     82  CA       -31.1480  -33.6590   16.2820 C.3   123  TYR123      0.1605
     83  C        -29.6990  -33.3140   16.6180 C.2   123  TYR123      0.2264
     84  O        -28.7620  -34.0620   16.2510 O.2   123  TYR123     -0.2867
     85  CB       -31.6580  -32.7670   15.1560 C.3   123  TYR123      0.0534
     86  CG       -30.7270  -32.6930   13.9650 C.ar  123  TYR123     -0.0201
     87  CD1      -30.8170  -33.6510   12.9640 C.ar  123  TYR123     -0.0009
     88  CD2      -29.7520  -31.7120   13.9060 C.ar  123  TYR123     -0.0009
     89  CE1      -29.9700  -33.6100   11.8610 C.ar  123  TYR123      0.0417
     90  CE2      -28.8770  -31.6510   12.8000 C.ar  123  TYR123      0.0417
     91  CZ       -28.9860  -32.6250   11.8240 C.ar  123  TYR123      0.1957
     92  OH       -28.1560  -32.5600   10.7020 O.3   123  TYR123     -0.2866
     93  N        -26.3080  -35.8240   16.5760 N.3   127  ARG127     -0.1245
     94  CA       -25.0640  -35.4750   15.8320 C.3   127  ARG127      0.1563
     95  C        -23.8660  -35.2760   16.7800 C.2   127  ARG127      0.2260
     96  O        -22.7870  -34.9170   16.3110 O.2   127  ARG127     -0.2867
     97  CB       -25.2560  -34.1900   15.0330 C.3   127  ARG127      0.0307
     98  CG       -26.3470  -34.2110   13.9090 C.3   127  ARG127      0.0489
     99  CD       -25.9040  -34.8520   12.5990 C.3   127  ARG127      0.2205
    100  NE       -24.5160  -34.4830   12.2670 N.pl3 127  ARG127     -0.0865
    101  CZ       -24.1960  -33.3640   11.6340 C.cat 127  ARG127      0.5346
    102  NH1      -25.1390  -32.5620   11.1950 N.pl3 127  ARG127      0.1354
    103  NH2      -22.9080  -33.0940   11.4000 N.pl3 127  ARG127      0.1354
    104  N        -40.0600  -25.7940    3.1050 N.3   290  GLU290     -0.1231
    105  CA       -39.1990  -26.9350    3.4940 C.3   290  GLU290      0.1699
    106  C        -40.0020  -28.0860    4.1680 C.2   290  GLU290      0.2592
    107  O        -41.1360  -27.8910    4.6390 O.2   290  GLU290     -0.2718
    108  CB       -38.0410  -26.4680    4.3840 C.3   290  GLU290      0.0402
    109  CG       -38.3920  -26.2870    5.8190 C.3   290  GLU290      0.1161
    110  CD       -37.1910  -25.9090    6.7510 C.2   290  GLU290      0.3649
    111  OE1      -37.2850  -24.8430    7.3500 O.co2 290  GLU290     -0.2457
    112  OE2      -36.1890  -26.6620    6.9180 O.co2 290  GLU290     -0.2457
    113  N        -39.4220  -29.2920    4.1240 N.am  291  ASP291     -0.1960
    114  CA       -40.0160  -30.4850    4.7350 C.3   291  ASP291      0.1840
    115  C        -40.0600  -30.3580    6.2500 C.2   291  ASP291      0.2622
    116  O        -39.1000  -29.8950    6.8560 O.2   291  ASP291     -0.2715
    117  CB       -39.2330  -31.7410    4.3410 C.3   291  ASP291      0.1450
    118  CG       -39.2360  -31.9760    2.8520 C.2   291  ASP291      0.3671
    119  OD1      -40.1190  -31.4080    2.1680 O.co2 291  ASP291     -0.2456
    120  OD2      -38.3660  -32.7280    2.3630 O.co2 291  ASP291     -0.2456
    121  N        -41.1740  -30.7660    6.8500 N.am  292  MET292     -0.1963
    122  CA       -41.3290  -30.7300    8.3030 C.3   292  MET292      0.1736
    123  C        -42.3870  -31.7530    8.7010 C.2   292  MET292      0.2616
    124  O        -43.3020  -32.0380    7.9320 O.2   292  MET292     -0.2715
    125  CB       -41.7220  -29.3170    8.7770 C.3   292  MET292      0.0427
    126  CG       -42.0660  -29.1630   10.2610 C.3   292  MET292      0.0599
    127  SD       -42.6250  -27.4720   10.6270 S.3   292  MET292     -0.1393
    128  CE       -43.6910  -27.6310   12.0310 C.3   292  MET292      0.0692
    129  N        -42.2670  -32.3070    9.8960 N.am  293  ASP293     -0.1971
    130  CA       -43.3220  -33.1680   10.4450 C.3   293  ASP293      0.1709
    131  C        -44.6330  -32.3860   10.6550 C.2   293  ASP293      0.2293
    132  O        -44.6300  -31.1700   10.8550 O.2   293  ASP293     -0.2864
    133  CB       -42.8650  -33.8110   11.7730 C.3   293  ASP293      0.1436
    134  CG       -41.6380  -34.7270   11.6120 C.2   293  ASP293      0.3671
    135  OD1      -41.4320  -35.2730   10.5060 O.co2 293  ASP293     -0.2456
    136  OD2      -40.8900  -34.9220   12.6080 O.co2 293  ASP293     -0.2456
@<TRIPOS>BOND
     1    13    10    1
     2    10     9    1
     3    10    11    1
     4    12    11    2
     5    11    14   am
     6     7     6    2
     7     8     6   am
     8     6     5    1
     9    14    15    1
    10    21    19    1
    11   119   118   ar
    12    15    16    1
    13    15    18    1
    14   120   118   ar
    15     5     2    1
    16    16    17    2
    17     3     2    1
    18     3     4    2
    19    71    69    1
    20   118   117    1
    21    19    18    1
    22    19    20    1
    23     2     1    1
    24   104   105    1
    25   105   106    1
    26   105   108    1
    27    69    70    1
    28    69    68    2
    29   113   106   am
    30   113   114    1
    31   106   107    2
    32   117   114    1
    33   108   109    1
    34    35    33   ar
    35   114   115    1
    36    68    67    1
    37   109   110    1
    38    33    34   ar
    39    33    32    1
    40    67    66    1
    41   115   121   am
    42   115   116    2
    43   110   112   ar
    44   110   111   ar
    45   121   122    1
    46    32    29    1
    47    66    65    1
    48    65    62    1
    49   124   123    2
    50    23    22    1
    51    23    26    1
    52    23    24    1
    53    64    63    2
    54    29    30    1
    55    29    28    1
    56   122   123    1
    57   122   125    1
    58    26    27    1
    59    25    24    2
    60   123   129   am
    61    63    62    1
    62   125   126    1
    63    30    31    2
    64    30    36   am
    65    62    61    1
    66    49    48    1
    67    49    50    1
    68    36    37    1
    69   129   130    1
    70    48    45    1
    71    50    44    1
    72    45    44    1
    73    45    46    1
    74    44    38   am
    75    38    37    1
    76    38    39    2
    77   126   127    1
    78    37    40    1
    79   130   131    1
    80   130   133    1
    81   135   134   ar
    82   127   128    1
    83   131   132    2
    84    92    91    1
    85   102   101    1
    86    47    46    2
    87    46    51   am
    88   103   101    1
    89   134   133    1
    90   134   136   ar
    91   101   100    2
    92    40    41    1
    93    91    89   ar
    94    91    90   ar
    95    89    87   ar
    96   100    99    1
    97    51    52    1
    98    99    98    1
    99    43    41   am
   100    41    42    2
   101    90    88   ar
   102    87    86   ar
   103    60    59   ar
   104    60    58   ar
   105    59    57   ar
   106    52    53    1
   107    52    55    1
   108    88    86   ar
   109    98    97    1
   110    58    56   ar
   111    86    85    1
   112    57    56   ar
   113    53    54    2
   114    56    55    1
   115    97    94    1
   116    85    82    1
   117    80    79    1
   118    94    93    1
   119    94    95    1
   120    84    83    2
   121    78    79    1
   122    78    77    1
   123    82    83    1
   124    82    81    1
   125    96    95    2
   126    76    77    1
   127    76    73    1
   128    75    74    2
   129    74    73    1
   130    73    72    1
