@<TRIPOS>MOLECULE
tmp/5cnsC01.pdb
 140 132 0 0 0
SMALL
GASTEIGER

@<TRIPOS>ATOM
      1  N         -7.7290   34.6820  -15.9050 N.3     3  VAL3       -0.1245
      2  CA        -6.3290   34.7930  -16.2840 C.3     3  VAL3        0.1561
      3  C         -5.9490   36.2670  -16.2920 C.2     3  VAL3        0.2260
      4  O         -6.8040   37.1560  -16.3100 O.2     3  VAL3       -0.2867
      5  CB        -6.0500   34.1490  -17.6560 C.3     3  VAL3        0.0252
      6  CG1       -6.4990   32.6990  -17.6570 C.3     3  VAL3        0.0019
      7  CG2       -6.7430   34.9330  -18.7630 C.3     3  VAL3        0.0019
      8  N         -3.9110   38.9610  -18.4780 N.3     5  LYS5       -0.1231
      9  CA        -3.3330   39.2150  -19.7870 C.3     5  LYS5        0.1693
     10  C         -1.9820   39.9240  -19.6540 C.2     5  LYS5        0.2591
     11  O         -1.5500   40.3120  -18.5640 O.2     5  LYS5       -0.2718
     12  CB        -4.2960   40.0430  -20.6350 C.3     5  LYS5        0.0285
     13  CG        -5.7110   39.4820  -20.6820 C.3     5  LYS5        0.0035
     14  CD        -5.8080   38.2740  -21.6020 C.3     5  LYS5        0.0206
     15  CE        -5.8620   38.7070  -23.0620 C.3     5  LYS5        0.1093
     16  NZ        -6.0760   37.5710  -24.0000 N.3     5  LYS5       -0.1314
     17  N         -1.3010   40.0810  -20.7940 N.am    6  ARG6       -0.1980
     18  CA         0.0050   40.7350  -20.7870 C.3     6  ARG6        0.1597
     19  C         -0.0990   42.2160  -20.4400 C.2     6  ARG6        0.2287
     20  O          0.8520   42.7900  -19.8970 O.2     6  ARG6       -0.2864
     21  CB         0.6970   40.5610  -22.1390 C.3     6  ARG6        0.0334
     22  CG         1.1500   39.1440  -22.4430 C.3     6  ARG6        0.0492
     23  CD         2.0890   39.1270  -23.6400 C.3     6  ARG6        0.2205
     24  NE         2.3320   37.7780  -24.1440 N.pl3   6  ARG6       -0.0865
     25  CZ         3.3630   37.0200  -23.7830 C.cat   6  ARG6        0.5346
     26  NH1        4.2520   37.4750  -22.9110 N.pl3   6  ARG6        0.1354
     27  NH2        3.5060   35.8060  -24.2940 N.pl3   6  ARG6        0.1354
     28  N         -9.3440   38.3790  -17.6010 N.3    11  GLU11      -0.1231
     29  CA       -10.5280   37.8870  -18.2930 C.3    11  GLU11       0.1699
     30  C        -10.7180   36.4110  -17.9750 C.2    11  GLU11       0.2592
     31  O         -9.8030   35.7340  -17.4980 O.2    11  GLU11      -0.2718
     32  CB       -10.4310   38.0820  -19.8110 C.3    11  GLU11       0.0402
     33  CG        -9.3420   37.2590  -20.4760 C.3    11  GLU11       0.1161
     34  CD        -9.3550   37.3900  -21.9870 C.2    11  GLU11       0.3649
     35  OE1       -9.9270   38.3760  -22.4960 O.co2  11  GLU11      -0.2457
     36  OE2       -8.7980   36.5050  -22.6680 O.co2  11  GLU11      -0.2457
     37  N        -11.9240   35.9200  -18.2530 N.am   12  ARG12      -0.1966
     38  CA       -12.2430   34.5200  -18.0080 C.3    12  ARG12       0.1729
     39  C        -11.3440   33.6080  -18.8320 C.2    12  ARG12       0.2616
     40  O        -10.9420   33.9360  -19.9530 O.2    12  ARG12      -0.2715
     41  CB       -13.7110   34.2400  -18.3390 C.3    12  ARG12       0.0348
     42  CG       -14.6960   34.7070  -17.2840 C.3    12  ARG12       0.0492
     43  CD       -16.1070   34.7810  -17.8460 C.3    12  ARG12       0.2205
     44  NE       -16.2370   35.8250  -18.8620 N.pl3  12  ARG12      -0.0865
     45  CZ       -17.3860   36.1790  -19.4310 C.cat  12  ARG12       0.5346
     46  NH1      -18.5140   35.5720  -19.0840 N.pl3  12  ARG12       0.1354
     47  NH2      -17.4090   37.1420  -20.3460 N.pl3  12  ARG12       0.1354
     48  N        -11.0240   32.4470  -18.2560 N.am   13  ILE13      -0.1963
     49  CA       -10.2150   31.4640  -18.9650 C.3    13  ILE13       0.1727
     50  C        -10.9730   30.9760  -20.1930 C.2    13  ILE13       0.2616
     51  O        -12.1920   30.7560  -20.1550 O.2    13  ILE13      -0.2715
     52  CB        -9.8370   30.3090  -18.0220 C.3    13  ILE13       0.0290
     53  CG1       -8.9580   29.2850  -18.7400 C.3    13  ILE13       0.0022
     54  CG2      -11.0820   29.6450  -17.4390 C.3    13  ILE13       0.0023
     55  CD1       -8.6510   28.0660  -17.9030 C.3    13  ILE13       0.0001
     56  N        -10.2540   30.8270  -21.3040 N.am   14  ASN14      -0.1972
     57  CA       -10.8530   30.4010  -22.5690 C.3    14  ASN14       0.1688
     58  C         -9.8520   29.4940  -23.2780 C.2    14  ASN14       0.2292
     59  O         -8.8590   29.9720  -23.8350 O.2    14  ASN14      -0.2864
     60  CB       -11.2300   31.6040  -23.4260 C.3    14  ASN14       0.1181
     61  CG       -11.9250   31.2120  -24.7140 C.2    14  ASN14       0.2629
     62  OD1      -12.2770   30.0510  -24.9190 O.2    14  ASN14      -0.2716
     63  ND2      -12.1340   32.1880  -25.5900 N.am   14  ASN14      -0.0877
     64  N         -8.4300   29.9940  -26.9970 N.3    17  LYS17      -0.1231
     65  CA        -7.2380   30.7940  -27.2640 C.3    17  LYS17       0.1693
     66  C         -5.9730   29.9430  -27.2150 C.2    17  LYS17       0.2591
     67  O         -5.0300   30.1850  -27.9780 O.2    17  LYS17      -0.2718
     68  CB        -7.1560   31.9810  -26.3050 C.3    17  LYS17       0.0285
     69  CG        -8.3600   32.9090  -26.4030 C.3    17  LYS17       0.0035
     70  CD        -8.0110   34.3180  -25.9500 C.3    17  LYS17       0.0206
     71  CE        -9.1820   35.2770  -26.1290 C.3    17  LYS17       0.1093
     72  NZ        -8.7940   36.6860  -25.8260 N.3    17  LYS17      -0.1314
     73  N         -5.9250   28.9490  -26.3230 N.am   18  ILE18      -0.1980
     74  CA        -4.7820   28.0400  -26.3010 C.3    18  ILE18       0.1595
     75  C         -4.8030   27.1410  -27.5310 C.2    18  ILE18       0.2287
     76  O         -3.7550   26.8350  -28.1130 O.2    18  ILE18      -0.2864
     77  CB        -4.7690   27.2140  -25.0010 C.3    18  ILE18       0.0276
     78  CG1       -4.7560   28.1260  -23.7740 C.3    18  ILE18       0.0022
     79  CG2       -3.5650   26.2840  -24.9680 C.3    18  ILE18       0.0022
     80  CD1       -4.7280   27.3710  -22.4610 C.3    18  ILE18       0.0001
     81  N         -3.5280   29.3180  -30.7560 N.3    21  VAL21      -0.1245
     82  CA        -2.0950   29.5890  -30.8300 C.3    21  VAL21       0.1561
     83  C         -1.3160   28.3280  -31.1800 C.2    21  VAL21       0.2260
     84  O         -0.3120   28.3870  -31.9010 O.2    21  VAL21      -0.2867
     85  CB        -1.6080   30.2100  -29.5060 C.3    21  VAL21       0.0252
     86  CG1       -0.1230   30.5220  -29.5720 C.3    21  VAL21       0.0019
     87  CG2       -2.3990   31.4680  -29.1940 C.3    21  VAL21       0.0019
     88  N         -0.9480   35.1260  -18.1150 N.3    51  THR51      -0.1218
     89  CA        -1.0590   34.5660  -19.4550 C.3    51  THR51       0.1862
     90  C          0.3020   34.2660  -20.0710 C.2    51  THR51       0.2287
     91  O          0.3910   33.4190  -20.9650 O.2    51  THR51      -0.2866
     92  CB        -1.8470   35.5150  -20.3580 C.3    51  THR51       0.1770
     93  OG1       -2.2880   34.8100  -21.5230 O.3    51  THR51      -0.2211
     94  CG2       -0.9810   36.6920  -20.7820 C.3    51  THR51       0.0375
     95  N          1.3760   30.7860  -18.8160 N.3    54  ILE54      -0.1231
     96  CA         0.6870   29.7480  -19.5810 C.3    54  ILE54       0.1692
     97  C          1.4560   29.4450  -20.8610 C.2    54  ILE54       0.2592
     98  O          1.6570   28.2800  -21.2270 O.2    54  ILE54      -0.2718
     99  CB        -0.7660   30.1670  -19.8760 C.3    54  ILE54       0.0266
    100  CG1       -1.5970   30.1600  -18.5920 C.3    54  ILE54       0.0019
    101  CG2       -1.3950   29.2450  -20.9120 C.3    54  ILE54       0.0020
    102  CD1       -3.0530   30.5210  -18.8030 C.3    54  ILE54       0.0001
    103  N          1.8930   30.4920  -21.5630 N.am   55  HIS55      -0.1976
    104  CA         2.6030   30.2880  -22.8200 C.3    55  HIS55       0.1656
    105  C          3.9530   29.6210  -22.5920 C.2    55  HIS55       0.2291
    106  O          4.3510   28.7390  -23.3610 O.2    55  HIS55      -0.2864
    107  CB         2.7830   31.6150  -23.5510 C.3    55  HIS55       0.0771
    108  CG         3.0710   31.4570  -25.0100 C.ar   55  HIS55       0.0820
    109  ND1        2.1460   30.9530  -25.8990 N.ar   55  HIS55      -0.2267
    110  CD2        4.1860   31.7160  -25.7330 C.ar   55  HIS55       0.1154
    111  CE1        2.6740   30.9200  -27.1090 C.ar   55  HIS55       0.1986
    112  NE2        3.9110   31.3770  -27.0360 N.ar   55  HIS55      -0.2212
    113  N          3.5350   25.8120  -22.1470 N.3    58  ILE58      -0.1245
    114  CA         3.3040   25.0370  -23.3610 C.3    58  ILE58       0.1561
    115  C          4.4940   25.0930  -24.3130 C.2    58  ILE58       0.2260
    116  O          4.5860   24.2630  -25.2260 O.2    58  ILE58      -0.2867
    117  CB         2.0170   25.4970  -24.0660 C.3    58  ILE58       0.0252
    118  CG1        2.2540   26.7850  -24.8510 C.3    58  ILE58       0.0019
    119  CG2        0.9040   25.6960  -23.0530 C.3    58  ILE58       0.0019
    120  CD1        1.0420   27.2410  -25.6230 C.3    58  ILE58       0.0001
    121  N          7.0050   33.6890  -31.1990 N.3    83  PHE83      -0.1241
    122  CA         5.8130   34.4260  -30.7890 C.3    83  PHE83       0.1605
    123  C          6.0020   35.0400  -29.4060 C.2    83  PHE83       0.2264
    124  O          5.6720   36.2090  -29.1750 O.2    83  PHE83      -0.2867
    125  CB         4.6080   33.4800  -30.8040 C.3    83  PHE83       0.0534
    126  CG         3.3080   34.1230  -30.3990 C.ar   83  PHE83      -0.0203
    127  CD1        2.5030   34.7470  -31.3400 C.ar   83  PHE83      -0.0042
    128  CD2        2.8840   34.0890  -29.0780 C.ar   83  PHE83      -0.0042
    129  CE1        1.3030   35.3310  -30.9680 C.ar   83  PHE83      -0.0003
    130  CE2        1.6900   34.6710  -28.7000 C.ar   83  PHE83      -0.0003
    131  CZ         0.8970   35.2920  -29.6470 C.ar   83  PHE83      -0.0000
    132  N          6.3820   39.3240  -28.2640 N.3    87  LYS87      -0.1245
    133  CA         5.5970   40.0270  -27.2540 C.3    87  LYS87       0.1561
    134  C          6.4960   40.6810  -26.2120 C.2    87  LYS87       0.2260
    135  O          6.2220   41.7980  -25.7600 O.2    87  LYS87      -0.2867
    136  CB         4.6200   39.0600  -26.5780 C.3    87  LYS87       0.0271
    137  CG         3.6170   38.3960  -27.5150 C.3    87  LYS87       0.0035
    138  CD         2.8380   39.4210  -28.3180 C.3    87  LYS87       0.0206
    139  CE         1.7780   38.7590  -29.1770 C.3    87  LYS87       0.1093
    140  NZ         0.6890   38.1860  -28.3440 N.3    87  LYS87      -0.1314
@<TRIPOS>BOND
     1    84    83    2
     2   127   129   ar
     3   127   126   ar
     4   121   122    1
     5    83    82    1
     6   129   131   ar
     7    82    81    1
     8    82    85    1
     9   125   122    1
    10   125   126    1
    11   122   123    1
    12   126   128   ar
    13   131   130   ar
    14    86    85    1
    15    85    87    1
    16   123   124    2
    17   139   140    1
    18   139   138    1
    19   128   130   ar
    20   138   137    1
    21   132   133    1
    22    76    75    2
    23    67    66    2
    24    75    74    1
    25   137   136    1
    26    65    66    1
    27    65    64    1
    28    65    68    1
    29   133   136    1
    30   133   134    1
    31    66    73   am
    32   111   112   ar
    33   111   109   ar
    34   112   110   ar
    35    69    68    1
    36    69    70    1
    37    73    74    1
    38    74    77    1
    39   134   135    2
    40    71    70    1
    41    71    72    1
    42   109   108   ar
    43   110   108   ar
    44   120   118    1
    45    63    61   am
    46   116   115    2
    47   108   107    1
    48    77    79    1
    49    77    78    1
    50    62    61    2
    51   118   117    1
    52    61    60    1
    53   115   114    1
    54    27    25    1
    55    24    25    2
    56    24    23    1
    57   117   114    1
    58   117   119    1
    59    16    15    1
    60    59    58    2
    61    25    26    1
    62    78    80    1
    63    23    22    1
    64   107   104    1
    65    60    57    1
    66   114   113    1
    67   106   105    2
    68    58    57    1
    69    15    14    1
    70   104   105    1
    71   104   103    1
    72    36    34   ar
    73    57    56    1
    74    35    34   ar
    75    22    21    1
    76    21    18    1
    77    34    33    1
    78    14    13    1
    79   103    97   am
    80    93    92    1
    81    56    50   am
    82    98    97    2
    83    91    90    2
    84   101    99    1
    85    97    96    1
    86    17    18    1
    87    17    10   am
    88    18    19    1
    89    94    92    1
    90    13    12    1
    91    12     9    1
    92    33    32    1
    93    19    20    2
    94    92    89    1
    95    47    45    1
    96    50    51    2
    97    50    49    1
    98    90    89    1
    99    40    39    2
   100    99    96    1
   101    99   100    1
   102    32    29    1
   103     9    10    1
   104     9     8    1
   105    10    11    2
   106    96    95    1
   107    89    88    1
   108    45    46    1
   109    45    44    2
   110    49    48    1
   111    49    52    1
   112    44    43    1
   113    39    48   am
   114    39    38    1
   115   102   100    1
   116     7     5    1
   117    53    52    1
   118    53    55    1
   119    41    38    1
   120    41    42    1
   121    29    30    1
   122    29    28    1
   123    37    38    1
   124    37    30   am
   125    52    54    1
   126    30    31    2
   127    43    42    1
   128     6     5    1
   129     5     2    1
   130     4     3    2
   131     3     2    1
   132     2     1    1
