@<TRIPOS>MOLECULE
tmp/5cnsC02.pdb
 127 125 0 0 0
SMALL
GASTEIGER

@<TRIPOS>ATOM
      1  N         58.5890   35.3500  -15.9500 N.3   228  ASP228     -0.1225
      2  CA        59.0310   34.9320  -14.6190 C.3   228  ASP228      0.1805
      3  C         59.3400   36.1460  -13.7360 C.2   228  ASP228      0.2598
      4  O         60.4730   36.3840  -13.3190 O.2   228  ASP228     -0.2718
      5  CB        60.2380   34.0090  -14.7350 C.3   228  ASP228      0.1424
      6  CG        60.6190   33.3730  -13.4120 C.2   228  ASP228      0.3668
      7  OD1       59.7330   33.2460  -12.5370 O.co2 228  ASP228     -0.2456
      8  OD2       61.8050   33.0130  -13.2450 O.co2 228  ASP228     -0.2456
      9  N         58.2960   36.9220  -13.4500 N.am  229  SER229     -0.1938
     10  CA        58.4440   38.0920  -12.5960 C.3   229  SER229      0.2055
     11  C         57.0820   38.4770  -12.0400 C.2   229  SER229      0.2643
     12  O         56.0460   38.2020  -12.6510 O.2   229  SER229     -0.2714
     13  CB        59.0590   39.2810  -13.3470 C.3   229  SER229      0.2130
     14  OG        58.1640   39.8040  -14.3160 O.3   229  SER229     -0.2179
     15  N         57.1010   39.1180  -10.8700 N.am  230  LEU230     -0.1963
     16  CA        55.8580   39.5760  -10.2600 C.3   230  LEU230      0.1728
     17  C         55.2210   40.6930  -11.0760 C.2   230  LEU230      0.2616
     18  O         53.9920   40.8340  -11.0800 O.2   230  LEU230     -0.2715
     19  CB        56.1180   40.0390   -8.8270 C.3   230  LEU230      0.0311
     20  CG        56.4600   38.9550   -7.8040 C.3   230  LEU230      0.0022
     21  CD1       56.6160   39.5710   -6.4270 C.3   230  LEU230      0.0001
     22  CD2       55.4030   37.8670   -7.7880 C.3   230  LEU230      0.0001
     23  N         56.0350   41.4950  -11.7690 N.am  231  ASP231     -0.1971
     24  CA        55.4860   42.5040  -12.6680 C.3   231  ASP231      0.1709
     25  C         54.7040   41.8480  -13.7960 C.2   231  ASP231      0.2293
     26  O         53.6470   42.3450  -14.2030 O.2   231  ASP231     -0.2864
     27  CB        56.6090   43.3750  -13.2350 C.3   231  ASP231      0.1436
     28  CG        57.1400   44.3820  -12.2290 C.2   231  ASP231      0.3671
     29  OD1       56.3560   44.8410  -11.3730 O.co2 231  ASP231     -0.2456
     30  OD2       58.3440   44.7120  -12.2950 O.co2 231  ASP231     -0.2456
     31  N         53.3920   38.6850  -13.6880 N.3   233  ILE233     -0.1245
     32  CA        52.2490   37.9750  -13.1250 C.3   233  ILE233      0.1561
     33  C         51.1060   38.9420  -12.8390 C.2   233  ILE233      0.2260
     34  O         49.9350   38.6300  -13.0860 O.2   233  ILE233     -0.2867
     35  CB        52.6750   37.1980  -11.8660 C.3   233  ILE233      0.0252
     36  CG1       53.6570   36.0860  -12.2430 C.3   233  ILE233      0.0019
     37  CG2       51.4610   36.6130  -11.1600 C.3   233  ILE233      0.0019
     38  CD1       54.2380   35.3530  -11.0570 C.3   233  ILE233      0.0001
     39  N         57.3130   30.4260  -15.3470 N.3   257  ILE257     -0.1231
     40  CA        57.4440   30.6240  -13.9070 C.3   257  ILE257      0.1692
     41  C         58.3140   29.5270  -13.3130 C.2   257  ILE257      0.2591
     42  O         58.0820   28.3330  -13.5410 O.2   257  ILE257     -0.2718
     43  CB        56.0560   30.6620  -13.2510 C.3   257  ILE257      0.0266
     44  CG1       55.2100   31.7730  -13.8740 C.3   257  ILE257      0.0019
     45  CG2       56.1790   30.8730  -11.7520 C.3   257  ILE257      0.0020
     46  CD1       53.8330   31.8950  -13.2760 C.3   257  ILE257      0.0001
     47  N         59.3280   29.9290  -12.5490 N.am  258  ARG258     -0.1980
     48  CA        60.3000   28.9840  -12.0150 C.3   258  ARG258      0.1597
     49  C         59.6510   28.0180  -11.0220 C.2   258  ARG258      0.2287
     50  O         58.5510   28.2450  -10.5080 O.2   258  ARG258     -0.2864
     51  CB        61.4510   29.7250  -11.3350 C.3   258  ARG258      0.0334
     52  CG        61.0400   30.4860  -10.0960 C.3   258  ARG258      0.0492
     53  CD        62.1660   31.3620   -9.5930 C.3   258  ARG258      0.2205
     54  NE        62.4640   32.4390  -10.5290 N.pl3 258  ARG258     -0.0865
     55  CZ        63.2450   33.4760  -10.2480 C.cat 258  ARG258      0.5346
     56  NH1       63.8120   33.5790   -9.0520 N.pl3 258  ARG258      0.1354
     57  NH2       63.4580   34.4110  -11.1630 N.pl3 258  ARG258      0.1354
     58  N         65.9590   29.4440   -5.5960 N.3   263  PRO263     -0.2102
     59  CA        66.3400   30.6390   -4.8380 C.3   263  PRO263      0.1504
     60  C         65.8470   31.9120   -5.5070 C.2   263  PRO263      0.2576
     61  O         65.7690   32.0120   -6.7350 O.2   263  PRO263     -0.2718
     62  CB        67.8710   30.5770   -4.8260 C.3   263  PRO263      0.0282
     63  CG        68.2170   29.7840   -6.0390 C.3   263  PRO263      0.0208
     64  CD        67.1290   28.7600   -6.1720 C.3   263  PRO263      0.0893
     65  N         65.5140   32.8950   -4.6730 N.am  264  ILE264     -0.1966
     66  CA        65.1120   34.2250   -5.1140 C.3   264  ILE264      0.1727
     67  C         66.1040   35.2220   -4.5370 C.2   264  ILE264      0.2616
     68  O         66.3100   35.2590   -3.3180 O.2   264  ILE264     -0.2715
     69  CB        63.6770   34.5600   -4.6690 C.3   264  ILE264      0.0290
     70  CG1       62.6930   33.5490   -5.2550 C.3   264  ILE264      0.0022
     71  CG2       63.3030   35.9780   -5.0740 C.3   264  ILE264      0.0023
     72  CD1       61.3130   33.6460   -4.6680 C.3   264  ILE264      0.0001
     73  N         66.7020   36.0340   -5.4080 N.am  265  ARG265     -0.1977
     74  CA        67.7240   37.0050   -5.0160 C.3   265  ARG265      0.1597
     75  C         68.8740   36.3300   -4.2660 C.2   265  ARG265      0.2287
     76  O         69.3410   36.8050   -3.2270 O.2   265  ARG265     -0.2864
     77  CB        67.1270   38.1460   -4.1900 C.3   265  ARG265      0.0334
     78  CG        66.2780   39.1190   -4.9840 C.3   265  ARG265      0.0492
     79  CD        65.4700   40.0090   -4.0580 C.3   265  ARG265      0.2205
     80  NE        64.4770   40.8050   -4.7730 N.pl3 265  ARG265     -0.0865
     81  CZ        63.4460   41.4110   -4.1910 C.cat 265  ARG265      0.5346
     82  NH1       63.2740   41.3150   -2.8780 N.pl3 265  ARG265      0.1354
     83  NH2       62.5920   42.1210   -4.9180 N.pl3 265  ARG265      0.1354
     84  N         64.9060   34.4480   -0.3370 N.3   269  ALA269     -0.1231
     85  CA        63.5850   33.8640   -0.1670 C.3   269  ALA269      0.1694
     86  C         63.5360   32.4790   -0.7960 C.2   269  ALA269      0.2592
     87  O         64.3410   32.1320   -1.6650 O.2   269  ALA269     -0.2718
     88  CB        62.4920   34.7550   -0.7710 C.3   269  ALA269      0.0304
     89  N         62.5690   31.6930   -0.3300 N.am  270  PHE270     -0.1962
     90  CA        62.2920   30.3530   -0.8300 C.3   270  PHE270      0.1771
     91  C         61.0690   30.4540   -1.7350 C.2   270  PHE270      0.2620
     92  O         60.0110   30.9190   -1.2970 O.2   270  PHE270     -0.2715
     93  CB        62.0520   29.3950    0.3400 C.3   270  PHE270      0.0574
     94  CG        61.7980   27.9680   -0.0620 C.ar  270  PHE270     -0.0200
     95  CD1       60.5100   27.5180   -0.3100 C.ar  270  PHE270     -0.0042
     96  CD2       62.8460   27.0640   -0.1510 C.ar  270  PHE270     -0.0042
     97  CE1       60.2750   26.1970   -0.6660 C.ar  270  PHE270     -0.0003
     98  CE2       62.6190   25.7420   -0.5060 C.ar  270  PHE270     -0.0003
     99  CZ        61.3310   25.3080   -0.7620 C.ar  270  PHE270     -0.0000
    100  N         61.2160   30.0440   -2.9930 N.am  271  HIS271     -0.1959
    101  CA        60.1350   30.1990   -3.9610 C.3   271  HIS271      0.1787
    102  C         58.9640   29.2820   -3.6220 C.2   271  HIS271      0.2620
    103  O         59.1380   28.0740   -3.4430 O.2   271  HIS271     -0.2715
    104  CB        60.6430   29.9100   -5.3710 C.3   271  HIS271      0.0785
    105  CG        59.7000   30.3430   -6.4480 C.ar  271  HIS271      0.0821
    106  ND1       58.6160   29.5870   -6.8390 N.ar  271  HIS271     -0.2267
    107  CD2       59.6720   31.4610   -7.2100 C.ar  271  HIS271      0.1154
    108  CE1       57.9650   30.2160   -7.8010 C.ar  271  HIS271      0.1986
    109  NE2       58.5850   31.3560   -8.0450 N.ar  271  HIS271     -0.2212
    110  N         57.7610   29.8610   -3.5490 N.am  272  THR272     -0.1951
    111  CA        56.5870   29.1240   -3.0960 C.3   272  THR272      0.1897
    112  C         56.0270   28.1850   -4.1590 C.2   272  THR272      0.2313
    113  O         55.2550   27.2790   -3.8220 O.2   272  THR272     -0.2863
    114  CB        55.4950   30.1030   -2.6490 C.3   272  THR272      0.1794
    115  OG1       56.0990   31.2410   -2.0230 O.3   272  THR272     -0.2208
    116  CG2       54.5420   29.4430   -1.6610 C.3   272  THR272      0.0378
    117  N         50.6050   30.7910   -7.6840 N.3   277  PHE277     -0.1241
    118  CA        50.3300   31.7470   -8.7480 C.3   277  PHE277      0.1605
    119  C         49.2390   31.2490   -9.6840 C.2   277  PHE277      0.2264
    120  O         48.4390   32.0520  -10.1780 O.2   277  PHE277     -0.2867
    121  CB        51.6030   32.0520   -9.5410 C.3   277  PHE277      0.0534
    122  CG        52.6450   32.7980   -8.7530 C.ar  277  PHE277     -0.0203
    123  CD1       52.3180   33.9620   -8.0740 C.ar  277  PHE277     -0.0042
    124  CD2       53.9610   32.3640   -8.7340 C.ar  277  PHE277     -0.0042
    125  CE1       53.2740   34.6570   -7.3560 C.ar  277  PHE277     -0.0003
    126  CE2       54.9240   33.0590   -8.0250 C.ar  277  PHE277     -0.0003
    127  CZ        54.5790   34.2090   -7.3350 C.ar  277  PHE277     -0.0000
@<TRIPOS>BOND
     1     1     2    1
     2    39    40    1
     3     5     2    1
     4     5     6    1
     5     2     3    1
     6    14    13    1
     7    26    25    2
     8    40    41    1
     9    40    43    1
    10    44    46    1
    11    44    43    1
    12    25    24    1
    13     3     9   am
    14     3     4    2
    15    31    32    1
    16    42    41    2
    17     9    10    1
    18     6     8   ar
    19     6     7   ar
    20    13    10    1
    21    41    47   am
    22    43    45    1
    23    27    24    1
    24    27    28    1
    25    32    33    1
    26    32    35    1
    27    34    33    2
    28    24    23    1
    29    12    11    2
    30    10    11    1
    31    47    48    1
    32    30    28   ar
    33    36    35    1
    34    36    38    1
    35    28    29   ar
    36    11    15   am
    37    48    51    1
    38    48    49    1
    39    35    37    1
    40    23    17   am
    41    51    52    1
    42    57    55    1
    43    18    17    2
    44    17    16    1
    45    49    50    2
    46    15    16    1
    47    54    55    2
    48    54    53    1
    49    16    19    1
    50    55    56    1
    51   120   119    2
    52    52    53    1
    53   119   118    1
    54   121   122    1
    55   121   118    1
    56    19    20    1
    57   122   124   ar
    58   122   123   ar
    59   118   117    1
    60   124   126   ar
    61   123   125   ar
    62   109   108   ar
    63   109   107   ar
    64   126   127   ar
    65    20    22    1
    66    20    21    1
    67   108   106   ar
    68   125   127   ar
    69   107   105   ar
    70   106   105   ar
    71    61    60    2
    72   105   104    1
    73    64    63    1
    74    64    58    1
    75    63    62    1
    76    58    59    1
    77    60    59    1
    78    60    65   am
    79    73    74    1
    80    73    67   am
    81   104   101    1
    82    70    69    1
    83    70    72    1
    84    66    65    1
    85    66    69    1
    86    66    67    1
    87    71    69    1
    88    74    75    1
    89    74    77    1
    90    78    77    1
    91    78    79    1
    92    83    81    1
    93    59    62    1
    94    80    81    2
    95    80    79    1
    96    67    68    2
    97    75    76    2
    98    81    82    1
    99   112   113    2
   100   112   111    1
   101   101   102    1
   102   101   100    1
   103   102   110   am
   104   102   103    2
   105   110   111    1
   106   111   114    1
   107   100    91   am
   108   114   115    1
   109   114   116    1
   110    91    92    2
   111    91    90    1
   112    87    86    2
   113    90    89    1
   114    90    93    1
   115    86    89   am
   116    86    85    1
   117    88    85    1
   118    99    97   ar
   119    99    98   ar
   120    97    95   ar
   121    98    96   ar
   122    84    85    1
   123    95    94   ar
   124    96    94   ar
   125    94    93    1
