@<TRIPOS>MOLECULE
tmp/5cnsC00.pdb
 159 151 0 0 0
SMALL
GASTEIGER

@<TRIPOS>ATOM
      1  N         30.1370   33.9710  -34.0290 N.3   204  PRO204     -0.2102
      2  CA        30.3930   33.5040  -32.6600 C.3   204  PRO204      0.1504
      3  C         29.5200   34.2120  -31.6340 C.2   204  PRO204      0.2576
      4  O         28.8240   35.1890  -31.9170 O.2   204  PRO204     -0.2718
      5  CB        31.8730   33.8340  -32.4340 C.3   204  PRO204      0.0282
      6  CG        32.4190   34.1410  -33.7780 C.3   204  PRO204      0.0208
      7  CD        31.2920   34.6910  -34.5790 C.3   204  PRO204      0.0893
      8  N         29.5730   33.6800  -30.4110 N.am  205  THR205     -0.1940
      9  CA        28.8210   34.2410  -29.2890 C.3   205  THR205      0.2013
     10  C         29.0900   35.7230  -29.0470 C.2   205  THR205      0.2484
     11  O         28.1180   36.4860  -28.9310 O.2   205  THR205     -0.2729
     12  CB        29.1100   33.4200  -28.0240 C.3   205  THR205      0.1807
     13  OG1       28.6030   32.0890  -28.1850 O.3   205  THR205     -0.2208
     14  CG2       28.4670   34.0670  -26.8030 C.3   205  THR205      0.0379
     15  N         30.3400   36.2010  -28.9550 N.am  206  PRO206     -0.2726
     16  CA        30.5300   37.6370  -28.6830 C.3   206  PRO206      0.1402
     17  C         30.0870   38.5330  -29.8300 C.2   206  PRO206      0.2269
     18  O         29.6570   39.6660  -29.5800 O.2   206  PRO206     -0.2865
     19  CB        32.0380   37.7510  -28.4170 C.3   206  PRO206      0.0296
     20  CG        32.6300   36.5950  -29.1260 C.3   206  PRO206      0.0237
     21  CD        31.6320   35.4890  -29.0140 C.3   206  PRO206      0.0939
     22  N         36.9030   36.3450  -29.6340 N.3   220  SER220     -0.1202
     23  CA        36.5750   35.2490  -28.7290 C.3   220  SER220      0.2020
     24  C         37.7810   34.7730  -27.9270 C.2   220  SER220      0.2619
     25  O         37.6210   34.3290  -26.7850 O.2   220  SER220     -0.2717
     26  CB        35.9830   34.0850  -29.5210 C.3   220  SER220      0.2103
     27  OG        34.8250   34.4900  -30.2280 O.3   220  SER220     -0.2182
     28  N         38.9820   34.8450  -28.4970 N.am  221  CYS221     -0.1969
     29  CA        40.1590   34.2040  -27.9250 C.3   221  CYS221      0.1712
     30  C         41.2050   35.2420  -27.5530 C.2   221  CYS221      0.2296
     31  O         41.5060   36.1380  -28.3480 O.2   221  CYS221     -0.2864
     32  CB        40.7430   33.1910  -28.9080 C.3   221  CYS221      0.0983
     33  SG        39.4860   32.1050  -29.6140 S.3   221  CYS221     -0.0798
     34  N         33.6390   39.3830  -22.7210 N.3   247  ARG247     -0.1245
     35  CA        33.1690   38.3320  -23.6270 C.3   247  ARG247      0.1563
     36  C         34.2720   37.4040  -24.1300 C.2   247  ARG247      0.2260
     37  O         34.0550   36.6730  -25.1010 O.2   247  ARG247     -0.2867
     38  CB        32.4250   38.9160  -24.8360 C.3   247  ARG247      0.0307
     39  CG        31.2940   39.8740  -24.5110 C.3   247  ARG247      0.0489
     40  CD        30.5890   40.3010  -25.7910 C.3   247  ARG247      0.2205
     41  NE        29.6320   41.3770  -25.5620 N.pl3 247  ARG247     -0.0865
     42  CZ        29.8880   42.6590  -25.7940 C.cat 247  ARG247      0.5346
     43  NH1       31.0740   43.0260  -26.2640 N.pl3 247  ARG247      0.1354
     44  NH2       28.9590   43.5760  -25.5590 N.pl3 247  ARG247      0.1354
     45  N         37.4510   34.4170  -23.8790 N.3   249  GLY249     -0.1225
     46  CA        38.0360   33.2570  -23.2230 C.3   249  GLY249      0.1811
     47  C         39.5520   33.3170  -23.3030 C.2   249  GLY249      0.2280
     48  O         40.1150   33.7780  -24.2970 O.2   249  GLY249     -0.2866
     49  N         31.3490   36.4590  -18.3830 N.3   290  GLN290     -0.1245
     50  CA        31.8610   36.6750  -19.7380 C.3   290  GLN290      0.1566
     51  C         30.8910   37.5760  -20.5060 C.2   290  GLN290      0.2260
     52  O         30.1330   37.1480  -21.3800 O.2   290  GLN290     -0.2867
     53  CB        32.0840   35.3420  -20.4400 C.3   290  GLN290      0.0367
     54  CG        33.1540   35.3870  -21.5110 C.3   290  GLN290      0.0905
     55  CD        33.4730   34.0210  -22.0780 C.2   290  GLN290      0.2608
     56  OE1       32.9190   33.6140  -23.1010 O.2   290  GLN290     -0.2717
     57  NE2       34.3730   33.3020  -21.4160 N.am  290  GLN290     -0.0878
     58  N         27.9250   34.2180  -20.0720 N.3   294  ARG294     -0.1231
     59  CA        28.2800   32.9310  -19.4890 C.3   294  ARG294      0.1694
     60  C         29.4280   33.1470  -18.5100 C.2   294  ARG294      0.2592
     61  O         29.8320   34.2810  -18.2390 O.2   294  ARG294     -0.2718
     62  CB        28.6380   31.9240  -20.5890 C.3   294  ARG294      0.0321
     63  CG        29.7170   32.4190  -21.5390 C.3   294  ARG294      0.0489
     64  CD        29.8230   31.5440  -22.7790 C.3   294  ARG294      0.2205
     65  NE        30.7710   32.0880  -23.7490 N.pl3 294  ARG294     -0.0865
     66  CZ        30.8910   31.6590  -25.0020 C.cat 294  ARG294      0.5346
     67  NH1       31.7820   32.2160  -25.8110 N.pl3 294  ARG294      0.1354
     68  NH2       30.1170   30.6780  -25.4480 N.pl3 294  ARG294      0.1354
     69  N         29.9480   32.0480  -17.9650 N.am  295  GLY295     -0.1957
     70  CA        31.0540   32.1400  -17.0400 C.3   295  GLY295      0.1869
     71  C         32.3960   32.2240  -17.7430 C.2   295  GLY295      0.2309
     72  O         32.5640   31.8050  -18.8880 O.2   295  GLY295     -0.2863
     73  N         36.1950   31.2410  -18.5370 N.3   297  ALA297     -0.1245
     74  CA        37.0040   30.0350  -18.5830 C.3   297  ALA297      0.1562
     75  C         38.3930   30.3720  -19.1110 C.2   297  ALA297      0.2260
     76  O         38.5840   31.3610  -19.8230 O.2   297  ALA297     -0.2867
     77  CB        36.3490   28.9560  -19.4540 C.3   297  ALA297      0.0290
     78  N         44.7480   28.4170  -26.9410 N.3   433  ASN433     -0.1225
     79  CA        43.6510   29.1250  -26.3040 C.3   433  ASN433      0.1785
     80  C         42.8340   28.1760  -25.4210 C.2   433  ASN433      0.2597
     81  O         43.3270   27.1230  -24.9960 O.2   433  ASN433     -0.2718
     82  CB        42.8070   29.8110  -27.3840 C.3   433  ASN433      0.1169
     83  CG        42.0360   28.8250  -28.2370 C.2   433  ASN433      0.2627
     84  OD1       42.5380   27.7530  -28.5740 O.2   433  ASN433     -0.2716
     85  ND2       40.8070   29.1820  -28.5890 N.am  433  ASN433     -0.0877
     86  N         41.5890   28.5640  -25.1320 N.am  434  LEU434     -0.1966
     87  CA        40.7320   27.7780  -24.2480 C.3   434  LEU434      0.1728
     88  C         40.3680   26.4280  -24.8580 C.2   434  LEU434      0.2616
     89  O         40.3580   25.4080  -24.1560 O.2   434  LEU434     -0.2715
     90  CB        39.4650   28.5680  -23.9200 C.3   434  LEU434      0.0311
     91  CG        38.3800   27.8420  -23.1250 C.3   434  LEU434      0.0022
     92  CD1       38.8570   27.5400  -21.7110 C.3   434  LEU434      0.0001
     93  CD2       37.0900   28.6410  -23.1120 C.3   434  LEU434      0.0001
     94  N         40.0630   26.3930  -26.1540 N.am  435  CYS435     -0.1968
     95  CA        39.5930   25.1720  -26.7970 C.3   435  CYS435      0.1712
     96  C         40.6030   24.6000  -27.7830 C.2   435  CYS435      0.2296
     97  O         40.2440   23.7400  -28.5960 O.2   435  CYS435     -0.2864
     98  CB        38.2510   25.4200  -27.4920 C.3   435  CYS435      0.0983
     99  SG        36.9340   25.9990  -26.3880 S.3   435  CYS435     -0.0798
    100  N         42.2050   25.4650  -30.4800 N.3   437  GLU437     -0.1245
    101  CA        42.1690   25.6420  -31.9240 C.3   437  GLU437      0.1567
    102  C         42.9430   26.8670  -32.3900 C.2   437  GLU437      0.2260
    103  O         43.1970   26.9970  -33.5920 O.2   437  GLU437     -0.2867
    104  CB        40.7170   25.7310  -32.4260 C.3   437  GLU437      0.0388
    105  CG        40.0720   27.1120  -32.3280 C.3   437  GLU437      0.1160
    106  CD        39.4010   27.3700  -30.9870 C.2   437  GLU437      0.3649
    107  OE1       39.8110   26.7480  -29.9850 O.co2 437  GLU437     -0.2457
    108  OE2       38.4650   28.1990  -30.9320 O.co2 437  GLU437     -0.2457
    109  N         36.4240   35.1160  -34.7580 N.3   460  LEU460     -0.1245
    110  CA        35.9890   33.8450  -35.3230 C.3   460  LEU460      0.1561
    111  C         34.7700   34.0130  -36.2270 C.2   460  LEU460      0.2260
    112  O         34.0990   35.0480  -36.2350 O.2   460  LEU460     -0.2867
    113  CB        35.6700   32.8360  -34.2120 C.3   460  LEU460      0.0270
    114  CG        36.7190   32.6390  -33.1200 C.3   460  LEU460      0.0019
    115  CD1       36.2510   31.5770  -32.1430 C.3   460  LEU460      0.0001
    116  CD2       38.0670   32.2670  -33.7210 C.3   460  LEU460      0.0001
    117  N         37.1520   25.6710  -34.5510 N.3   616  MET616     -0.1231
    118  CA        36.6140   25.7330  -33.2030 C.3   616  MET616      0.1687
    119  C         35.4400   24.7680  -33.0630 C.2   616  MET616      0.2434
    120  O         34.8650   24.3250  -34.0610 O.2   616  MET616     -0.2733
    121  CB        36.1700   27.1570  -32.8740 C.3   616  MET616      0.0400
    122  CG        34.9540   27.6330  -33.6480 C.3   616  MET616      0.0596
    123  SD        35.3090   27.9290  -35.3890 S.3   616  MET616     -0.1393
    124  CE        36.5620   29.2000  -35.2340 C.3   616  MET616      0.0692
    125  N         35.0600   24.4220  -31.8300 N.am  617  PRO617     -0.2718
    126  CA        33.9220   23.5070  -31.6620 C.3   617  PRO617      0.1535
    127  C         32.5790   24.1300  -31.9990 C.2   617  PRO617      0.2599
    128  O         31.6780   23.4070  -32.4440 O.2   617  PRO617     -0.2715
    129  CB        34.0050   23.1080  -30.1820 C.3   617  PRO617      0.0310
    130  CG        34.7650   24.2030  -29.5310 C.3   617  PRO617      0.0237
    131  CD        35.7410   24.6970  -30.5520 C.3   617  PRO617      0.0939
    132  N         32.4180   25.4410  -31.8080 N.am  618  SER618     -0.1936
    133  CA        31.1540   26.1400  -32.0520 C.3   618  SER618      0.2055
    134  C         30.0100   25.4470  -31.3140 C.2   618  SER618      0.2643
    135  O         28.9500   25.1620  -31.8770 O.2   618  SER618     -0.2714
    136  CB        30.8620   26.2640  -33.5510 C.3   618  SER618      0.2130
    137  OG        30.6020   25.0050  -34.1450 O.3   618  SER618     -0.2179
    138  N         30.2450   25.1780  -30.0250 N.am  619  GLU619     -0.1963
    139  CA        29.2590   24.4810  -29.2050 C.3   619  GLU619      0.1733
    140  C         27.9150   25.1970  -29.2190 C.2   619  GLU619      0.2617
    141  O         26.8630   24.5590  -29.3490 O.2   619  GLU619     -0.2715
    142  CB        29.7760   24.3450  -27.7710 C.3   619  GLU619      0.0429
    143  CG        30.8970   23.3250  -27.5940 C.3   619  GLU619      0.1163
    144  CD        30.4000   21.8870  -27.5790 C.2   619  GLU619      0.3649
    145  OE1       31.2130   20.9740  -27.8520 O.co2 619  GLU619     -0.2457
    146  OE2       29.2000   21.6710  -27.3010 O.co2 619  GLU619     -0.2457
    147  N         27.9300   26.5230  -29.1020 N.am  620  THR620     -0.1937
    148  CA        26.7120   27.3190  -29.0130 C.3   620  THR620      0.2028
    149  C         26.2920   27.9150  -30.3520 C.2   620  THR620      0.2642
    150  O         25.1230   27.8080  -30.7320 O.2   620  THR620     -0.2714
    151  CB        26.8940   28.4390  -27.9830 C.3   620  THR620      0.1808
    152  OG1       27.3410   27.8770  -26.7410 O.3   620  THR620     -0.2208
    153  CG2       25.5830   29.1740  -27.7610 C.3   620  THR620      0.0379
    154  N         27.2260   28.5400  -31.0780 N.am  621  SER621     -0.1949
    155  CA        26.8580   29.2970  -32.2730 C.3   621  SER621      0.1924
    156  C         26.3220   28.4010  -33.3840 C.2   621  SER621      0.2314
    157  O         25.4920   28.8460  -34.1850 O.2   621  SER621     -0.2863
    158  CB        28.0550   30.1010  -32.7840 C.3   621  SER621      0.2116
    159  OG        29.1520   29.2590  -33.0840 O.3   621  SER621     -0.2180
@<TRIPOS>BOND
     1   112   111    2
     2   111   110    1
     3   123   124    1
     4   123   122    1
     5   110   109    1
     6   110   113    1
     7     7     1    1
     8     7     6    1
     9   117   118    1
    10   113   114    1
    11   157   156    2
    12   137   136    1
    13   120   119    2
    14     1     2    1
    15     6     5    1
    16   116   114    1
    17   122   121    1
    18   103   102    2
    19   136   133    1
    20   156   155    1
    21   118   119    1
    22   118   121    1
    23   114   115    1
    24   159   158    1
    25   119   125   am
    26   158   155    1
    27     2     5    1
    28     2     3    1
    29   128   127    2
    30   104   105    1
    31   104   101    1
    32   102   101    1
    33   105   106    1
    34   155   154    1
    35   133   132    1
    36   133   134    1
    37   127   132   am
    38   127   126    1
    39   101   100    1
    40     4     3    2
    41   135   134    2
    42   125   126    1
    43   125   131    1
    44   126   129    1
    45     3     8   am
    46   134   138   am
    47   154   149   am
    48   106   108   ar
    49   106   107   ar
    50   150   149    2
    51   131   130    1
    52     8     9    1
    53   149   148    1
    54    27    26    1
    55   129   130    1
    56   138   139    1
    57    17    18    2
    58    17    16    1
    59    22    23    1
    60    33    32    1
    61    26    23    1
    62   141   140    2
    63     9    10    1
    64     9    12    1
    65   140   139    1
    66   140   147   am
    67   139   142    1
    68    20    21    1
    69    20    19    1
    70   147   148    1
    71    10    15   am
    72    10    11    2
    73    21    15    1
    74   148   151    1
    75    15    16    1
    76    32    29    1
    77    23    24    1
    78    16    19    1
    79    97    96    2
    80    85    83   am
    81    84    83    2
    82    28    24   am
    83    28    29    1
    84    31    30    2
    85    83    82    1
    86    13    12    1
    87    12    14    1
    88   151   153    1
    89   151   152    1
    90    24    25    2
    91    29    30    1
    92   145   144   ar
    93    96    95    1
    94   142   143    1
    95   143   144    1
    96   144   146   ar
    97    98    95    1
    98    98    99    1
    99    82    79    1
   100    78    79    1
   101    95    94    1
   102    79    80    1
   103    43    42    1
   104    94    88   am
   105    67    66    1
   106    42    41    2
   107    42    44    1
   108    40    41    1
   109    40    39    1
   110    68    66    1
   111    80    86   am
   112    80    81    2
   113    86    87    1
   114    37    36    2
   115    66    65    2
   116    88    87    1
   117    88    89    2
   118    38    39    1
   119    38    35    1
   120    48    47    2
   121    87    90    1
   122    36    35    1
   123    90    91    1
   124    45    46    1
   125    65    64    1
   126    35    34    1
   127    47    46    1
   128    91    93    1
   129    91    92    1
   130    56    55    2
   131    64    63    1
   132    55    54    1
   133    55    57   am
   134    63    62    1
   135    54    53    1
   136    52    51    2
   137    62    59    1
   138    51    50    1
   139    53    50    1
   140    58    59    1
   141    76    75    2
   142    50    49    1
   143    59    60    1
   144    77    74    1
   145    75    74    1
   146    72    71    2
   147    74    73    1
   148    60    61    2
   149    60    69   am
   150    69    70    1
   151    71    70    1
