@<TRIPOS>MOLECULE
tmp/5cntC02.pdb
 99 94 0 0 0
SMALL
GASTEIGER

@<TRIPOS>ATOM
      1  N         -3.8070   38.5930  -18.8150 N.3     6  LYS6       -0.1245
      2  CA        -3.2020   38.8790  -20.1060 C.3     6  LYS6        0.1561
      3  C         -1.8260   39.5250  -19.9240 C.2     6  LYS6        0.2260
      4  O         -1.3510   39.7530  -18.8070 O.2     6  LYS6       -0.2867
      5  CB        -4.1260   39.7750  -20.9280 C.3     6  LYS6        0.0271
      6  CG        -5.5650   39.2820  -21.0050 C.3     6  LYS6        0.0035
      7  CD        -5.6860   38.0660  -21.9140 C.3     6  LYS6        0.0206
      8  CE        -5.5380   38.4610  -23.3800 C.3     6  LYS6        0.1093
      9  NZ        -5.7620   37.3270  -24.3170 N.3     6  LYS6       -0.1314
     10  N         -9.2890   38.0870  -18.3360 N.3    12  GLU12      -0.1245
     11  CA       -10.4610   37.5750  -19.0300 C.3    12  GLU12       0.1567
     12  C        -10.6560   36.1230  -18.6190 C.2    12  GLU12       0.2260
     13  O         -9.7750   35.5040  -18.0180 O.2    12  GLU12      -0.2867
     14  CB       -10.3270   37.7010  -20.5540 C.3    12  GLU12       0.0388
     15  CG        -9.1680   36.9200  -21.1610 C.3    12  GLU12       0.1160
     16  CD        -9.1210   37.0330  -22.6780 C.2    12  GLU12       0.3649
     17  OE1       -9.7670   37.9470  -23.2330 O.co2  12  GLU12      -0.2457
     18  OE2       -8.4340   36.2100  -23.3180 O.co2  12  GLU12      -0.2457
     19  N         -8.1570   29.7770  -27.2720 N.3    18  LYS18      -0.1245
     20  CA        -6.9700   30.5900  -27.5170 C.3    18  LYS18       0.1561
     21  C         -5.7160   29.7260  -27.5530 C.2    18  LYS18       0.2260
     22  O         -4.8070   29.9700  -28.3560 O.2    18  LYS18      -0.2867
     23  CB        -6.8390   31.6700  -26.4460 C.3    18  LYS18       0.0271
     24  CG        -8.1000   32.4780  -26.2030 C.3    18  LYS18       0.0035
     25  CD        -7.9880   33.8720  -26.7990 C.3    18  LYS18       0.0206
     26  CE        -9.1320   34.7570  -26.3310 C.3    18  LYS18       0.1093
     27  NZ        -8.9300   36.1770  -26.7290 N.3    18  LYS18      -0.1314
     28  N         -5.6600   27.7280  -30.8310 N.3    21  ARG21      -0.1231
     29  CA        -5.3870   28.5450  -32.0110 C.3    21  ARG21       0.1694
     30  C         -3.8910   28.7540  -32.2090 C.2    21  ARG21       0.2591
     31  O         -3.3880   28.6740  -33.3370 O.2    21  ARG21      -0.2718
     32  CB        -6.1040   29.8910  -31.8800 C.3    21  ARG21       0.0321
     33  CG        -6.3710   30.6130  -33.1940 C.3    21  ARG21       0.0489
     34  CD        -6.0400   32.1010  -33.0920 C.3    21  ARG21       0.2205
     35  NE        -6.7300   32.9030  -34.1020 N.pl3  21  ARG21      -0.0865
     36  CZ        -6.4240   32.9150  -35.3970 C.cat  21  ARG21       0.5346
     37  NH1       -5.4410   32.1550  -35.8630 N.pl3  21  ARG21       0.1354
     38  NH2       -7.1110   33.6820  -36.2340 N.pl3  21  ARG21       0.1354
     39  N         -3.1660   29.0200  -31.1220 N.am   22  VAL22      -0.1980
     40  CA        -1.7270   29.2520  -31.2160 C.3    22  VAL22       0.1595
     41  C         -1.0160   27.9950  -31.7000 C.2    22  VAL22       0.2287
     42  O         -0.1730   28.0430  -32.6040 O.2    22  VAL22      -0.2864
     43  CB        -1.1720   29.7270  -29.8620 C.3    22  VAL22       0.0276
     44  CG1        0.3300   29.9330  -29.9470 C.3    22  VAL22       0.0022
     45  CG2       -1.8680   31.0030  -29.4290 C.3    22  VAL22       0.0022
     46  N         -1.6140   27.0820  -35.2690 N.3    25  TRP25      -0.1241
     47  CA        -0.7850   27.9560  -36.0910 C.3    25  TRP25       0.1605
     48  C          0.6590   27.4720  -36.1130 C.2    25  TRP25       0.2264
     49  O          1.2930   27.4380  -37.1740 O.2    25  TRP25      -0.2867
     50  CB        -0.8720   29.3940  -35.5740 C.3    25  TRP25       0.0550
     51  CG         0.2110   30.3030  -36.0870 C.ar   25  TRP25       0.0003
     52  CD1        0.2620   30.9100  -37.3100 C.ar   25  TRP25       0.0946
     53  CD2        1.3870   30.7240  -35.3820 C.ar   25  TRP25       0.0152
     54  NE1        1.4020   31.6720  -37.4140 N.ar   25  TRP25      -0.2442
     55  CE2        2.1090   31.5760  -36.2440 C.ar   25  TRP25       0.0810
     56  CE3        1.9040   30.4590  -34.1080 C.ar   25  TRP25       0.0012
     57  CZ2        3.3190   32.1640  -35.8740 C.ar   25  TRP25       0.0191
     58  CZ3        3.1050   31.0430  -33.7430 C.ar   25  TRP25       0.0001
     59  CH2        3.7980   31.8860  -34.6220 C.ar   25  TRP25       0.0015
     60  N          1.2660   24.3960  -38.3450 N.3    28  GLU28      -0.1245
     61  CA         0.8330   24.4920  -39.7320 C.3    28  GLU28       0.1567
     62  C          1.9720   24.1420  -40.6850 C.2    28  GLU28       0.2260
     63  O          3.0660   24.7090  -40.6090 O.2    28  GLU28      -0.2867
     64  CB         0.2940   25.8980  -40.0020 C.3    28  GLU28       0.0388
     65  CG        -0.3730   26.0800  -41.3550 C.3    28  GLU28       0.1160
     66  CD        -0.9850   27.4610  -41.5100 C.2    28  GLU28       0.3649
     67  OE1       -1.5710   27.7410  -42.5790 O.co2  28  GLU28      -0.2457
     68  OE2       -0.8830   28.2630  -40.5540 O.co2  28  GLU28      -0.2457
     69  N          7.4470   33.5620  -31.6350 N.3    84  PHE84      -0.1241
     70  CA         6.2410   34.2830  -31.2380 C.3    84  PHE84       0.1605
     71  C          6.3880   34.8830  -29.8430 C.2    84  PHE84       0.2264
     72  O          6.0640   36.0550  -29.6170 O.2    84  PHE84      -0.2867
     73  CB         5.0450   33.3280  -31.2920 C.3    84  PHE84       0.0534
     74  CG         3.7240   33.9620  -30.9470 C.ar   84  PHE84      -0.0203
     75  CD1        2.9410   34.5480  -31.9270 C.ar   84  PHE84      -0.0042
     76  CD2        3.2530   33.9440  -29.6410 C.ar   84  PHE84      -0.0042
     77  CE1        1.7190   35.1190  -31.6070 C.ar   84  PHE84      -0.0003
     78  CE2        2.0360   34.5140  -29.3150 C.ar   84  PHE84      -0.0003
     79  CZ         1.2670   35.1010  -30.2990 C.ar   84  PHE84      -0.0000
     80  N          6.7770   39.1800  -28.5800 N.3    88  LYS88      -0.1245
     81  CA         5.9870   39.8800  -27.5730 C.3    88  LYS88       0.1561
     82  C          6.8760   40.5220  -26.5150 C.2    88  LYS88       0.2260
     83  O          6.5830   41.6250  -26.0400 O.2    88  LYS88      -0.2867
     84  CB         4.9960   38.9170  -26.9160 C.3    88  LYS88       0.0271
     85  CG         4.0110   38.2490  -27.8700 C.3    88  LYS88       0.0035
     86  CD         3.1510   39.2780  -28.5850 C.3    88  LYS88       0.0206
     87  CE         2.1170   38.6180  -29.4770 C.3    88  LYS88       0.1093
     88  NZ         1.1400   37.8260  -28.6830 N.3    88  LYS88      -0.1314
     89  N          3.2860   41.3240  -32.4530 N.3    94  PHE94      -0.1241
     90  CA         4.0110   40.3760  -33.2910 C.3    94  PHE94       0.1605
     91  C          4.8980   41.0700  -34.3220 C.2    94  PHE94       0.2264
     92  O          6.0870   40.7540  -34.4300 O.2    94  PHE94      -0.2867
     93  CB         3.0310   39.4320  -33.9940 C.3    94  PHE94       0.0534
     94  CG         3.6990   38.4420  -34.9090 C.ar   94  PHE94      -0.0203
     95  CD1        4.3790   37.3470  -34.3970 C.ar   94  PHE94      -0.0042
     96  CD2        3.6650   38.6190  -36.2820 C.ar   94  PHE94      -0.0042
     97  CE1        5.0000   36.4400  -35.2400 C.ar   94  PHE94      -0.0003
     98  CE2        4.2860   37.7190  -37.1290 C.ar   94  PHE94      -0.0003
     99  CZ         4.9540   36.6290  -36.6070 C.ar   94  PHE94      -0.0000
@<TRIPOS>BOND
     1    67    66   ar
     2    66    65    1
     3    66    68   ar
     4    65    64    1
     5    62    63    2
     6    62    61    1
     7    64    61    1
     8    61    60    1
     9    54    52   ar
    10    54    55   ar
    11    52    51   ar
    12    49    48    2
    13    98    99   ar
    14    98    96   ar
    15    99    97   ar
    16    96    94   ar
    17    55    57   ar
    18    55    53   ar
    19    38    36    1
    20    48    47    1
    21    47    50    1
    22    47    46    1
    23    51    50    1
    24    51    53   ar
    25    57    59   ar
    26    37    36    1
    27    36    35    2
    28    53    56   ar
    29    97    95   ar
    30    94    95   ar
    31    94    93    1
    32    59    58   ar
    33    92    91    2
    34    91    90    1
    35    56    58   ar
    36    35    34    1
    37    93    90    1
    38    31    30    2
    39    90    89    1
    40    33    34    1
    41    33    32    1
    42    42    41    2
    43    30    29    1
    44    30    39   am
    45    29    32    1
    46    29    28    1
    47    75    77   ar
    48    75    74   ar
    49    41    40    1
    50    69    70    1
    51    77    79   ar
    52    73    70    1
    53    73    74    1
    54    70    71    1
    55    40    39    1
    56    40    43    1
    57    74    76   ar
    58    79    78   ar
    59    44    43    1
    60    43    45    1
    61    71    72    2
    62    76    78   ar
    63    87    88    1
    64    87    86    1
    65    86    85    1
    66    80    81    1
    67    22    21    2
    68    85    84    1
    69    81    84    1
    70    81    82    1
    71    21    20    1
    72    20    19    1
    73    20    23    1
    74    25    26    1
    75    25    24    1
    76    27    26    1
    77    82    83    2
    78    23    24    1
    79     9     8    1
    80     8     7    1
    81    18    16   ar
    82    17    16   ar
    83    16    15    1
    84     7     6    1
    85    15    14    1
    86     6     5    1
    87     5     2    1
    88    14    11    1
    89     2     3    1
    90     2     1    1
    91     3     4    2
    92    11    12    1
    93    11    10    1
    94    12    13    2
