@<TRIPOS>MOLECULE
tmp/5cnuA01.pdb
 159 154 0 0 0
SMALL
GASTEIGER

@<TRIPOS>ATOM
      1  N         26.3090  -72.5300   59.3740 N.3   204  PRO204     -0.2102
      2  CA        25.6500  -71.5900   58.4580 C.3   204  PRO204      0.1504
      3  C         24.6620  -70.6790   59.1760 C.2   204  PRO204      0.2576
      4  O         24.3110  -70.8710   60.3410 O.2   204  PRO204     -0.2718
      5  CB        24.9370  -72.5100   57.4670 C.3   204  PRO204      0.0282
      6  CG        24.6490  -73.7360   58.2610 C.3   204  PRO204      0.0208
      7  CD        25.8280  -73.9080   59.1840 C.3   204  PRO204      0.0893
      8  N         24.2040  -69.6710   58.4320 N.am  205  THR205     -0.1940
      9  CA        23.2940  -68.6610   58.9730 C.3   205  THR205      0.2013
     10  C         22.0540  -69.2390   59.6480 C.2   205  THR205      0.2484
     11  O         21.7770  -68.8540   60.7950 O.2   205  THR205     -0.2729
     12  CB        22.9030  -67.6750   57.8620 C.3   205  THR205      0.1807
     13  OG1       24.0730  -67.0060   57.3800 O.3   205  THR205     -0.2208
     14  CG2       21.9120  -66.6430   58.3800 C.3   205  THR205      0.0379
     15  N         21.2730  -70.1390   59.0300 N.am  206  PRO206     -0.2726
     16  CA        20.0600  -70.6080   59.7190 C.3   206  PRO206      0.1402
     17  C         20.3540  -71.3870   60.9890 C.2   206  PRO206      0.2269
     18  O         19.5550  -71.3340   61.9320 O.2   206  PRO206     -0.2865
     19  CB        19.3620  -71.4690   58.6560 C.3   206  PRO206      0.0296
     20  CG        20.4410  -71.8990   57.7510 C.3   206  PRO206      0.0237
     21  CD        21.4040  -70.7570   57.6960 C.3   206  PRO206      0.0939
     22  N         19.6640  -74.4910   54.7820 N.3   220  SER220     -0.1202
     23  CA        19.9270  -73.2830   54.0060 C.3   220  SER220      0.2020
     24  C         19.2960  -73.3460   52.6190 C.2   220  SER220      0.2619
     25  O         18.8280  -72.3260   52.0980 O.2   220  SER220     -0.2717
     26  CB        21.4340  -73.0540   53.8910 C.3   220  SER220      0.2103
     27  OG        22.0250  -72.8600   55.1640 O.3   220  SER220     -0.2182
     28  N         19.2570  -74.5270   52.0120 N.am  221  CYS221     -0.1969
     29  CA        18.9050  -74.6700   50.6060 C.3   221  CYS221      0.1712
     30  C         17.6090  -75.4500   50.4610 C.2   221  CYS221      0.2296
     31  O         17.4740  -76.5450   51.0140 O.2   221  CYS221     -0.2864
     32  CB        20.0250  -75.3670   49.8320 C.3   221  CYS221      0.0983
     33  SG        21.6780  -74.7820   50.2650 S.3   221  CYS221     -0.0798
     34  N         14.1740  -68.4940   56.7220 N.3   247  ARG247     -0.1231
     35  CA        15.6300  -68.3660   56.6150 C.3   247  ARG247      0.1694
     36  C         16.2220  -69.1630   55.4560 C.2   247  ARG247      0.2592
     37  O         17.4110  -69.5030   55.4850 O.2   247  ARG247     -0.2718
     38  CB        16.3330  -68.8200   57.9010 C.3   247  ARG247      0.0321
     39  CG        15.6140  -68.5380   59.1940 C.3   247  ARG247      0.0489
     40  CD        16.3640  -69.1850   60.3450 C.3   247  ARG247      0.2205
     41  NE        15.7580  -68.8760   61.6340 N.pl3 247  ARG247     -0.0865
     42  CZ        14.9750  -69.7120   62.3070 C.cat 247  ARG247      0.5346
     43  NH1       14.7000  -70.9140   61.8120 N.pl3 247  ARG247      0.1354
     44  NH2       14.4650  -69.3440   63.4740 N.pl3 247  ARG247      0.1354
     45  N         15.4390  -69.4960   54.4350 N.am  248  ALA248     -0.1966
     46  CA        15.9270  -70.3770   53.3870 C.3   248  ALA248      0.1728
     47  C         16.0470  -69.6500   52.0540 C.2   248  ALA248      0.2616
     48  O         15.3640  -68.6540   51.7910 O.2   248  ALA248     -0.2715
     49  CB        15.0150  -71.5960   53.2320 C.3   248  ALA248      0.0334
     50  N         16.9280  -70.1790   51.2130 N.am  249  GLY249     -0.1955
     51  CA        17.1340  -69.6830   49.8600 C.3   249  GLY249      0.1869
     52  C         16.6730  -70.7390   48.8720 C.2   249  GLY249      0.2309
     53  O         16.9630  -71.9270   49.0410 O.2   249  GLY249     -0.2863
     54  N         17.6070  -62.4220   57.1860 N.3   294  ARG294     -0.1231
     55  CA        18.1800  -61.7110   56.0500 C.3   294  ARG294      0.1694
     56  C         17.1880  -61.8000   54.9000 C.2   294  ARG294      0.2593
     57  O         16.1730  -62.4970   54.9820 O.2   294  ARG294     -0.2718
     58  CB        19.5380  -62.2870   55.6430 C.3   294  ARG294      0.0321
     59  CG        19.4760  -63.7440   55.2510 C.3   294  ARG294      0.0489
     60  CD        20.8220  -64.2500   54.8000 C.3   294  ARG294      0.2205
     61  NE        20.8190  -65.7040   54.7050 N.pl3 294  ARG294     -0.0865
     62  CZ        21.8830  -66.4370   54.3960 C.cat 294  ARG294      0.5346
     63  NH1       23.0480  -65.8520   54.1480 N.pl3 294  ARG294      0.1354
     64  NH2       21.7810  -67.7570   54.3400 N.pl3 294  ARG294      0.1354
     65  N         17.4950  -61.0800   53.8270 N.am  295  GLY295     -0.1942
     66  CA        16.6690  -61.1110   52.6380 C.3   295  GLY295      0.2014
     67  C         16.9020  -62.3520   51.8050 C.2   295  GLY295      0.2639
     68  O         18.0080  -62.5610   51.3000 O.2   295  GLY295     -0.2714
     69  N         15.8770  -63.1940   51.6680 N.am  296  GLY296     -0.1939
     70  CA        16.0060  -64.3770   50.8470 C.3   296  GLY296      0.2014
     71  C         15.9470  -64.0690   49.3620 C.2   296  GLY296      0.2638
     72  O         15.4090  -63.0540   48.9190 O.2   296  GLY296     -0.2714
     73  N         16.5150  -64.9730   48.5730 N.am  297  ALA297     -0.1977
     74  CA        16.5140  -64.8410   47.1270 C.3   297  ALA297      0.1597
     75  C         16.2250  -66.2050   46.5220 C.2   297  ALA297      0.2287
     76  O         15.9830  -67.1860   47.2320 O.2   297  ALA297     -0.2864
     77  CB        17.8390  -64.2740   46.6120 C.3   297  ALA297      0.0319
     78  N         20.7400  -74.9660   43.2800 N.3   433  ASN433     -0.1225
     79  CA        20.1660  -74.0820   44.2940 C.3   433  ASN433      0.1785
     80  C         20.4480  -72.6060   44.0410 C.2   433  ASN433      0.2597
     81  O         20.7200  -72.1950   42.9090 O.2   433  ASN433     -0.2718
     82  CB        20.6830  -74.4660   45.6770 C.3   433  ASN433      0.1169
     83  CG        22.1670  -74.2500   45.8130 C.2   433  ASN433      0.2627
     84  OD1       22.9310  -74.5330   44.8900 O.2   433  ASN433     -0.2716
     85  ND2       22.5900  -73.7610   46.9720 N.am  433  ASN433     -0.0877
     86  N         20.3810  -71.8020   45.1060 N.am  434  LEU434     -0.1966
     87  CA        20.5940  -70.3630   44.9760 C.3   434  LEU434      0.1728
     88  C         22.0200  -70.0450   44.5610 C.2   434  LEU434      0.2616
     89  O         22.2480  -69.2060   43.6830 O.2   434  LEU434     -0.2715
     90  CB        20.2700  -69.6530   46.2900 C.3   434  LEU434      0.0311
     91  CG        20.2790  -68.1200   46.2860 C.3   434  LEU434      0.0022
     92  CD1       19.5620  -67.5410   45.0890 C.3   434  LEU434      0.0001
     93  CD2       19.6750  -67.5960   47.5730 C.3   434  LEU434      0.0001
     94  N         22.9930  -70.6780   45.2050 N.am  435  CYS435     -0.1968
     95  CA        24.3940  -70.3640   44.9930 C.3   435  CYS435      0.1712
     96  C         25.0970  -71.4110   44.1440 C.2   435  CYS435      0.2296
     97  O         26.3260  -71.3830   44.0390 O.2   435  CYS435     -0.2864
     98  CB        25.0960  -70.1980   46.3400 C.3   435  CYS435      0.0983
     99  SG        24.3700  -68.8980   47.3750 S.3   435  CYS435     -0.0798
    100  N         25.7330  -74.6620   44.3660 N.3   437  GLU437     -0.1245
    101  CA        26.5960  -75.6790   44.9490 C.3   437  GLU437      0.1567
    102  C         25.8400  -76.9190   45.3990 C.2   437  GLU437      0.2260
    103  O         26.4750  -77.8710   45.8700 O.2   437  GLU437     -0.2867
    104  CB        27.3840  -75.1090   46.1390 C.3   437  GLU437      0.0388
    105  CG        26.6370  -75.1050   47.4660 C.3   437  GLU437      0.1160
    106  CD        25.7530  -73.8900   47.6420 C.2   437  GLU437      0.3649
    107  OE1       25.2810  -73.3510   46.6240 O.co2 437  GLU437     -0.2457
    108  OE2       25.5240  -73.4720   48.7970 O.co2 437  GLU437     -0.2457
    109  N         23.9420  -77.4610   55.9350 N.3   460  LEU460     -0.1245
    110  CA        25.3180  -77.1060   55.6260 C.3   460  LEU460      0.1561
    111  C         26.1560  -76.9110   56.8850 C.2   460  LEU460      0.2260
    112  O         25.6380  -76.7680   57.9960 O.2   460  LEU460     -0.2867
    113  CB        25.3690  -75.8290   54.7770 C.3   460  LEU460      0.0270
    114  CG        24.4520  -75.7510   53.5570 C.3   460  LEU460      0.0019
    115  CD1       24.6890  -74.4600   52.8180 C.3   460  LEU460      0.0001
    116  CD2       24.6880  -76.9230   52.6330 C.3   460  LEU460      0.0001
    117  N         30.0530  -74.3270   49.4730 N.3   616  MET616     -0.1231
    118  CA        29.2210  -73.1330   49.4370 C.3   616  MET616      0.1687
    119  C         30.0620  -71.8790   49.6580 C.2   616  MET616      0.2434
    120  O         31.1840  -71.9530   50.1680 O.2   616  MET616     -0.2733
    121  CB        28.1200  -73.2270   50.4930 C.3   616  MET616      0.0400
    122  CG        28.6170  -73.2450   51.9100 C.3   616  MET616      0.0596
    123  SD        29.5790  -74.7140   52.2560 S.3   616  MET616     -0.1393
    124  CE        29.6950  -74.5490   54.0250 C.3   616  MET616      0.0692
    125  N         29.5480  -70.7020   49.2740 N.am  617  PRO617     -0.2718
    126  CA        30.3590  -69.4780   49.4050 C.3   617  PRO617      0.1535
    127  C         30.6440  -69.0640   50.8380 C.2   617  PRO617      0.2599
    128  O         31.6540  -68.3900   51.0740 O.2   617  PRO617     -0.2715
    129  CB        29.5190  -68.4170   48.6800 C.3   617  PRO617      0.0310
    130  CG        28.1440  -68.9650   48.6470 C.3   617  PRO617      0.0237
    131  CD        28.2930  -70.4460   48.5480 C.3   617  PRO617      0.0939
    132  N         29.7900  -69.4240   51.7950 N.am  618  SER618     -0.1936
    133  CA        29.9580  -69.0220   53.1920 C.3   618  SER618      0.2055
    134  C         30.1730  -67.5150   53.2980 C.2   618  SER618      0.2643
    135  O         31.0660  -67.0380   54.0010 O.2   618  SER618     -0.2714
    136  CB        31.1070  -69.7830   53.8520 C.3   618  SER618      0.2130
    137  OG        32.3560  -69.3500   53.3470 O.3   618  SER618     -0.2179
    138  N         29.3400  -66.7650   52.5710 N.am  619  GLU619     -0.1963
    139  CA        29.5180  -65.3190   52.4810 C.3   619  GLU619      0.1733
    140  C         29.4920  -64.6660   53.8550 C.2   619  GLU619      0.2617
    141  O         30.3200  -63.7960   54.1530 O.2   619  GLU619     -0.2715
    142  CB        28.4340  -64.7110   51.5890 C.3   619  GLU619      0.0429
    143  CG        28.7420  -64.7570   50.0990 C.3   619  GLU619      0.1163
    144  CD        29.8960  -63.8590   49.7010 C.2   619  GLU619      0.3649
    145  OE1       30.3570  -63.9820   48.5480 O.co2 619  GLU619     -0.2457
    146  OE2       30.3530  -63.0470   50.5350 O.co2 619  GLU619     -0.2457
    147  N         28.5580  -65.0800   54.7060 N.am  620  THR620     -0.1937
    148  CA        28.3940  -64.5110   56.0370 C.3   620  THR620      0.2028
    149  C         29.0130  -65.3690   57.1280 C.2   620  THR620      0.2642
    150  O         29.6730  -64.8410   58.0270 O.2   620  THR620     -0.2714
    151  CB        26.9070  -64.3040   56.3450 C.3   620  THR620      0.1808
    152  OG1       26.2850  -63.5980   55.2630 O.3   620  THR620     -0.2208
    153  CG2       26.7330  -63.5170   57.6390 C.3   620  THR620      0.0379
    154  N         28.8040  -66.6850   57.0660 N.am  621  SER621     -0.1949
    155  CA        29.2140  -67.5640   58.1520 C.3   621  SER621      0.1924
    156  C         30.7280  -67.6100   58.3230 C.2   621  SER621      0.2314
    157  O         31.2140  -67.7760   59.4480 O.2   621  SER621     -0.2863
    158  CB        28.6660  -68.9650   57.9050 C.3   621  SER621      0.2116
    159  OG        29.1610  -69.4740   56.6820 O.3   621  SER621     -0.2180
@<TRIPOS>BOND
     1    81    80    2
     2    78    79    1
     3    89    88    2
     4    97    96    2
     5    80    79    1
     6    80    86   am
     7    96    95    1
     8    79    82    1
     9   100   101    1
    10    88    87    1
    11    88    94   am
    12    84    83    2
    13   101   102    1
    14   101   104    1
    15    87    86    1
    16    87    90    1
    17    95    94    1
    18    95    98    1
    19    92    91    1
    20   102   103    2
    21    82    83    1
    22    83    85   am
    23   104   105    1
    24    91    90    1
    25    91    93    1
    26    98    99    1
    27    75    74    1
    28    75    76    2
    29    77    74    1
    30   107   106   ar
    31    74    73    1
    32   105   106    1
    33   106   108   ar
    34   131   130    1
    35   131   125    1
    36   145   144   ar
    37    73    71   am
    38   130   129    1
    39   129   126    1
    40    52    53    2
    41    52    51    1
    42    72    71    2
    43   125   126    1
    44   125   119   am
    45    71    70    1
    46   126   127    1
    47   118   117    1
    48   118   119    1
    49   118   121    1
    50   119   120    2
    51   144   143    1
    52   144   146   ar
    53    32    33    1
    54    32    29    1
    55    51    50    1
    56   143   142    1
    57    30    29    1
    58    30    31    2
    59   121   122    1
    60    29    28    1
    61   127   128    2
    62   127   132   am
    63    70    69    1
    64    50    47   am
    65    68    67    2
    66   142   139    1
    67    69    67   am
    68    48    47    2
    69   132   133    1
    70    67    66    1
    71   122   123    1
    72    28    24   am
    73    47    46    1
    74    25    24    2
    75   123   124    1
    76   139   138    1
    77   139   140    1
    78   138   134   am
    79    24    23    1
    80   116   114    1
    81    66    65    1
    82   115   114    1
    83   133   134    1
    84   133   136    1
    85    49    46    1
    86   134   135    2
    87   137   136    1
    88    46    45    1
    89   114   113    1
    90    65    56   am
    91   140   141    2
    92   140   147   am
    93    26    23    1
    94    26    27    1
    95    23    22    1
    96    63    62    1
    97    64    62    1
    98    62    61    2
    99    45    36   am
   100    61    60    1
   101   147   148    1
   102   113   110    1
   103    60    59    1
   104    56    57    2
   105    56    55    1
   106    59    58    1
   107   152   151    1
   108    36    37    2
   109    36    35    1
   110   110   109    1
   111   110   111    1
   112    58    55    1
   113   148   151    1
   114   148   149    1
   115    55    54    1
   116   151   153    1
   117    35    34    1
   118    35    38    1
   119   159   158    1
   120   111   112    2
   121   154   149   am
   122   154   155    1
   123   149   150    2
   124    13    12    1
   125     5     6    1
   126     5     2    1
   127    21    20    1
   128    21    15    1
   129    20    19    1
   130    12    14    1
   131    12     9    1
   132    38    39    1
   133   158   155    1
   134   155   156    1
   135     6     7    1
   136   156   157    2
   137     8     9    1
   138     8     3   am
   139     2     3    1
   140     2     1    1
   141    19    16    1
   142     9    10    1
   143    15    10   am
   144    15    16    1
   145     3     4    2
   146     7     1    1
   147    39    40    1
   148    10    11    2
   149    16    17    1
   150    40    41    1
   151    17    18    2
   152    41    42    2
   153    43    42    1
   154    42    44    1
