@<TRIPOS>MOLECULE
tmp/5cnvA02.pdb
 99 95 0 0 0
SMALL
GASTEIGER

@<TRIPOS>ATOM
      1  N         83.0070   16.1340   13.0910 N.3     9  LYS9       -0.1245
      2  CA        83.1310   17.5060   13.5580 C.3     9  LYS9        0.1561
      3  C         82.5470   18.4720   12.5250 C.2     9  LYS9        0.2260
      4  O         82.1520   18.0840   11.4220 O.2     9  LYS9       -0.2867
      5  CB        84.5920   17.8380   13.8550 C.3     9  LYS9        0.0271
      6  CG        85.2970   16.7910   14.7150 C.3     9  LYS9        0.0035
      7  CD        84.9470   16.9260   16.1960 C.3     9  LYS9        0.0206
      8  CE        85.6570   18.1200   16.8270 C.3     9  LYS9        0.1093
      9  NZ        85.4140   18.2530   18.2960 N.3     9  LYS9       -0.1314
     10  N         86.7530   12.0870   14.7560 N.3    15  GLU15      -0.1245
     11  CA        87.5670   11.7030   15.9030 C.3    15  GLU15       0.1567
     12  C         86.7600   10.7500   16.7770 C.2    15  GLU15       0.2260
     13  O         85.5660   10.5350   16.5530 O.2    15  GLU15      -0.2867
     14  CB        88.0130   12.9310   16.7040 C.3    15  GLU15       0.0388
     15  CG        86.8590   13.7330   17.2810 C.3    15  GLU15       0.1160
     16  CD        87.3200   14.8800   18.1590 C.2    15  GLU15       0.3649
     17  OE1       88.4710   15.3390   17.9970 O.co2  15  GLU15      -0.2457
     18  OE2       86.5290   15.3260   19.0140 O.co2  15  GLU15      -0.2457
     19  N         83.3950   16.4080   25.9910 N.3    21  LYS21      -0.1245
     20  CA        83.0670   17.5890   25.2010 C.3    21  LYS21       0.1561
     21  C         81.6400   18.0520   25.4780 C.2    21  LYS21       0.2260
     22  O         81.3850   19.2540   25.6210 O.2    21  LYS21      -0.2867
     23  CB        83.2610   17.2910   23.7130 C.3    21  LYS21       0.0271
     24  CG        84.6190   16.6920   23.3720 C.3    21  LYS21       0.0035
     25  CD        85.5520   17.7120   22.7470 C.3    21  LYS21       0.0206
     26  CE        86.8070   17.0470   22.2020 C.3    21  LYS21       0.1093
     27  NZ        87.6350   17.9850   21.3950 N.3    21  LYS21      -0.1314
     28  N         81.4780   19.5720   29.1140 N.3    24  ARG24      -0.1231
     29  CA        82.0240   20.9190   29.2440 C.3    24  ARG24       0.1694
     30  C         81.0690   21.9670   28.6820 C.2    24  ARG24       0.2591
     31  O         80.8760   23.0290   29.2870 O.2    24  ARG24      -0.2718
     32  CB        83.3860   20.9970   28.5540 C.3    24  ARG24       0.0321
     33  CG        84.4710   20.1890   29.2540 C.3    24  ARG24       0.0489
     34  CD        85.8330   20.3450   28.5890 C.3    24  ARG24       0.2205
     35  NE        86.3290   21.7170   28.6720 N.pl3  24  ARG24      -0.0865
     36  CZ        86.3140   22.5850   27.6640 C.cat  24  ARG24       0.5346
     37  NH1       85.8300   22.2240   26.4790 N.pl3  24  ARG24       0.1354
     38  NH2       86.7870   23.8150   27.8400 N.pl3  24  ARG24       0.1354
     39  N         80.4720   21.6920   27.5190 N.am   25  VAL25      -0.1980
     40  CA        79.5510   22.6460   26.9040 C.3    25  VAL25       0.1595
     41  C         78.3730   22.9240   27.8280 C.2    25  VAL25       0.2287
     42  O         77.9990   24.0810   28.0530 O.2    25  VAL25      -0.2864
     43  CB        79.0860   22.1360   25.5290 C.3    25  VAL25       0.0276
     44  CG1       78.0450   23.0660   24.9530 C.3    25  VAL25       0.0022
     45  CG2       80.2670   22.0380   24.5890 C.3    25  VAL25       0.0022
     46  N         79.3750   24.8150   30.9250 N.3    28  TRP28      -0.1241
     47  CA        79.5770   26.2180   30.5870 C.3    28  TRP28       0.1605
     48  C         78.2540   26.9700   30.5720 C.2    28  TRP28       0.2264
     49  O         78.1340   28.0500   31.1590 O.2    28  TRP28      -0.2867
     50  CB        80.2660   26.3270   29.2280 C.3    28  TRP28       0.0550
     51  CG        80.1980   27.6910   28.6340 C.ar   28  TRP28       0.0003
     52  CD1       80.9610   28.7680   28.9680 C.ar   28  TRP28       0.0946
     53  CD2       79.2990   28.1370   27.6090 C.ar   28  TRP28       0.0152
     54  NE1       80.6040   29.8570   28.2060 N.ar   28  TRP28      -0.2442
     55  CE2       79.5850   29.4960   27.3660 C.ar   28  TRP28       0.0810
     56  CE3       78.2830   27.5200   26.8730 C.ar   28  TRP28       0.0012
     57  CZ2       78.8930   30.2470   26.4170 C.ar   28  TRP28       0.0191
     58  CZ3       77.5950   28.2690   25.9310 C.ar   28  TRP28       0.0001
     59  CH2       77.9050   29.6170   25.7120 C.ar   28  TRP28       0.0015
     60  N         75.7710   29.8820   21.3430 N.3    87  PHE87      -0.1241
     61  CA        76.9860   29.1530   20.9910 C.3    87  PHE87       0.1605
     62  C         76.8410   28.4510   19.6460 C.2    87  PHE87       0.2264
     63  O         77.7700   28.4540   18.8290 O.2    87  PHE87      -0.2867
     64  CB        77.3100   28.1490   22.0970 C.3    87  PHE87       0.0534
     65  CG        78.5730   27.3740   21.8750 C.ar   87  PHE87      -0.0203
     66  CD1       79.7940   27.8850   22.2740 C.ar   87  PHE87      -0.0042
     67  CD2       78.5350   26.1180   21.2920 C.ar   87  PHE87      -0.0042
     68  CE1       80.9580   27.1650   22.0780 C.ar   87  PHE87      -0.0003
     69  CE2       79.6930   25.3950   21.0930 C.ar   87  PHE87      -0.0003
     70  CZ        80.9070   25.9200   21.4870 C.ar   87  PHE87      -0.0000
     71  N         79.0540   29.3020   15.8130 N.3    91  LYS91      -0.1245
     72  CA        79.7460   28.3550   14.9460 C.3    91  LYS91       0.1561
     73  C         79.1320   28.3380   13.5530 C.2    91  LYS91       0.2260
     74  O         79.8560   28.2850   12.5530 O.2    91  LYS91      -0.2867
     75  CB        79.7160   26.9540   15.5580 C.3    91  LYS91       0.0271
     76  CG        80.4000   26.8190   16.9130 C.3    91  LYS91       0.0035
     77  CD        81.8760   27.1720   16.8360 C.3    91  LYS91       0.0206
     78  CE        82.5550   27.0360   18.1930 C.3    91  LYS91       0.1093
     79  NZ        82.6270   25.6180   18.6460 N.3    91  LYS91      -0.1314
     80  N         83.7790   30.6590   18.1170 N.3    97  PHE97      -0.1227
     81  CA        82.9050   31.4120   19.0050 C.3    97  PHE97       0.1736
     82  C         83.1160   32.9140   18.8570 C.2    97  PHE97       0.2595
     83  O         82.1460   33.6690   18.7560 O.2    97  PHE97      -0.2718
     84  CB        83.1120   31.0040   20.4640 C.3    97  PHE97       0.0547
     85  CG        82.2230   31.7480   21.4220 C.ar   97  PHE97      -0.0202
     86  CD1       80.9170   31.3330   21.6380 C.ar   97  PHE97      -0.0042
     87  CD2       82.6770   32.8850   22.0770 C.ar   97  PHE97      -0.0042
     88  CE1       80.0910   32.0180   22.5110 C.ar   97  PHE97      -0.0003
     89  CE2       81.8550   33.5770   22.9490 C.ar   97  PHE97      -0.0003
     90  CZ        80.5600   33.1430   23.1660 C.ar   97  PHE97      -0.0000
     91  N         84.3680   33.3590   18.8800 N.am   98  GLU98      -0.1979
     92  CA        84.6650   34.7880   18.8430 C.3    98  GLU98       0.1602
     93  C         84.2990   35.3850   17.4860 C.2    98  GLU98       0.2287
     94  O         84.7390   34.8740   16.4490 O.2    98  GLU98      -0.2864
     95  CB        86.1420   35.0160   19.1460 C.3    98  GLU98       0.0415
     96  CG        86.5190   34.6610   20.5700 C.3    98  GLU98       0.1163
     97  CD        85.7960   35.5350   21.5810 C.2    98  GLU98       0.3649
     98  OE1       85.4060   36.6680   21.2150 O.co2  98  GLU98      -0.2457
     99  OE2       85.6110   35.0920   22.7360 O.co2  98  GLU98      -0.2457
@<TRIPOS>BOND
     1     4     3    2
     2     3     2    1
     3    74    73    2
     4     1     2    1
     5    73    72    1
     6     2     5    1
     7     5     6    1
     8     6     7    1
     9    10    11    1
    10    72    75    1
    11    72    71    1
    12    75    76    1
    13    11    14    1
    14    11    12    1
    15     7     8    1
    16    94    93    2
    17    13    12    2
    18    14    15    1
    19     8     9    1
    20    77    76    1
    21    77    78    1
    22    15    16    1
    23    93    92    1
    24    17    16   ar
    25    80    81    1
    26    16    18   ar
    27    78    79    1
    28    83    82    2
    29    63    62    2
    30    92    91    1
    31    92    95    1
    32    82    91   am
    33    82    81    1
    34    81    84    1
    35    95    96    1
    36    62    61    1
    37    84    85    1
    38    96    97    1
    39    61    60    1
    40    61    64    1
    41    69    67   ar
    42    69    70   ar
    43    98    97   ar
    44    67    65   ar
    45    27    26    1
    46    85    86   ar
    47    85    87   ar
    48    70    68   ar
    49    97    99   ar
    50    86    88   ar
    51    65    64    1
    52    65    66   ar
    53    87    89   ar
    54    68    66   ar
    55    26    25    1
    56    88    90   ar
    57    25    24    1
    58    89    90   ar
    59    24    23    1
    60    23    20    1
    61    45    43    1
    62    44    43    1
    63    20    21    1
    64    20    19    1
    65    21    22    2
    66    43    40    1
    67    59    58   ar
    68    59    57   ar
    69    58    56   ar
    70    57    55   ar
    71    37    36    1
    72    56    53   ar
    73    40    39    1
    74    40    41    1
    75    55    53   ar
    76    55    54   ar
    77    39    30   am
    78    53    51   ar
    79    36    38    1
    80    36    35    2
    81    41    42    2
    82    54    52   ar
    83    32    29    1
    84    32    33    1
    85    34    35    1
    86    34    33    1
    87    51    52   ar
    88    51    50    1
    89    30    29    1
    90    30    31    2
    91    28    29    1
    92    50    47    1
    93    48    47    1
    94    48    49    2
    95    47    46    1
