@<TRIPOS>MOLECULE
tmp/5co4A00.pdb
 133 128 0 0 0
SMALL
GASTEIGER

@<TRIPOS>ATOM
      1  N         20.8930   16.2030  -13.9670 N.3    92  PHE92      -0.1227
      2  CA        21.1590   15.5200  -12.7070 C.3    92  PHE92       0.1736
      3  C         20.1120   15.8320  -11.6620 C.2    92  PHE92       0.2596
      4  O         19.8200   16.9910  -11.3810 O.2    92  PHE92      -0.2718
      5  CB        22.5620   15.8690  -12.1950 C.3    92  PHE92       0.0547
      6  CG        23.6330   15.0890  -12.8890 C.ar   92  PHE92      -0.0202
      7  CD1       24.0300   15.4210  -14.1800 C.ar   92  PHE92      -0.0042
      8  CD2       24.1890   13.9670  -12.2870 C.ar   92  PHE92      -0.0042
      9  CE1       24.9970   14.6790  -14.8350 C.ar   92  PHE92      -0.0003
     10  CE2       25.1550   13.2230  -12.9430 C.ar   92  PHE92      -0.0003
     11  CZ        25.5530   13.5700  -14.2150 C.ar   92  PHE92      -0.0000
     12  N         19.5520   14.7700  -11.0930 N.am   93  SER93      -0.1938
     13  CA        18.5730   14.8730  -10.0220 C.3    93  SER93       0.2055
     14  C         18.6750   13.6810   -9.0770 C.2    93  SER93       0.2642
     15  O         18.9110   12.5500   -9.5090 O.2    93  SER93      -0.2714
     16  CB        17.1500   14.9530  -10.5900 C.3    93  SER93       0.2130
     17  OG        16.1870   14.7720   -9.5630 O.3    93  SER93      -0.2179
     18  N         18.4680   13.9420   -7.7930 N.am   94  ALA94      -0.1977
     19  CA        18.4160   12.8830   -6.7930 C.3    94  ALA94       0.1597
     20  C         17.1990   11.9770   -6.9990 C.2    94  ALA94       0.2287
     21  O         17.0950   10.9240   -6.3760 O.2    94  ALA94      -0.2864
     22  CB        18.3960   13.4790   -5.4010 C.3    94  ALA94       0.0319
     23  N         22.9820   20.7700  -13.9730 N.3   113  PHE113     -0.1227
     24  CA        22.7000   20.7460  -12.5400 C.3   113  PHE113      0.1736
     25  C         21.8200   21.9200  -12.1290 C.2   113  PHE113      0.2596
     26  O         21.9320   23.0020  -12.6890 O.2   113  PHE113     -0.2718
     27  CB        24.0090   20.7860  -11.7410 C.3   113  PHE113      0.0547
     28  CG        24.9860   19.7150  -12.1210 C.ar  113  PHE113     -0.0202
     29  CD1       25.8820   19.9200  -13.1500 C.ar  113  PHE113     -0.0042
     30  CD2       25.0260   18.5140  -11.4260 C.ar  113  PHE113     -0.0042
     31  CE1       26.7930   18.9420  -13.5070 C.ar  113  PHE113     -0.0003
     32  CE2       25.9290   17.5280  -11.7760 C.ar  113  PHE113     -0.0003
     33  CZ        26.8110   17.7370  -12.8120 C.ar  113  PHE113     -0.0000
     34  N         20.9670   21.7060  -11.1340 N.am  114  GLY114     -0.1943
     35  CA        20.0670   22.7440  -10.6680 C.3   114  GLY114      0.1998
     36  C         20.6030   23.5400   -9.4980 C.2   114  GLY114      0.2481
     37  O         21.6870   23.2510   -8.9910 O.2   114  GLY114     -0.2729
     38  N         19.8520   24.5670   -9.0740 N.am  115  PRO115     -0.2715
     39  CA        20.1850   25.3920   -7.9080 C.3   115  PRO115      0.1536
     40  C         20.0030   24.6100   -6.6150 C.2   115  PRO115      0.2598
     41  O         19.1680   23.7180   -6.5680 O.2   115  PRO115     -0.2715
     42  CB        19.1800   26.5550   -7.9810 C.3   115  PRO115      0.0310
     43  CG        18.5420   26.4620   -9.3010 C.3   115  PRO115      0.0237
     44  CD        18.6400   25.0420   -9.7600 C.3   115  PRO115      0.0939
     45  N         20.7790   24.9520   -5.5950 N.am  116  GLU116     -0.1964
     46  CA        20.7650   24.2360   -4.3170 C.3   116  GLU116      0.1733
     47  C         19.3750   24.1720   -3.6790 C.2   116  GLU116      0.2617
     48  O         18.9890   23.1580   -3.0950 O.2   116  GLU116     -0.2715
     49  CB        21.7540   24.8940   -3.3460 C.3   116  GLU116      0.0429
     50  CG        22.0440   24.0790   -2.0950 C.3   116  GLU116      0.1163
     51  CD        22.9140   22.8790   -2.4000 C.2   116  GLU116      0.3649
     52  OE1       24.1480   22.9930   -2.2810 O.co2 116  GLU116     -0.2457
     53  OE2       22.3590   21.8230   -2.7640 O.co2 116  GLU116     -0.2457
     54  N         18.6130   25.2510   -3.7960 N.am  117  SER117     -0.1936
     55  CA        17.3570   25.3390   -3.0640 C.3   117  SER117      0.2055
     56  C         16.2260   24.4950   -3.6530 C.2   117  SER117      0.2643
     57  O         15.3730   24.0160   -2.9190 O.2   117  SER117     -0.2714
     58  CB        16.9180   26.8000   -2.9740 C.3   117  SER117      0.2130
     59  OG        16.6560   27.3320   -4.2580 O.3   117  SER117     -0.2179
     60  N         16.2240   24.3010   -4.9660 N.am  118  ARG118     -0.1963
     61  CA        15.0520   23.7480   -5.6510 C.3   118  ARG118      0.1729
     62  C         15.3580   22.6620   -6.6740 C.2   118  ARG118      0.2617
     63  O         14.4650   21.9210   -7.0690 O.2   118  ARG118     -0.2715
     64  CB        14.2970   24.8650   -6.3670 C.3   118  ARG118      0.0348
     65  CG        15.1820   26.0560   -6.6490 C.3   118  ARG118      0.0492
     66  CD        14.5010   27.0960   -7.5160 C.3   118  ARG118      0.2205
     67  NE        15.4930   28.0360   -8.0210 N.pl3 118  ARG118     -0.0865
     68  CZ        15.3950   28.6780   -9.1750 C.cat 118  ARG118      0.5346
     69  NH1       14.3550   28.4670   -9.9620 N.pl3 118  ARG118      0.1354
     70  NH2       16.3530   29.5080   -9.5580 N.pl3 118  ARG118      0.1354
     71  N         16.6020   22.5860   -7.1360 N.am  119  GLY119     -0.1940
     72  CA        16.9380   21.6640   -8.2090 C.3   119  GLY119      0.2014
     73  C         16.3300   22.1030   -9.5360 C.2   119  GLY119      0.2638
     74  O         15.7470   23.1890   -9.6220 O.2   119  GLY119     -0.2714
     75  N         16.4550   21.2610  -10.5620 N.am  120  LEU120     -0.1977
     76  CA        15.9200   21.5900  -11.8850 C.3   120  LEU120      0.1596
     77  C         14.4010   21.4720  -11.8760 C.2   120  LEU120      0.2287
     78  O         13.8460   20.6220  -11.1820 O.2   120  LEU120     -0.2864
     79  CB        16.5150   20.6810  -12.9610 C.3   120  LEU120      0.0297
     80  CG        18.0380   20.7410  -13.1060 C.3   120  LEU120      0.0022
     81  CD1       18.5770   19.5550  -13.8810 C.3   120  LEU120      0.0001
     82  CD2       18.4370   22.0330  -13.7670 C.3   120  LEU120      0.0001
     83  N         19.9880   11.5690  -14.4750 N.3   131  LEU131     -0.1245
     84  CA        20.9400   10.7100  -13.7710 C.3   131  LEU131      0.1561
     85  C         20.9440   11.0080  -12.2860 C.2   131  LEU131      0.2260
     86  O         20.9360   12.1730  -11.8870 O.2   131  LEU131     -0.2867
     87  CB        22.3540   10.9010  -14.3200 C.3   131  LEU131      0.0270
     88  CG        22.5950   10.5450  -15.7830 C.3   131  LEU131      0.0019
     89  CD1       24.0590   10.7430  -16.1300 C.3   131  LEU131      0.0001
     90  CD2       22.1420    9.1080  -16.0490 C.3   131  LEU131      0.0001
     91  N         22.9000   10.3900   -8.5600 N.3   133  ILE133     -0.1245
     92  CA        24.0270    9.9250   -7.7570 C.3   133  ILE133      0.1561
     93  C         23.4620    9.1390   -6.5710 C.2   133  ILE133      0.2260
     94  O         22.7040    9.6890   -5.7680 O.2   133  ILE133     -0.2867
     95  CB        24.9070   11.1050   -7.2440 C.3   133  ILE133      0.0252
     96  CG1       25.4570   11.9310   -8.4100 C.3   133  ILE133      0.0019
     97  CG2       26.0530   10.5890   -6.3890 C.3   133  ILE133      0.0019
     98  CD1       26.0140   13.3050   -8.0050 C.3   133  ILE133      0.0001
     99  N         22.5050    7.4720   -3.1350 N.3   135  MET135     -0.1245
    100  CA        22.6600    7.8770   -1.7380 C.3   135  MET135      0.1570
    101  C         21.9660    6.8390   -0.8840 C.2   135  MET135      0.2261
    102  O         20.7650    6.9520   -0.6330 O.2   135  MET135     -0.2867
    103  CB        22.0580    9.2630   -1.4880 C.3   135  MET135      0.0387
    104  CG        22.6950   10.3930   -2.2820 C.3   135  MET135      0.0595
    105  SD        21.8320   11.9700   -2.0440 S.3   135  MET135     -0.1393
    106  CE        20.1940   11.5330   -2.6500 C.3   135  MET135      0.0692
    107  N         19.5390   14.9360   -0.9640 N.3   141  SER141     -0.1202
    108  CA        20.4300   15.4540   -2.0020 C.3   141  SER141      0.2020
    109  C         21.7860   15.8170   -1.4280 C.2   141  SER141      0.2618
    110  O         21.9220   16.0600   -0.2250 O.2   141  SER141     -0.2717
    111  CB        19.8200   16.6830   -2.6910 C.3   141  SER141      0.2103
    112  OG        19.6800   17.7510   -1.7760 O.3   141  SER141     -0.2182
    113  N         22.7840   15.8550   -2.3050 N.am  142  LEU142     -0.1979
    114  CA        24.1220   16.3270   -1.9620 C.3   142  LEU142      0.1596
    115  C         24.2260   17.8100   -2.2510 C.2   142  LEU142      0.2287
    116  O         23.4380   18.3340   -3.0350 O.2   142  LEU142     -0.2864
    117  CB        25.1820   15.5880   -2.7760 C.3   142  LEU142      0.0297
    118  CG        25.2310   14.0610   -2.7370 C.3   142  LEU142      0.0022
    119  CD1       26.2150   13.5330   -3.7630 C.3   142  LEU142      0.0001
    120  CD2       25.6250   13.6090   -1.3500 C.3   142  LEU142      0.0001
    121  N         25.3790   21.0410   -4.1430 N.3   144  LEU144     -0.1245
    122  CA        25.5740   21.2380   -5.5760 C.3   144  LEU144      0.1561
    123  C         27.0120   21.0340   -6.0360 C.2   144  LEU144      0.2260
    124  O         27.2580   20.2960   -6.9860 O.2   144  LEU144     -0.2867
    125  CB        25.1160   22.6480   -5.9740 C.3   144  LEU144      0.0270
    126  CG        25.4570   23.0970   -7.3950 C.3   144  LEU144      0.0019
    127  CD1       24.7710   22.1830   -8.4140 C.3   144  LEU144      0.0001
    128  CD2       25.0420   24.5560   -7.6030 C.3   144  LEU144      0.0001
    129  N         27.9850   17.4320   -5.8940 N.3   147  ALA147     -0.1245
    130  CA        27.3470   16.6440   -6.9470 C.3   147  ALA147      0.1562
    131  C         28.0270   16.8620   -8.3000 C.2   147  ALA147      0.2260
    132  O         28.2470   15.9140   -9.0610 O.2   147  ALA147     -0.2867
    133  CB        25.8620   16.9790   -7.0310 C.3   147  ALA147      0.0290
@<TRIPOS>BOND
     1    89    88    1
     2    90    88    1
     3    88    87    1
     4     9    11   ar
     5     9     7   ar
     6    83    84    1
     7    87    84    1
     8    11    10   ar
     9     7     6   ar
    10    23    24    1
    11     1     2    1
    12    81    80    1
    13    84    85    1
    14    82    80    1
    15    31    29   ar
    16    31    33   ar
    17    29    28   ar
    18    80    79    1
    19    79    76    1
    20    10     8   ar
    21     6     8   ar
    22     6     5    1
    23    33    32   ar
    24     2     5    1
    25     2     3    1
    26    26    25    2
    27    24    25    1
    28    24    27    1
    29    85    86    2
    30    25    34   am
    31    28    27    1
    32    28    30   ar
    33    76    77    1
    34    76    75    1
    35    77    78    2
    36    32    30   ar
    37     3     4    2
    38     3    12   am
    39    34    35    1
    40    12    13    1
    41    35    36    1
    42    16    13    1
    43    16    17    1
    44    75    73   am
    45    13    14    1
    46    69    68    1
    47    44    43    1
    48    44    38    1
    49    74    73    2
    50    70    68    1
    51    73    72    1
    52    15    14    2
    53    36    38   am
    54    36    37    2
    55    43    42    1
    56    68    67    2
    57    14    18   am
    58    38    39    1
    59   132   131    2
    60    91    92    1
    61   127   126    1
    62    96    98    1
    63    96    95    1
    64   131   130    1
    65    72    71    1
    66    67    66    1
    67    42    39    1
    68    39    40    1
    69    18    19    1
    70    92    95    1
    71    92    93    1
    72   128   126    1
    73    66    65    1
    74   126   125    1
    75    95    97    1
    76    71    62   am
    77    63    62    2
    78   133   130    1
    79    20    19    1
    80    20    21    2
    81   124   123    2
    82   130   129    1
    83    19    22    1
    84    62    61    1
    85    65    64    1
    86    40    41    2
    87    40    45   am
    88    93    94    2
    89    64    61    1
    90   123   122    1
    91   125   122    1
    92    61    60    1
    93    45    46    1
    94   122   121    1
    95    60    56   am
    96    46    47    1
    97    46    49    1
    98    59    58    1
    99    54    47   am
   100    54    55    1
   101   119   118    1
   102    47    48    2
   103    56    55    1
   104    56    57    2
   105    49    50    1
   106    99   100    1
   107    55    58    1
   108   116   115    2
   109   117   118    1
   110   117   114    1
   111    53    51   ar
   112   118   120    1
   113   111   108    1
   114   111   112    1
   115   106   105    1
   116    51    52   ar
   117    51    50    1
   118   113   114    1
   119   113   109   am
   120   104   105    1
   121   104   103    1
   122   115   114    1
   123   108   109    1
   124   108   107    1
   125   100   103    1
   126   100   101    1
   127   109   110    2
   128   101   102    2
