@<TRIPOS>MOLECULE
tmp/5coaA00.pdb
 143 145 0 0 0
SMALL
GASTEIGER

@<TRIPOS>ATOM
      1  N         32.7850   48.4980   39.0930 N.3    83  TRP83      -0.1241
      2  CA        33.3260   47.2270   39.5790 C.3    83  TRP83       0.1605
      3  C         34.3260   46.6860   38.5530 C.2    83  TRP83       0.2264
      4  O         34.0750   46.7460   37.3480 O.2    83  TRP83      -0.2867
      5  CB        32.2180   46.2080   39.8610 C.3    83  TRP83       0.0550
      6  CG        32.7210   44.9860   40.5740 C.ar   83  TRP83       0.0003
      7  CD1       33.3390   43.9020   40.0130 C.ar   83  TRP83       0.0946
      8  CD2       32.6570   44.7240   41.9840 C.ar   83  TRP83       0.0152
      9  NE1       33.6630   42.9860   40.9880 N.ar   83  TRP83      -0.2442
     10  CE2       33.2520   43.4680   42.2050 C.ar   83  TRP83       0.0810
     11  CE3       32.1500   45.4330   43.0790 C.ar   83  TRP83       0.0012
     12  CZ2       33.3520   42.9050   43.4790 C.ar   83  TRP83       0.0191
     13  CZ3       32.2510   44.8720   44.3400 C.ar   83  TRP83       0.0001
     14  CH2       32.8450   43.6210   44.5300 C.ar   83  TRP83       0.0015
     15  N         37.2370   43.4550   38.4960 N.3    85  GLY85      -0.1210
     16  CA        37.4070   42.0620   38.1390 C.3    85  GLY85       0.1956
     17  C         36.3540   41.1910   38.7790 C.2    85  GLY85       0.2613
     18  O         35.1600   41.4880   38.7020 O.2    85  GLY85      -0.2717
     19  N         36.7940   40.1100   39.4130 N.am   86  SER86      -0.1938
     20  CA        35.8690   39.2210   40.0940 C.3    86  SER86       0.2055
     21  C         35.3450   39.8960   41.3490 C.2    86  SER86       0.2642
     22  O         35.6200   41.0680   41.6210 O.2    86  SER86      -0.2714
     23  CB        36.5510   37.9130   40.4780 C.3    86  SER86       0.2130
     24  OG        37.5020   38.1320   41.5050 O.3    86  SER86      -0.2179
     25  N         34.5830   39.1380   42.1150 N.am   87  GLU87      -0.1976
     26  CA        34.0640   39.6300   43.3670 C.3    87  GLU87       0.1602
     27  C         35.2030   39.6420   44.3950 C.2    87  GLU87       0.2287
     28  O         35.3490   38.6960   45.1660 O.2    87  GLU87      -0.2864
     29  CB        32.9360   38.7070   43.8050 C.3    87  GLU87       0.0415
     30  CG        32.0530   38.2000   42.6770 C.3    87  GLU87       0.1163
     31  CD        31.6630   36.7480   42.8660 C.2    87  GLU87       0.3649
     32  OE1       32.5490   35.9430   43.2220 O.co2  87  GLU87      -0.2457
     33  OE2       30.4790   36.4070   42.6630 O.co2  87  GLU87      -0.2457
     34  N         23.2530   40.1340   44.0930 N.3   120  LYS120     -0.1245
     35  CA        24.1780   39.1220   44.5990 C.3   120  LYS120      0.1561
     36  C         24.4340   39.3360   46.0950 C.2   120  LYS120      0.2260
     37  O         24.9130   38.4360   46.7860 O.2   120  LYS120     -0.2867
     38  CB        25.4850   39.1150   43.8010 C.3   120  LYS120      0.0271
     39  CG        25.3190   38.5820   42.3790 C.3   120  LYS120      0.0035
     40  CD        26.6020   38.6980   41.5620 C.3   120  LYS120      0.0206
     41  CE        27.7020   37.8400   42.1490 C.3   120  LYS120      0.1093
     42  NZ        28.9490   37.8890   41.3360 N.3   120  LYS120     -0.1314
     43  N         22.8660   36.5300   47.8430 N.3   123  PHE123     -0.1227
     44  CA        23.2580   35.1640   47.4820 C.3   123  PHE123      0.1736
     45  C         24.1140   34.5140   48.5620 C.2   123  PHE123      0.2596
     46  O         25.0340   35.1410   49.0990 O.2   123  PHE123     -0.2718
     47  CB        24.0200   35.1390   46.1490 C.3   123  PHE123      0.0547
     48  CG        23.1730   35.4560   44.9430 C.ar  123  PHE123     -0.0202
     49  CD1       23.7370   35.4490   43.6740 C.ar  123  PHE123     -0.0042
     50  CD2       21.8250   35.7690   45.0730 C.ar  123  PHE123     -0.0042
     51  CE1       22.9770   35.7490   42.5550 C.ar  123  PHE123     -0.0003
     52  CE2       21.0570   36.0700   43.9580 C.ar  123  PHE123     -0.0003
     53  CZ        21.6350   36.0610   42.6980 C.ar  123  PHE123     -0.0000
     54  N         23.8080   33.2560   48.8700 N.am  124  GLY124     -0.1942
     55  CA        24.5790   32.4810   49.8260 C.3   124  GLY124      0.2014
     56  C         25.0830   31.1770   49.2260 C.2   124  GLY124      0.2638
     57  O         25.2230   31.0560   48.0080 O.2   124  GLY124     -0.2714
     58  N         25.3550   30.2000   50.0860 N.am  125  ILE125     -0.1977
     59  CA        25.8620   28.9030   49.6540 C.3   125  ILE125      0.1596
     60  C         24.7260   27.9930   49.1890 C.2   125  ILE125      0.2287
     61  O         24.8830   27.2110   48.2440 O.2   125  ILE125     -0.2864
     62  CB        26.6010   28.1980   50.8160 C.3   125  ILE125      0.0276
     63  CG1       27.6100   29.1480   51.4770 C.3   125  ILE125      0.0022
     64  CG2       27.2540   26.8960   50.3460 C.3   125  ILE125      0.0022
     65  CD1       28.6500   29.7060   50.5290 C.3   125  ILE125      0.0001
     66  N         28.8830   35.5080   55.3380 N.3   148  VAL148     -0.1231
     67  CA        29.6150   34.9690   54.2060 C.3   148  VAL148      0.1678
     68  C         30.4130   36.1170   53.6010 C.2   148  VAL148      0.2434
     69  O         29.9270   37.2460   53.5770 O.2   148  VAL148     -0.2733
     70  CB        28.6200   34.3830   53.1740 C.3   148  VAL148      0.0265
     71  CG1       29.1860   34.4120   51.7650 C.3   148  VAL148      0.0020
     72  CG2       28.2180   32.9740   53.5660 C.3   148  VAL148      0.0020
     73  N         31.6470   35.8460   53.1390 N.am  149  PRO149     -0.2718
     74  CA        32.4110   36.9330   52.5220 C.3   149  PRO149      0.1535
     75  C         31.6180   37.5530   51.3810 C.2   149  PRO149      0.2599
     76  O         31.1520   36.8360   50.4940 O.2   149  PRO149     -0.2715
     77  CB        33.6760   36.2370   51.9980 C.3   149  PRO149      0.0310
     78  CG        33.3890   34.7620   52.0630 C.3   149  PRO149      0.0237
     79  CD        32.3990   34.5800   53.1620 C.3   149  PRO149      0.0939
     80  N         31.4130   38.8640   51.4550 N.am  150  ASN150     -0.1959
     81  CA        30.6900   39.5950   50.4280 C.3   150  ASN150      0.1819
     82  C         31.1530   41.0410   50.3880 C.2   150  ASN150      0.2621
     83  O         30.8720   41.8580   51.2520 O.2   150  ASN150     -0.2715
     84  CB        29.1680   39.5140   50.5980 C.3   150  ASN150      0.1195
     85  CG        28.4160   39.9360   49.3310 C.2   150  ASN150      0.2630
     86  OD1       28.8840   40.7850   48.5640 O.2   150  ASN150     -0.2716
     87  ND2       27.2510   39.3360   49.1060 N.am  150  ASN150     -0.0877
     88  N         31.8580   41.3170   49.3180 N.am  151  PHE151     -0.1960
     89  CA        32.5590   42.5410   49.0300 C.3   151  PHE151      0.1771
     90  C         31.5830   43.7240   48.9700 C.2   151  PHE151      0.2619
     91  O         31.9620   44.8690   49.2370 O.2   151  PHE151     -0.2715
     92  CB        33.2680   42.1990   47.7280 C.3   151  PHE151      0.0574
     93  CG        33.4390   40.6890   47.5810 C.ar  151  PHE151     -0.0200
     94  CD1       32.4630   39.9070   46.9710 C.ar  151  PHE151     -0.0042
     95  CD2       34.5150   40.0420   48.1700 C.ar  151  PHE151     -0.0042
     96  CE1       32.5930   38.5290   46.9260 C.ar  151  PHE151     -0.0003
     97  CE2       34.6520   38.6680   48.1060 C.ar  151  PHE151     -0.0003
     98  CZ        33.6910   37.9130   47.4770 C.ar  151  PHE151     -0.0000
     99  N         30.3150   43.4360   48.6790 N.am  152  TYR152     -0.1974
    100  CA        29.2580   44.4420   48.7680 C.3   152  TYR152      0.1639
    101  C         29.1020   44.9140   50.2210 C.2   152  TYR152      0.2290
    102  O         28.8030   46.0820   50.4730 O.2   152  TYR152     -0.2864
    103  CB        27.9220   43.8690   48.2870 C.3   152  TYR152      0.0560
    104  CG        27.7580   43.7140   46.7870 C.ar  152  TYR152     -0.0198
    105  CD1       28.6280   44.3290   45.8910 C.ar  152  TYR152     -0.0009
    106  CD2       26.7090   42.9630   46.2700 C.ar  152  TYR152     -0.0009
    107  CE1       28.4520   44.1890   44.5190 C.ar  152  TYR152      0.0417
    108  CE2       26.5270   42.8210   44.9100 C.ar  152  TYR152      0.0417
    109  CZ        27.3960   43.4320   44.0420 C.ar  152  TYR152      0.1957
    110  OH        27.2040   43.2780   42.6880 O.3   152  TYR152     -0.2866
    111  N         29.3910   31.6650   29.2410 N.3   315  TRP315     -0.1227
    112  CA        29.3400   31.0530   30.5690 C.3   315  TRP315      0.1737
    113  C         28.2930   31.7250   31.4620 C.2   315  TRP315      0.2595
    114  O         27.6350   31.0620   32.2610 O.2   315  TRP315     -0.2718
    115  CB        30.7180   31.1230   31.2420 C.3   315  TRP315      0.0564
    116  CG        31.2210   32.5250   31.4120 C.ar  315  TRP315      0.0003
    117  CD1       31.9820   33.2390   30.5270 C.ar  315  TRP315      0.0946
    118  CD2       30.9980   33.3790   32.5370 C.ar  315  TRP315      0.0152
    119  NE1       32.2460   34.4880   31.0370 N.ar  315  TRP315     -0.2442
    120  CE2       31.6540   34.6050   32.2670 C.ar  315  TRP315      0.0810
    121  CE3       30.3110   33.2400   33.7440 C.ar  315  TRP315      0.0012
    122  CZ2       31.6370   35.6760   33.1680 C.ar  315  TRP315      0.0191
    123  CZ3       30.2950   34.3000   34.6350 C.ar  315  TRP315      0.0001
    124  CH2       30.9530   35.5040   34.3420 C.ar  315  TRP315      0.0015
    125  N         28.1410   33.0400   31.3280 N.am  316  PHE316     -0.1976
    126  CA        27.1820   33.7620   32.1580 C.3   316  PHE316      0.1639
    127  C         25.7440   33.4120   31.7740 C.2   316  PHE316      0.2290
    128  O         24.8550   33.3670   32.6230 O.2   316  PHE316     -0.2864
    129  CB        27.4050   35.2700   32.0790 C.3   316  PHE316      0.0560
    130  CG        26.4900   36.0620   32.9740 C.ar  316  PHE316     -0.0200
    131  CD1       26.6100   35.9880   34.3590 C.ar  316  PHE316     -0.0042
    132  CD2       25.5060   36.8770   32.4340 C.ar  316  PHE316     -0.0042
    133  CE1       25.7620   36.7180   35.1910 C.ar  316  PHE316     -0.0003
    134  CE2       24.6590   37.6120   33.2560 C.ar  316  PHE316     -0.0003
    135  CZ        24.7880   37.5310   34.6380 C.ar  316  PHE316     -0.0000
    136  N         24.9170   30.2390   33.4710 N.3   319  ILE319     -0.1245
    137  CA        24.5470   30.4720   34.8650 C.3   319  ILE319      0.1561
    138  C         23.0810   30.8810   34.9510 C.2   319  ILE319      0.2260
    139  O         22.3090   30.3240   35.7370 O.2   319  ILE319     -0.2867
    140  CB        25.4230   31.5760   35.5040 C.3   319  ILE319      0.0252
    141  CG1       26.8480   31.0610   35.7240 C.3   319  ILE319      0.0019
    142  CG2       24.8210   32.0470   36.8200 C.3   319  ILE319      0.0019
    143  CD1       27.7920   32.0910   36.3300 C.3   319  ILE319      0.0001
@<TRIPOS>BOND
     1   111   112    1
     2   117   119   ar
     3   117   116   ar
     4   112   115    1
     5   112   113    1
     6   119   120   ar
     7   115   116    1
     8   125   113   am
     9   125   126    1
    10   116   118   ar
    11   113   114    2
    12   127   126    1
    13   127   128    2
    14   129   126    1
    15   129   130    1
    16   120   118   ar
    17   120   122   ar
    18   132   130   ar
    19   132   134   ar
    20   118   121   ar
    21   130   131   ar
    22   122   124   ar
    23   134   135   ar
    24   136   137    1
    25   121   123   ar
    26   124   123   ar
    27   131   133   ar
    28   135   133   ar
    29   137   138    1
    30   137   140    1
    31   138   139    2
    32   140   141    1
    33   140   142    1
    34   141   143    1
    35     4     3    2
    36    16    15    1
    37    16    17    1
    38     3     2    1
    39    18    17    2
    40    17    19   am
    41     1     2    1
    42    19    20    1
    43     2     5    1
    44     5     6    1
    45     7     6   ar
    46     7     9   ar
    47    20    23    1
    48    20    21    1
    49    23    24    1
    50     6     8   ar
    51     9    10   ar
    52    42    41    1
    53    21    22    2
    54    21    25   am
    55    40    41    1
    56    40    39    1
    57     8    10   ar
    58     8    11   ar
    59    25    26    1
    60    10    12   ar
    61    39    38    1
    62    51    53   ar
    63    51    49   ar
    64    33    31   ar
    65    30    31    1
    66    30    29    1
    67   110   109    1
    68    53    52   ar
    69    31    32   ar
    70    11    13   ar
    71    26    29    1
    72    26    27    1
    73    12    14   ar
    74    49    48   ar
    75    38    35    1
    76    52    50   ar
    77   109   107   ar
    78   109   108   ar
    79    34    35    1
    80    13    14   ar
    81    27    28    2
    82   107   105   ar
    83    35    36    1
    84   108   106   ar
    85    48    50   ar
    86    48    47    1
    87   105   104   ar
    88    36    37    2
    89    47    44    1
    90   106   104   ar
    91   104   103    1
    92    96    94   ar
    93    96    98   ar
    94    94    93   ar
    95    98    97   ar
    96    44    43    1
    97    44    45    1
    98    93    92    1
    99    93    95   ar
   100    92    89    1
   101    57    56    2
   102    97    95   ar
   103    61    60    2
   104   103   100    1
   105    45    54   am
   106    45    46    2
   107    86    85    2
   108    99   100    1
   109    99    90   am
   110   100   101    1
   111    54    55    1
   112    90    89    1
   113    90    91    2
   114    89    88    1
   115    87    85   am
   116    60    59    1
   117    56    55    1
   118    56    58   am
   119    88    82   am
   120    85    84    1
   121    59    58    1
   122    59    62    1
   123   101   102    2
   124    64    62    1
   125    82    81    1
   126    82    83    2
   127    81    84    1
   128    81    80    1
   129    76    75    2
   130    65    63    1
   131    62    63    1
   132    75    80   am
   133    75    74    1
   134    71    70    1
   135    77    78    1
   136    77    74    1
   137    78    79    1
   138    74    73    1
   139    73    79    1
   140    73    68   am
   141    70    72    1
   142    70    67    1
   143    69    68    2
   144    68    67    1
   145    67    66    1
