@<TRIPOS>MOLECULE
tmp/5cobB02.pdb
 152 154 0 0 0
SMALL
GASTEIGER

@<TRIPOS>ATOM
      1  N         16.3180   17.7930  -13.8150 N.3    86  TRP86      -0.1241
      2  CA        16.1170   17.4870  -15.2250 C.3    86  TRP86       0.1605
      3  C         15.9340   18.7880  -16.0070 C.2    86  TRP86       0.2264
      4  O         15.6760   19.8390  -15.4200 O.2    86  TRP86      -0.2867
      5  CB        14.9290   16.5380  -15.4190 C.3    86  TRP86       0.0550
      6  CG        13.5870   17.0980  -15.0090 C.ar   86  TRP86       0.0003
      7  CD1       13.2470   17.6140  -13.7920 C.ar   86  TRP86       0.0946
      8  CD2       12.4050   17.1640  -15.8150 C.ar   86  TRP86       0.0152
      9  NE1       11.9310   18.0110  -13.7980 N.ar   86  TRP86      -0.2442
     10  CE2       11.3920   17.7420  -15.0280 C.ar   86  TRP86       0.0810
     11  CE3       12.1070   16.7940  -17.1280 C.ar   86  TRP86       0.0012
     12  CZ2       10.1050   17.9600  -15.5150 C.ar   86  TRP86       0.0191
     13  CZ3       10.8300   17.0090  -17.6060 C.ar   86  TRP86       0.0001
     14  CH2        9.8460   17.5860  -16.8040 C.ar   86  TRP86       0.0015
     15  N         11.3410   16.1860  -22.0940 N.3    90  GLU90      -0.1245
     16  CA        11.6360   14.7620  -22.1520 C.3    90  GLU90       0.1567
     17  C         12.8610   14.4830  -23.0190 C.2    90  GLU90       0.2260
     18  O         13.1650   13.3280  -23.3220 O.2    90  GLU90      -0.2867
     19  CB        10.4260   14.0010  -22.6950 C.3    90  GLU90       0.0388
     20  CG         9.0870   14.5590  -22.2310 C.3    90  GLU90       0.1160
     21  CD         8.3220   13.5920  -21.3490 C.2    90  GLU90       0.3649
     22  OE1        7.0770   13.6850  -21.2980 O.co2  90  GLU90      -0.2457
     23  OE2        8.9670   12.7410  -20.7020 O.co2  90  GLU90      -0.2457
     24  N          8.1030    6.6280  -14.0810 N.3   123  LYS123     -0.1245
     25  CA         7.8540    6.6040  -15.5200 C.3   123  LYS123      0.1561
     26  C          8.7930    5.6390  -16.2260 C.2   123  LYS123      0.2260
     27  O          8.6730    5.4040  -17.4280 O.2   123  LYS123     -0.2867
     28  CB         7.9680    7.9990  -16.1290 C.3   123  LYS123      0.0271
     29  CG         6.7330    8.8480  -15.9270 C.3   123  LYS123      0.0035
     30  CD         6.8420   10.1720  -16.6620 C.3   123  LYS123      0.0206
     31  CE         6.7930    9.9810  -18.1660 C.3   123  LYS123      0.1093
     32  NZ         6.7990   11.2880  -18.8790 N.3   123  LYS123     -0.1314
     33  N          6.3030    2.9910  -17.4010 N.3   126  PHE126     -0.1227
     34  CA         5.1650    3.2250  -18.2960 C.3   126  PHE126      0.1736
     35  C          5.3070    4.3940  -19.2740 C.2   126  PHE126      0.2596
     36  O          4.3050    4.9820  -19.6760 O.2   126  PHE126     -0.2718
     37  CB         3.8700    3.3880  -17.4870 C.3   126  PHE126      0.0547
     38  CG         3.8570    4.5990  -16.5950 C.ar  126  PHE126     -0.0202
     39  CD1        4.5010    4.5810  -15.3690 C.ar  126  PHE126     -0.0042
     40  CD2        3.1890    5.7520  -16.9760 C.ar  126  PHE126     -0.0042
     41  CE1        4.4890    5.6930  -14.5470 C.ar  126  PHE126     -0.0003
     42  CE2        3.1740    6.8660  -16.1580 C.ar  126  PHE126     -0.0003
     43  CZ         3.8260    6.8340  -14.9420 C.ar  126  PHE126     -0.0000
     44  N          6.5330    4.7180  -19.6720 N.am  127  GLY127     -0.1942
     45  CA         6.7590    5.8140  -20.6030 C.3   127  GLY127      0.2014
     46  C          6.3920    5.4820  -22.0410 C.2   127  GLY127      0.2639
     47  O          6.9540    4.5580  -22.6290 O.2   127  GLY127     -0.2714
     48  N          5.4470    6.2320  -22.6070 N.am  128  ILE128     -0.1963
     49  CA         4.9650    5.9950  -23.9720 C.3   128  ILE128      0.1727
     50  C          4.6080    7.3130  -24.6740 C.2   128  ILE128      0.2616
     51  O          4.0420    8.2160  -24.0570 O.2   128  ILE128     -0.2715
     52  CB         3.7310    5.0490  -23.9800 C.3   128  ILE128      0.0290
     53  CG1        4.1130    3.6430  -23.5090 C.3   128  ILE128      0.0022
     54  CG2        3.1080    4.9680  -25.3640 C.3   128  ILE128      0.0023
     55  CD1        2.9520    2.6810  -23.4490 C.3   128  ILE128      0.0001
     56  N          4.9400    7.4210  -25.9600 N.am  129  PHE129     -0.1974
     57  CA         4.6460    8.6280  -26.7350 C.3   129  PHE129      0.1639
     58  C          3.5400    8.4260  -27.7740 C.2   129  PHE129      0.2290
     59  O          2.5680    9.1810  -27.8080 O.2   129  PHE129     -0.2864
     60  CB         5.9110    9.1460  -27.4200 C.3   129  PHE129      0.0560
     61  CG         7.0160    9.4880  -26.4680 C.ar  129  PHE129     -0.0200
     62  CD1        8.3090    9.0550  -26.7060 C.ar  129  PHE129     -0.0042
     63  CD2        6.7650   10.2460  -25.3380 C.ar  129  PHE129     -0.0042
     64  CE1        9.3300    9.3640  -25.8310 C.ar  129  PHE129     -0.0003
     65  CE2        7.7830   10.5630  -24.4610 C.ar  129  PHE129     -0.0003
     66  CZ         9.0680   10.1220  -24.7080 C.ar  129  PHE129     -0.0000
     67  N         11.1190    2.0520  -25.4480 N.3   151  VAL151     -0.1231
     68  CA        10.6880    3.4240  -25.6640 C.3   151  VAL151      0.1678
     69  C         11.8400    4.3350  -25.2700 C.2   151  VAL151      0.2434
     70  O         12.5340    4.0570  -24.2920 O.2   151  VAL151     -0.2733
     71  CB         9.4480    3.7570  -24.7980 C.3   151  VAL151      0.0265
     72  CG1        9.2030    5.2590  -24.7300 C.3   151  VAL151      0.0020
     73  CG2        8.2120    3.0440  -25.3240 C.3   151  VAL151      0.0020
     74  N         12.0720    5.4100  -26.0440 N.am  152  PRO152     -0.2718
     75  CA        13.0680    6.4050  -25.6390 C.3   152  PRO152      0.1535
     76  C         12.6830    7.0700  -24.3230 C.2   152  PRO152      0.2599
     77  O         11.6540    7.7410  -24.2410 O.2   152  PRO152     -0.2715
     78  CB        13.0330    7.4300  -26.7800 C.3   152  PRO152      0.0310
     79  CG        11.7450    7.1800  -27.4970 C.3   152  PRO152      0.0237
     80  CD        11.5060    5.7130  -27.3680 C.3   152  PRO152      0.0939
     81  N         13.5060    6.8650  -23.3030 N.am  153  ASN153     -0.1959
     82  CA        13.2910    7.4650  -21.9950 C.3   153  ASN153      0.1819
     83  C         14.6370    7.9300  -21.4600 C.2   153  ASN153      0.2621
     84  O         15.5900    7.1520  -21.4180 O.2   153  ASN153     -0.2715
     85  CB        12.6570    6.4460  -21.0440 C.3   153  ASN153      0.1195
     86  CG        12.1590    7.0730  -19.7530 C.2   153  ASN153      0.2630
     87  OD1       12.7460    8.0230  -19.2380 O.2   153  ASN153     -0.2716
     88  ND2       11.0690    6.5350  -19.2210 N.am  153  ASN153     -0.0877
     89  N         14.7280    9.1930  -21.0540 N.am  154  PHE154     -0.1960
     90  CA        16.0130    9.7160  -20.6010 C.3   154  PHE154      0.1771
     91  C         16.4900    9.0670  -19.2990 C.2   154  PHE154      0.2619
     92  O         17.6770    9.1100  -18.9830 O.2   154  PHE154     -0.2715
     93  CB        16.0340   11.2570  -20.5400 C.3   154  PHE154      0.0574
     94  CG        15.2410   11.8580  -19.4030 C.ar  154  PHE154     -0.0200
     95  CD1       15.8160   12.0340  -18.1520 C.ar  154  PHE154     -0.0042
     96  CD2       13.9390   12.2940  -19.5990 C.ar  154  PHE154     -0.0042
     97  CE1       15.0970   12.6010  -17.1090 C.ar  154  PHE154     -0.0003
     98  CE2       13.2170   12.8640  -18.5590 C.ar  154  PHE154     -0.0003
     99  CZ        13.7960   13.0150  -17.3130 C.ar  154  PHE154     -0.0000
    100  N         15.5690    8.4480  -18.5650 N.am  155  TYR155     -0.1974
    101  CA        15.9340    7.6740  -17.3830 C.3   155  TYR155      0.1639
    102  C         16.9310    6.5830  -17.7510 C.2   155  TYR155      0.2290
    103  O         17.8420    6.2770  -16.9810 O.2   155  TYR155     -0.2864
    104  CB        14.6990    7.0390  -16.7470 C.3   155  TYR155      0.0560
    105  CG        13.7850    8.0160  -16.0430 C.ar  155  TYR155     -0.0198
    106  CD1       14.1670    9.3350  -15.8340 C.ar  155  TYR155     -0.0009
    107  CD2       12.5420    7.6150  -15.5780 C.ar  155  TYR155     -0.0009
    108  CE1       13.3310   10.2270  -15.1850 C.ar  155  TYR155      0.0417
    109  CE2       11.7010    8.4980  -14.9300 C.ar  155  TYR155      0.0417
    110  CZ        12.0980    9.8030  -14.7330 C.ar  155  TYR155      0.1957
    111  OH        11.2590   10.6850  -14.0850 O.3   155  TYR155     -0.2866
    112  N          7.0010   20.4150  -11.3790 N.3   190  MET190     -0.1245
    113  CA         5.9860   19.4160  -11.0660 C.3   190  MET190      0.1570
    114  C          5.7670   19.3110   -9.5630 C.2   190  MET190      0.2261
    115  O          6.2650   18.3910   -8.9150 O.2   190  MET190     -0.2867
    116  CB         6.3750   18.0500  -11.6330 C.3   190  MET190      0.0387
    117  CG         6.3730   17.9750  -13.1510 C.3   190  MET190      0.0595
    118  SD         6.8680   16.3530  -13.7610 S.3   190  MET190     -0.1393
    119  CE         8.4870   16.2030  -13.0120 C.3   190  MET190      0.0692
    120  N         -1.1770   21.4260  -15.7770 N.3   318  TRP318     -0.1227
    121  CA        -1.1080   20.3640  -16.7700 C.3   318  TRP318      0.1737
    122  C         -0.6970   19.0570  -16.0960 C.2   318  TRP318      0.2595
    123  O         -1.1300   17.9730  -16.4870 O.2   318  TRP318     -0.2718
    124  CB        -0.0960   20.7240  -17.8570 C.3   318  TRP318      0.0564
    125  CG         1.3010   20.8870  -17.3340 C.ar  318  TRP318      0.0003
    126  CD1        1.8790   22.0400  -16.8930 C.ar  318  TRP318      0.0946
    127  CD2        2.2930   19.8610  -17.1880 C.ar  318  TRP318      0.0152
    128  NE1        3.1690   21.7980  -16.4860 N.ar  318  TRP318     -0.2442
    129  CE2        3.4460   20.4670  -16.6570 C.ar  318  TRP318      0.0810
    130  CE3        2.3170   18.4880  -17.4550 C.ar  318  TRP318      0.0012
    131  CZ2        4.6110   19.7500  -16.3870 C.ar  318  TRP318      0.0191
    132  CZ3        3.4740   17.7780  -17.1870 C.ar  318  TRP318      0.0001
    133  CH2        4.6040   18.4100  -16.6590 C.ar  318  TRP318      0.0015
    134  N          0.1400   19.1820  -15.0720 N.am  319  PHE319     -0.1976
    135  CA         0.6620   18.0420  -14.3370 C.3   319  PHE319      0.1639
    136  C         -0.4180   17.4510  -13.4400 C.2   319  PHE319      0.2290
    137  O         -0.4460   16.2450  -13.1890 O.2   319  PHE319     -0.2864
    138  CB         1.8720   18.4780  -13.5120 C.3   319  PHE319      0.0560
    139  CG         2.5200   17.3640  -12.7510 C.ar  319  PHE319     -0.0200
    140  CD1        3.0680   16.2850  -13.4200 C.ar  319  PHE319     -0.0042
    141  CD2        2.5980   17.4030  -11.3680 C.ar  319  PHE319     -0.0042
    142  CE1        3.6710   15.2590  -12.7270 C.ar  319  PHE319     -0.0003
    143  CE2        3.2020   16.3790  -10.6660 C.ar  319  PHE319     -0.0003
    144  CZ         3.7390   15.3030  -11.3480 C.ar  319  PHE319     -0.0000
    145  N         -2.7400   15.4680  -15.7160 N.3   322  ILE322     -0.1245
    146  CA        -2.1770   14.1500  -15.9630 C.3   322  ILE322      0.1561
    147  C         -2.4470   13.2290  -14.7790 C.2   322  ILE322      0.2260
    148  O         -2.8500   12.0820  -14.9530 O.2   322  ILE322     -0.2867
    149  CB        -0.6640   14.2310  -16.2220 C.3   322  ILE322      0.0252
    150  CG1       -0.3900   15.0110  -17.5070 C.3   322  ILE322      0.0019
    151  CG2       -0.0600   12.8450  -16.3180 C.3   322  ILE322      0.0019
    152  CD1        1.0720   15.0830  -17.8670 C.3   322  ILE322      0.0001
@<TRIPOS>BOND
     1    59    58    2
     2    58    57    1
     3    79    80    1
     4    79    78    1
     5    60    57    1
     6    60    61    1
     7    80    74    1
     8    78    75    1
     9    57    56    1
    10    62    61   ar
    11    62    64   ar
    12    61    63   ar
    13    74    75    1
    14    74    69   am
    15    56    50   am
    16    64    66   ar
    17    68    67    1
    18    68    69    1
    19    68    71    1
    20    75    76    1
    21    54    52    1
    22    63    65   ar
    23    73    71    1
    24    69    70    2
    25    71    72    1
    26    66    65   ar
    27    50    51    2
    28    50    49    1
    29    76    77    2
    30    76    81   am
    31    52    49    1
    32    52    53    1
    33    49    48    1
    34    53    55    1
    35    18    17    2
    36    81    82    1
    37    17    16    1
    38    19    20    1
    39    19    16    1
    40    47    46    2
    41    48    46   am
    42    20    21    1
    43    16    15    1
    44    46    45    1
    45    82    83    1
    46    82    85    1
    47    83    84    2
    48    83    89   am
    49    21    22   ar
    50    21    23   ar
    51    89    90    1
    52    85    86    1
    53    45    44    1
    54    90    93    1
    55    90    91    1
    56    93    94    1
    57    86    87    2
    58    86    88   am
    59    36    35    2
    60    44    35   am
    61    96    94   ar
    62    96    98   ar
    63    94    95   ar
    64    91    92    2
    65    91   100   am
    66    35    34    1
    67    32    31    1
    68   100   101    1
    69    98    99   ar
    70    34    37    1
    71    34    33    1
    72    31    30    1
    73    95    97   ar
    74   152   150    1
    75   124   125    1
    76   124   121    1
    77   102   101    1
    78   102   103    2
    79    13    11   ar
    80    13    14   ar
    81   150   149    1
    82    37    38    1
    83   130   127   ar
    84   130   132   ar
    85    27    26    2
    86   101   104    1
    87   125   127   ar
    88   125   126   ar
    89    99    97   ar
    90   127   129   ar
    91   132   133   ar
    92    11     8   ar
    93    40    38   ar
    94    40    42   ar
    95   126   128   ar
    96    14    12   ar
    97   121   122    1
    98   121   120    1
    99   104   105    1
   100    30    29    1
   101   133   131   ar
   102   129   128   ar
   103   129   131   ar
   104    38    39   ar
   105   123   122    2
   106   151   149    1
   107    26    25    1
   108   149   146    1
   109    42    43   ar
   110    28    29    1
   111    28    25    1
   112   122   134   am
   113   105   106   ar
   114   105   107   ar
   115     3     4    2
   116     3     2    1
   117   146   145    1
   118   146   147    1
   119   106   108   ar
   120     8    10   ar
   121     8     6   ar
   122   107   109   ar
   123    25    24    1
   124    12    10   ar
   125     5     2    1
   126     5     6    1
   127    39    41   ar
   128     2     1    1
   129   108   110   ar
   130   134   135    1
   131    10     9   ar
   132     6     7   ar
   133   148   147    2
   134    43    41   ar
   135   109   110   ar
   136   110   111    1
   137   135   138    1
   138   135   136    1
   139     9     7   ar
   140   118   117    1
   141   118   119    1
   142   138   139    1
   143   136   137    2
   144   140   139   ar
   145   140   142   ar
   146   117   116    1
   147   139   141   ar
   148   142   144   ar
   149   116   113    1
   150   112   113    1
   151   141   143   ar
   152   144   143   ar
   153   113   114    1
   154   114   115    2
