@<TRIPOS>MOLECULE
tmp/5coiA00.pdb
 134 129 0 0 0
SMALL
GASTEIGER

@<TRIPOS>ATOM
      1  N         12.4260    4.2220    0.3590 N.3    46  TRP46      -0.1228
      2  CA        12.8250    5.6020    0.6780 C.3    46  TRP46       0.1722
      3  C         11.8930    6.3830    1.5930 C.2    46  TRP46       0.2437
      4  O         12.3680    7.1100    2.4800 O.2    46  TRP46      -0.2733
      5  CB        13.1940    6.4400   -0.5630 C.3    46  TRP46       0.0563
      6  CG        12.1150    6.6650   -1.4930 C.ar   46  TRP46       0.0003
      7  CD1       11.7970    5.8810   -2.5630 C.ar   46  TRP46       0.0946
      8  CD2       11.1840    7.7290   -1.4630 C.ar   46  TRP46       0.0152
      9  NE1       10.7020    6.4010   -3.2030 N.ar   46  TRP46      -0.2442
     10  CE2       10.3200    7.5490   -2.5570 C.ar   46  TRP46       0.0810
     11  CE3       10.9860    8.8380   -0.6190 C.ar   46  TRP46       0.0012
     12  CZ2        9.2780    8.4270   -2.8270 C.ar   46  TRP46       0.0191
     13  CZ3        9.9550    9.7150   -0.8970 C.ar   46  TRP46       0.0001
     14  CH2        9.1200    9.5070   -1.9910 C.ar   46  TRP46       0.0015
     15  N         10.5650    6.2290    1.4430 N.am   47  PRO47      -0.2718
     16  CA         9.6960    6.9880    2.3480 C.3    47  PRO47       0.1535
     17  C          9.8110    6.6030    3.8250 C.2    47  PRO47       0.2598
     18  O          9.3570    7.3610    4.6920 O.2    47  PRO47      -0.2715
     19  CB         8.2930    6.6480    1.8610 C.3    47  PRO47       0.0310
     20  CG         8.4830    6.1890    0.4390 C.3    47  PRO47       0.0237
     21  CD         9.7620    5.4500    0.4690 C.3    47  PRO47       0.0939
     22  N         10.3360    5.4000    4.0600 N.am   48  PHE48      -0.1974
     23  CA        10.4460    4.7900    5.4000 C.3    48  PHE48       0.1639
     24  C         11.8460    4.9140    5.9990 C.2    48  PHE48       0.2290
     25  O         12.0980    4.3640    7.0680 O.2    48  PHE48      -0.2864
     26  CB        10.0600    3.3040    5.2990 C.3    48  PHE48       0.0560
     27  CG         8.7120    3.0850    4.6780 C.ar   48  PHE48      -0.0200
     28  CD1        8.5630    3.0580    3.2660 C.ar   48  PHE48      -0.0042
     29  CD2        7.5850    3.0210    5.4780 C.ar   48  PHE48      -0.0042
     30  CE1        7.3370    2.9230    2.7110 C.ar   48  PHE48      -0.0003
     31  CE2        6.3260    2.8660    4.9030 C.ar   48  PHE48      -0.0003
     32  CZ         6.2150    2.8380    3.5160 C.ar   48  PHE48      -0.0000
     33  N         13.6060    7.6170    7.1130 N.3    50  GLN50      -0.1245
     34  CA        13.8560    8.6660    8.0870 C.3    50  GLN50       0.1566
     35  C         12.5390    8.9940    8.7640 C.2    50  GLN50       0.2260
     36  O         11.4550    8.7080    8.2190 O.2    50  GLN50      -0.2867
     37  CB        14.3980    9.9360    7.4250 C.3    50  GLN50       0.0367
     38  CG        13.5440   10.4630    6.3010 C.3    50  GLN50       0.0905
     39  CD        13.7070    9.6350    5.0310 C.2    50  GLN50       0.2608
     40  OE1       14.8510    9.2910    4.6570 O.2    50  GLN50      -0.2717
     41  NE2       12.5810    9.2570    4.3940 N.am   50  GLN50      -0.0878
     42  N          9.1900   10.7830    9.7210 N.3    52  VAL52      -0.1245
     43  CA         8.2480   11.6410    9.0060 C.3    52  VAL52       0.1561
     44  C          8.4390   13.0770    9.4760 C.2    52  VAL52       0.2260
     45  O          8.4080   13.3590   10.6820 O.2    52  VAL52      -0.2867
     46  CB         6.8160   11.2180    9.3400 C.3    52  VAL52       0.0252
     47  CG1        5.8110   12.3180    8.9890 C.3    52  VAL52       0.0019
     48  CG2        6.4730    9.8560    8.7220 C.3    52  VAL52       0.0019
     49  N          6.3700   17.2690    4.6890 N.3    57  LEU57      -0.1245
     50  CA         5.5260   16.3510    3.9370 C.3    57  LEU57       0.1561
     51  C          4.0420   16.7720    3.9030 C.2    57  LEU57       0.2260
     52  O          3.2400   16.0770    3.2910 O.2    57  LEU57      -0.2867
     53  CB         5.6250   14.9330    4.4970 C.3    57  LEU57       0.0270
     54  CG         6.9900   14.2580    4.4450 C.3    57  LEU57       0.0019
     55  CD1        6.8470   12.8560    5.0270 C.3    57  LEU57       0.0001
     56  CD2        7.5810   14.2070    3.0510 C.3    57  LEU57       0.0001
     57  N          1.7730   16.7770    6.2080 N.3    59  LEU59      -0.1245
     58  CA         0.9670   15.8400    6.9820 C.3    59  LEU59       0.1561
     59  C          0.7840   16.4650    8.3740 C.2    59  LEU59       0.2260
     60  O          1.3220   15.9720    9.3500 O.2    59  LEU59      -0.2867
     61  CB         1.6650   14.4780    7.0710 C.3    59  LEU59       0.0270
     62  CG         2.0730   13.8110    5.7450 C.3    59  LEU59       0.0019
     63  CD1        2.8240   12.5130    6.0190 C.3    59  LEU59       0.0001
     64  CD2        0.8920   13.5850    4.7970 C.3    59  LEU59       0.0001
     65  N         -0.0380   14.3810   11.5240 N.3    62  TYR62      -0.1241
     66  CA         0.6030   13.0770   11.6020 C.3    62  TYR62       0.1605
     67  C          0.8560   12.6580   13.0500 C.2    62  TYR62       0.2264
     68  O          0.4940   11.5420   13.4450 O.2    62  TYR62      -0.2867
     69  CB         1.9100   13.0390   10.7990 C.3    62  TYR62       0.0534
     70  CG         2.4960   11.6560   10.7420 C.ar   62  TYR62      -0.0201
     71  CD1        2.0730   10.7480    9.7930 C.ar   62  TYR62      -0.0009
     72  CD2        3.4860   11.2580   11.6320 C.ar   62  TYR62      -0.0009
     73  CE1        2.5900    9.4520    9.7540 C.ar   62  TYR62       0.0417
     74  CE2        4.0180    9.9660   11.6100 C.ar   62  TYR62       0.0417
     75  CZ         3.5720    9.0690   10.6460 C.ar   62  TYR62       0.1957
     76  OH         4.0810    7.7830   10.6030 O.3    62  TYR62      -0.2866
     77  N          6.4290    0.5180   12.5640 N.3    97  MET97      -0.1245
     78  CA         6.6090    1.3020   11.3450 C.3    97  MET97       0.1570
     79  C          5.5520    1.0270   10.2900 C.2    97  MET97       0.2261
     80  O          4.9590    1.9520    9.7410 O.2    97  MET97      -0.2867
     81  CB         8.0190    1.0580   10.7530 C.3    97  MET97       0.0387
     82  CG         8.2790    1.8620    9.4830 C.3    97  MET97       0.0595
     83  SD         9.9230    1.5290    8.8460 S.3    97  MET97      -0.1393
     84  CE         9.7020   -0.1490    8.2640 C.3    97  MET97       0.0692
     85  N          1.9250    3.3790    9.1700 N.3   101  CYS101     -0.1235
     86  CA         1.5720    3.7480    7.8290 C.3   101  CYS101      0.1677
     87  C          0.1040    3.4090    7.5320 C.2   101  CYS101      0.2270
     88  O         -0.6340    4.2400    6.9570 O.2   101  CYS101     -0.2867
     89  CB         2.5110    3.0860    6.8320 C.3   101  CYS101      0.0956
     90  SG         2.2750    3.6310    5.1510 S.3   101  CYS101     -0.0801
     91  N         -2.2460    5.8240    9.6660 N.3   104  TYR104     -0.1227
     92  CA        -2.3510    7.2070    9.2350 C.3   104  TYR104      0.1736
     93  C         -3.0810    7.3590    7.9110 C.2   104  TYR104      0.2595
     94  O         -3.9020    8.2850    7.7230 O.2   104  TYR104     -0.2718
     95  CB        -0.9780    7.8970    9.1590 C.3   104  TYR104      0.0548
     96  CG        -1.1230    9.3420    8.8040 C.ar  104  TYR104     -0.0200
     97  CD1       -1.6090   10.2500    9.7280 C.ar  104  TYR104     -0.0009
     98  CD2       -0.8460    9.7880    7.5350 C.ar  104  TYR104     -0.0009
     99  CE1       -1.8110   11.5670    9.3850 C.ar  104  TYR104      0.0417
    100  CE2       -1.0340   11.1160    7.1910 C.ar  104  TYR104      0.0417
    101  CZ        -1.5210   11.9920    8.1260 C.ar  104  TYR104      0.1957
    102  OH        -1.7180   13.3180    7.7790 O.3   104  TYR104     -0.2866
    103  N         -2.7990    6.4520    6.9910 N.am  105  ASN105     -0.1974
    104  CA        -3.1800    6.6050    5.5930 C.3   105  ASN105      0.1688
    105  C         -4.4010    5.7690    5.2810 C.2   105  ASN105      0.2292
    106  O         -4.8240    4.9790    6.0940 O.2   105  ASN105     -0.2864
    107  CB        -2.0100    6.2000    4.6950 C.3   105  ASN105      0.1181
    108  CG        -0.8130    7.0950    4.9100 C.2   105  ASN105      0.2629
    109  OD1       -0.8600    8.2810    4.5360 O.2   105  ASN105     -0.2716
    110  ND2        0.2310    6.5850    5.5860 N.am  105  ASN105     -0.0877
    111  N         -1.1650    4.9560   -2.3040 N.3   110  ASP110     -0.1225
    112  CA         0.1320    4.5340   -2.8430 C.3   110  ASP110      0.1805
    113  C          1.1360    4.1580   -1.7230 C.2   110  ASP110      0.2597
    114  O          1.7740    3.1200   -1.7640 O.2   110  ASP110     -0.2718
    115  CB         0.7400    5.6220   -3.7380 C.3   110  ASP110      0.1424
    116  CG        -0.0440    5.8480   -5.0510 C.2   110  ASP110      0.3668
    117  OD1       -0.9290    5.0360   -5.4120 O.co2 110  ASP110     -0.2456
    118  OD2        0.2370    6.8800   -5.6930 O.co2 110  ASP110     -0.2456
    119  N          1.2480    5.0050   -0.7090 N.am  111  ILE111     -0.1980
    120  CA         2.2030    4.7680    0.3670 C.3   111  ILE111      0.1595
    121  C          1.8750    3.4590    1.1030 C.2   111  ILE111      0.2287
    122  O          2.7690    2.7870    1.5800 O.2   111  ILE111     -0.2864
    123  CB         2.2840    5.9800    1.3240 C.3   111  ILE111      0.0276
    124  CG1        3.4650    5.9070    2.2980 C.3   111  ILE111      0.0022
    125  CG2        1.0260    6.1020    2.1600 C.3   111  ILE111      0.0022
    126  CD1        4.7980    6.2010    1.7050 C.3   111  ILE111      0.0001
    127  N          3.1760    0.5380   -0.9300 N.3   114  MET114     -0.1245
    128  CA         4.6170    0.4860   -0.7000 C.3   114  MET114      0.1570
    129  C          4.9250   -0.2150    0.6120 C.2   114  MET114      0.2261
    130  O          5.7840   -1.1220    0.6720 O.2   114  MET114     -0.2867
    131  CB         5.2000    1.8940   -0.7270 C.3   114  MET114      0.0387
    132  CG         5.1540    2.5060   -2.1070 C.3   114  MET114      0.0595
    133  SD         5.5780    4.2460   -2.1770 S.3   114  MET114     -0.1393
    134  CE         7.3580    4.1920   -2.3570 C.3   114  MET114      0.0692
@<TRIPOS>BOND
     1   118   116   ar
     2   117   116   ar
     3   116   115    1
     4   115   112    1
     5     9     7   ar
     6     9    10   ar
     7   112   111    1
     8   112   113    1
     9    12    10   ar
    10    12    14   ar
    11     7     6   ar
    12    10     8   ar
    13   134   133    1
    14   133   132    1
    15   132   131    1
    16    14    13   ar
    17   114   113    2
    18   113   119   am
    19     6     8   ar
    20     6     5    1
    21     8    11   ar
    22   127   128    1
    23    13    11   ar
    24   131   128    1
    25   119   120    1
    26   128   129    1
    27     5     2    1
    28     1     2    1
    29   120   121    1
    30   120   123    1
    31    20    21    1
    32    20    19    1
    33    21    15    1
    34   129   130    2
    35     2     3    1
    36   121   122    2
    37   123   125    1
    38   123   124    1
    39    15     3   am
    40    15    16    1
    41     3     4    2
    42   126   124    1
    43    19    16    1
    44    16    17    1
    45    30    28   ar
    46    30    32   ar
    47    56    54    1
    48    28    27   ar
    49    52    51    2
    50    32    31   ar
    51    17    22   am
    52    17    18    2
    53    51    50    1
    54    50    53    1
    55    50    49    1
    56    22    23    1
    57    41    39   am
    58    54    53    1
    59    54    55    1
    60   109   108    2
    61    40    39    2
    62    27    26    1
    63    27    29   ar
    64   107   108    1
    65   107   104    1
    66    64    62    1
    67    31    29   ar
    68   108   110   am
    69    39    38    1
    70    90    89    1
    71   105   104    1
    72   105   106    2
    73    26    23    1
    74    23    24    1
    75   104   103    1
    76    62    63    1
    77    62    61    1
    78    24    25    2
    79    57    58    1
    80    38    37    1
    81    89    86    1
    82    88    87    2
    83    58    61    1
    84    58    59    1
    85   103    93   am
    86    33    34    1
    87   100    98   ar
    88   100   101   ar
    89    37    34    1
    90    87    86    1
    91    98    96   ar
    92    94    93    2
    93   102   101    1
    94    86    85    1
    95    93    92    1
    96    34    35    1
    97   101    99   ar
    98    36    35    2
    99    84    83    1
   100    59    60    2
   101    48    46    1
   102    96    95    1
   103    96    97   ar
   104    83    82    1
   105    47    46    1
   106    43    46    1
   107    43    44    1
   108    43    42    1
   109    95    92    1
   110    92    91    1
   111    99    97   ar
   112    44    45    2
   113    82    81    1
   114    80    79    2
   115    73    71   ar
   116    73    75   ar
   117    71    70   ar
   118    79    78    1
   119    76    75    1
   120    75    74   ar
   121    70    69    1
   122    70    72   ar
   123    81    78    1
   124    69    66    1
   125    78    77    1
   126    65    66    1
   127    66    67    1
   128    74    72   ar
   129    67    68    2
