@<TRIPOS>MOLECULE
tmp/5cojD00.pdb
 68 61 0 0 0
SMALL
GASTEIGER

@<TRIPOS>ATOM
      1  N         -0.5300   11.9340  -30.3690 N.3    18  ASN18      -0.1240
      2  CA        -0.6010   11.6570  -28.9520 C.3    18  ASN18       0.1653
      3  C          0.5540   12.3000  -28.1500 C.2    18  ASN18       0.2266
      4  O          1.6260   12.6060  -28.6850 O.2    18  ASN18      -0.2867
      5  CB        -0.7280   10.1470  -28.7180 C.3    18  ASN18       0.1155
      6  CG         0.5740    9.3890  -28.9140 C.2    18  ASN18       0.2627
      7  OD1        1.5090    9.5430  -28.1240 O.2    18  ASN18      -0.2716
      8  ND2        0.6010    8.4810  -29.9200 N.am   18  ASN18      -0.0877
      9  N          2.6770   11.2520  -26.0760 N.3    20  VAL20      -0.1231
     10  CA         3.8980   10.5360  -25.8300 C.3    20  VAL20       0.1692
     11  C          4.9250   10.7750  -26.9540 C.2    20  VAL20       0.2591
     12  O          6.1370   10.6440  -26.7360 O.2    20  VAL20      -0.2718
     13  CB         3.6410    9.0320  -25.6520 C.3    20  VAL20       0.0266
     14  CG1        4.9270    8.2560  -25.3380 C.3    20  VAL20       0.0020
     15  CG2        2.6120    8.8060  -24.5490 C.3    20  VAL20       0.0020
     16  N          4.4410   11.1340  -28.1340 N.am   21  VAL21      -0.1980
     17  CA         5.2650   11.1190  -29.3480 C.3    21  VAL21       0.1595
     18  C          5.3300   12.4240  -30.1330 C.2    21  VAL21       0.2287
     19  O          5.8830   12.4360  -31.2070 O.2    21  VAL21      -0.2864
     20  CB         4.7680   10.0190  -30.3190 C.3    21  VAL21       0.0276
     21  CG1        4.6700    8.7100  -29.5760 C.3    21  VAL21       0.0022
     22  CG2        3.4180   10.3790  -30.9250 C.3    21  VAL21       0.0022
     23  N         -3.5640    7.8600  -29.9490 N.3    60  GLY60      -0.1210
     24  CA        -2.8460    7.1720  -28.8900 C.3    60  GLY60       0.1956
     25  C         -3.2740    7.5390  -27.4670 C.2    60  GLY60       0.2612
     26  O         -3.2470    6.6850  -26.5820 O.2    60  GLY60      -0.2717
     27  N         -3.5810    8.8140  -27.2350 N.am   61  THR61      -0.1952
     28  CA        -3.9570    9.2340  -25.8850 C.3    61  THR61       0.1897
     29  C         -5.3520    9.8490  -25.9040 C.2    61  THR61       0.2313
     30  O         -5.6180   10.8190  -25.2140 O.2    61  THR61      -0.2863
     31  CB        -2.8780   10.1640  -25.2290 C.3    61  THR61       0.1794
     32  OG1       -2.4820   11.2170  -26.1270 O.3    61  THR61      -0.2208
     33  CG2       -1.6010    9.3590  -24.8510 C.3    61  THR61       0.0378
     34  N         -4.5380    3.8630  -33.0080 N.3    89  VAL89      -0.1245
     35  CA        -3.6800    3.2560  -31.9960 C.3    89  VAL89       0.1561
     36  C         -4.5000    2.4970  -30.9470 C.2    89  VAL89       0.2260
     37  O         -5.4460    3.0320  -30.3640 O.2    89  VAL89      -0.2867
     38  CB        -2.8260    4.3180  -31.2610 C.3    89  VAL89       0.0252
     39  CG1       -2.0160    3.6480  -30.1340 C.3    89  VAL89       0.0019
     40  CG2       -1.8870    5.0560  -32.2400 C.3    89  VAL89       0.0019
     41  N        -12.3390    3.1580  -27.7300 N.3    97  ARG97      -0.1245
     42  CA       -11.6290    3.4270  -28.9770 C.3    97  ARG97       0.1563
     43  C        -12.3280    2.8640  -30.2260 C.2    97  ARG97       0.2260
     44  O        -12.3290    3.5070  -31.2620 O.2    97  ARG97      -0.2867
     45  CB       -10.1950    2.8930  -28.9100 C.3    97  ARG97       0.0307
     46  CG        -9.3200    3.6390  -27.9140 C.3    97  ARG97       0.0489
     47  CD        -7.9770    2.9580  -27.7040 C.3    97  ARG97       0.2205
     48  NE        -7.2840    3.6510  -26.6180 N.pl3  97  ARG97      -0.0865
     49  CZ        -6.3100    4.5340  -26.7830 C.cat  97  ARG97       0.5346
     50  NH1       -5.7970    4.7520  -27.9840 N.pl3  97  ARG97       0.1354
     51  NH2       -5.8040    5.1480  -25.7360 N.pl3  97  ARG97       0.1354
     52  N          9.6520    4.2900  -28.2400 N.3   172  THR172     -0.1218
     53  CA         8.2020    4.6200  -28.1720 C.3   172  THR172      0.1862
     54  C          7.6900    5.4380  -29.3320 C.2   172  THR172      0.2287
     55  O          6.6030    5.1640  -29.8400 O.2   172  THR172     -0.2866
     56  CB         7.7070    5.2160  -26.7980 C.3   172  THR172      0.1770
     57  OG1        6.2750    5.0430  -26.6870 O.3   172  THR172     -0.2211
     58  CG2        8.0140    6.6680  -26.6750 C.3   172  THR172      0.0375
     59  N          6.5940    3.8480  -34.4930 N.3   175  GLY175     -0.1210
     60  CA         5.5240    3.5880  -35.4220 C.3   175  GLY175      0.1956
     61  C          4.6220    4.8070  -35.5120 C.2   175  GLY175      0.2612
     62  O          4.0770    5.1150  -36.5770 O.2   175  GLY175     -0.2717
     63  N          4.5190    5.5530  -34.4120 N.am  176  CYS176     -0.1970
     64  CA         3.6700    6.7350  -34.4010 C.3   176  CYS176      0.1712
     65  C          4.3570    7.8410  -35.2880 C.2   176  CYS176      0.2296
     66  O          3.6680    8.6030  -36.0470 O.2   176  CYS176     -0.2864
     67  CB         3.2660    7.1220  -32.9330 C.3   176  CYS176      0.0983
     68  SG         2.2330    5.9330  -31.8990 S.3   176  CYS176     -0.0798
@<TRIPOS>BOND
     1    62    61    2
     2    66    65    2
     3    61    60    1
     4    61    63   am
     5    60    59    1
     6    65    64    1
     7    63    64    1
     8    64    67    1
     9    34    35    1
    10    67    68    1
    11    40    38    1
    12    35    38    1
    13    35    36    1
    14    44    43    2
    15    38    39    1
    16    19    18    2
    17    36    37    2
    18    22    20    1
    19     1     2    1
    20    20    21    1
    21    20    17    1
    22    43    42    1
    23    18    17    1
    24    23    24    1
    25     8     6   am
    26    55    54    2
    27    17    16    1
    28    54    53    1
    29    42    45    1
    30    42    41    1
    31     2     5    1
    32     2     3    1
    33     6     5    1
    34     6     7    2
    35    45    46    1
    36    24    25    1
    37     4     3    2
    38    52    53    1
    39    53    56    1
    40    16    11   am
    41    50    49    1
    42    46    47    1
    43    47    48    1
    44    25    27   am
    45    25    26    2
    46    27    28    1
    47    11    12    2
    48    11    10    1
    49    56    57    1
    50    56    58    1
    51    49    48    2
    52    49    51    1
    53    32    31    1
    54     9    10    1
    55    29    28    1
    56    29    30    2
    57    28    31    1
    58    10    13    1
    59    13    14    1
    60    13    15    1
    61    31    33    1
