@<TRIPOS>MOLECULE
tmp/5comA00.pdb
 121 122 0 0 0
SMALL
GASTEIGER

@<TRIPOS>ATOM
      1  N         23.5870   -6.5370   38.5820 N.3    49  TYR49      -0.1241
      2  CA        22.3690   -5.7590   38.7810 C.3    49  TYR49       0.1605
      3  C         22.6690   -4.2590   38.6950 C.2    49  TYR49       0.2264
      4  O         21.9010   -3.4880   38.1000 O.2    49  TYR49      -0.2867
      5  CB        21.7730   -6.0930   40.1350 C.3    49  TYR49       0.0534
      6  CG        20.5390   -5.3350   40.5110 C.ar   49  TYR49      -0.0201
      7  CD1       20.6260   -4.1130   41.2020 C.ar   49  TYR49      -0.0009
      8  CD2       19.2800   -5.8600   40.2370 C.ar   49  TYR49      -0.0009
      9  CE1       19.4690   -3.4190   41.5700 C.ar   49  TYR49       0.0417
     10  CE2       18.1240   -5.1920   40.6160 C.ar   49  TYR49       0.0417
     11  CZ        18.2300   -3.9700   41.2720 C.ar   49  TYR49       0.1957
     12  OH        17.0940   -3.2950   41.6290 O.3    49  TYR49      -0.2866
     13  N         21.2980   -1.5540   35.7450 N.3    53  TRP53      -0.1241
     14  CA        20.5150   -0.3430   35.9350 C.3    53  TRP53       0.1605
     15  C         21.3020    0.9340   35.5840 C.2    53  TRP53       0.2264
     16  O         20.7430    1.8550   34.9710 O.2    53  TRP53      -0.2867
     17  CB        20.0110   -0.2380   37.3820 C.3    53  TRP53       0.0550
     18  CG        18.7000   -0.9550   37.6200 C.ar   53  TRP53       0.0003
     19  CD1       18.4750   -1.9790   38.5030 C.ar   53  TRP53       0.0946
     20  CD2       17.4490   -0.7040   36.9620 C.ar   53  TRP53       0.0152
     21  NE1       17.1520   -2.3650   38.4490 N.ar   53  TRP53      -0.2442
     22  CE2       16.5030   -1.6010   37.5040 C.ar   53  TRP53       0.0810
     23  CE3       17.0370    0.1880   35.9540 C.ar   53  TRP53       0.0012
     24  CZ2       15.1660   -1.6270   37.0860 C.ar   53  TRP53       0.0191
     25  CZ3       15.7240    0.1680   35.5410 C.ar   53  TRP53       0.0001
     26  CH2       14.7960   -0.7470   36.0980 C.ar   53  TRP53       0.0015
     27  N         19.0320    5.9790   28.6850 N.3    60  TRP60      -0.1241
     28  CA        17.8150    6.7790   28.5610 C.3    60  TRP60       0.1605
     29  C         18.2050    8.2310   28.2830 C.2    60  TRP60       0.2264
     30  O         17.6820    8.8590   27.3760 O.2    60  TRP60      -0.2867
     31  CB        16.9620    6.7360   29.8230 C.3    60  TRP60       0.0550
     32  CG        16.4610    5.3910   30.2830 C.ar   60  TRP60       0.0003
     33  CD1       16.2940    4.2440   29.5360 C.ar   60  TRP60       0.0946
     34  CD2       16.0410    5.0770   31.6090 C.ar   60  TRP60       0.0152
     35  NE1       15.8050    3.2280   30.3470 N.ar   60  TRP60      -0.2442
     36  CE2       15.6360    3.7240   31.6190 C.ar   60  TRP60       0.0810
     37  CE3       15.9830    5.8100   32.8070 C.ar   60  TRP60       0.0012
     38  CZ2       15.1890    3.0930   32.7760 C.ar   60  TRP60       0.0191
     39  CZ3       15.5310    5.1800   33.9510 C.ar   60  TRP60       0.0001
     40  CH2       15.1370    3.8280   33.9280 C.ar   60  TRP60       0.0015
     41  N          7.4260   -2.1970   32.6620 N.3    79  TRP79      -0.1241
     42  CA         7.5830   -1.8830   34.0850 C.3    79  TRP79       0.1605
     43  C          6.9790   -2.9280   35.0420 C.2    79  TRP79       0.2264
     44  O          7.3150   -2.9300   36.2270 O.2    79  TRP79      -0.2867
     45  CB         7.0090   -0.4810   34.3780 C.3    79  TRP79       0.0550
     46  CG         8.0290    0.5900   34.0130 C.ar   79  TRP79       0.0003
     47  CD1        7.9920    1.4530   32.9430 C.ar   79  TRP79       0.0946
     48  CD2        9.2760    0.8240   34.6730 C.ar   79  TRP79       0.0152
     49  NE1        9.1240    2.2320   32.9350 N.ar   79  TRP79      -0.2442
     50  CE2        9.9290    1.8620   33.9830 C.ar   79  TRP79       0.0810
     51  CE3        9.8860    0.2820   35.8100 C.ar   79  TRP79       0.0012
     52  CZ2       11.1680    2.3610   34.3830 C.ar   79  TRP79       0.0191
     53  CZ3       11.1180    0.7750   36.2110 C.ar   79  TRP79       0.0001
     54  CH2       11.7520    1.8030   35.4880 C.ar   79  TRP79       0.0015
     55  N          9.8980   -6.4200   35.6410 N.3    82  LEU82      -0.1245
     56  CA        11.2430   -6.1770   36.1470 C.3    82  LEU82       0.1561
     57  C         11.9600   -7.5080   36.4740 C.2    82  LEU82       0.2260
     58  O         13.1770   -7.6120   36.2900 O.2    82  LEU82      -0.2867
     59  CB        11.2110   -5.2740   37.3700 C.3    82  LEU82       0.0270
     60  CG        10.7490   -3.8350   37.0700 C.3    82  LEU82       0.0019
     61  CD1       10.8570   -2.9540   38.3350 C.3    82  LEU82       0.0001
     62  CD2       11.5390   -3.2160   35.8830 C.3    82  LEU82       0.0001
     63  N         15.6840   -8.3540   35.2820 N.3    86  TYR86      -0.1241
     64  CA        16.7930   -8.7540   36.1510 C.3    86  TYR86       0.1605
     65  C         17.4400  -10.0530   35.6500 C.2    86  TYR86       0.2264
     66  O         18.6500  -10.1820   35.6730 O.2    86  TYR86      -0.2867
     67  CB        16.3340   -8.9100   37.6020 C.3    86  TYR86       0.0534
     68  CG        15.7890   -7.6290   38.2040 C.ar   86  TYR86      -0.0201
     69  CD1       15.9070   -6.4120   37.5250 C.ar   86  TYR86      -0.0009
     70  CD2       15.1180   -7.6350   39.4410 C.ar   86  TYR86      -0.0009
     71  CE1       15.3910   -5.2340   38.0710 C.ar   86  TYR86       0.0417
     72  CE2       14.5870   -6.4430   39.9900 C.ar   86  TYR86       0.0417
     73  CZ        14.7340   -5.2580   39.2910 C.ar   86  TYR86       0.1957
     74  OH        14.2290   -4.0580   39.8040 O.3    86  TYR86      -0.2866
     75  N          8.2290    6.6330   35.7760 N.3   135  THR135     -0.1218
     76  CA         7.2770    6.4740   36.8730 C.3   135  THR135      0.1862
     77  C          6.0290    7.2510   36.5520 C.2   135  THR135      0.2287
     78  O          5.9320    8.4340   36.8900 O.2   135  THR135     -0.2866
     79  CB         7.8410    6.9500   38.2280 C.3   135  THR135      0.1770
     80  OG1        8.2660    8.3090   38.1080 O.3   135  THR135     -0.2211
     81  CG2        9.0290    6.0810   38.6580 C.3   135  THR135      0.0375
     82  N          8.6720   11.9280   39.5510 N.3   140  TRP140     -0.1241
     83  CA        10.0490   11.8570   40.0330 C.3   140  TRP140      0.1605
     84  C         11.0080   12.6980   39.2120 C.2   140  TRP140      0.2264
     85  O         11.0380   12.5970   37.9840 O.2   140  TRP140     -0.2867
     86  CB        10.6010   10.4260   39.9970 C.3   140  TRP140      0.0550
     87  CG        10.1420    9.4500   40.9960 C.ar  140  TRP140      0.0003
     88  CD1        9.0040    9.4750   41.7340 C.ar  140  TRP140      0.0946
     89  CD2       10.8320    8.2380   41.3460 C.ar  140  TRP140      0.0152
     90  NE1        8.9420    8.3410   42.5410 N.ar  140  TRP140     -0.2442
     91  CE2       10.0590    7.5800   42.3250 C.ar  140  TRP140      0.0810
     92  CE3       12.0470    7.6690   40.9430 C.ar  140  TRP140      0.0012
     93  CZ2       10.4480    6.3620   42.8920 C.ar  140  TRP140      0.0191
     94  CZ3       12.4310    6.4550   41.5090 C.ar  140  TRP140      0.0001
     95  CH2       11.6320    5.8150   42.4650 C.ar  140  TRP140      0.0015
     96  N         15.8390    9.3620   40.3690 N.3   145  PHE145     -0.1241
     97  CA        16.2290    8.1580   39.6220 C.3   145  PHE145      0.1605
     98  C         17.7080    7.8330   39.7750 C.2   145  PHE145      0.2264
     99  O         18.0800    6.6640   39.8360 O.2   145  PHE145     -0.2867
    100  CB        15.9160    8.3120   38.1270 C.3   145  PHE145      0.0534
    101  CG        14.4680    8.1850   37.7880 C.ar  145  PHE145     -0.0203
    102  CD1       13.8840    6.9340   37.6520 C.ar  145  PHE145     -0.0042
    103  CD2       13.6880    9.3210   37.5860 C.ar  145  PHE145     -0.0042
    104  CE1       12.5510    6.8120   37.3300 C.ar  145  PHE145     -0.0003
    105  CE2       12.3490    9.2040   37.2660 C.ar  145  PHE145     -0.0003
    106  CZ        11.7790    7.9510   37.1330 C.ar  145  PHE145     -0.0000
    107  N         18.1370    6.4560   43.4320 N.3   148  VAL148     -0.1231
    108  CA        17.5200    5.1410   43.6000 C.3   148  VAL148      0.1692
    109  C         18.2760    4.0390   42.8460 C.2   148  VAL148      0.2592
    110  O         18.0820    2.8470   43.1060 O.2   148  VAL148     -0.2718
    111  CB        16.0350    5.1960   43.1420 C.3   148  VAL148      0.0266
    112  CG1       15.4520    3.8270   42.9920 C.3   148  VAL148      0.0020
    113  CG2       15.2140    5.9970   44.1550 C.3   148  VAL148      0.0020
    114  N         19.1530    4.4290   41.9190 N.am  149  ASN149     -0.1974
    115  CA        19.9070    3.4470   41.1220 C.3   149  ASN149      0.1688
    116  C         21.4000    3.4640   41.4330 C.2   149  ASN149      0.2292
    117  O         22.1930    2.7490   40.8080 O.2   149  ASN149     -0.2864
    118  CB        19.6580    3.6880   39.6260 C.3   149  ASN149      0.1181
    119  CG        18.2880    3.1870   39.1900 C.2   149  ASN149      0.2629
    120  OD1       18.0330    1.9660   39.1760 O.2   149  ASN149     -0.2716
    121  ND2       17.3930    4.1130   38.8520 N.am  149  ASN149     -0.0877
@<TRIPOS>BOND
     1    30    29    2
     2    29    28    1
     3    28    27    1
     4    28    31    1
     5    33    32   ar
     6    33    35   ar
     7    31    32    1
     8    32    34   ar
     9    35    36   ar
    10    34    36   ar
    11    34    37   ar
    12    36    38   ar
    13    41    42    1
    14    38    40   ar
    15    37    39   ar
    16    49    47   ar
    17    49    50   ar
    18    47    46   ar
    19    40    39   ar
    20    50    52   ar
    21    50    48   ar
    22    46    45    1
    23    46    48   ar
    24    42    45    1
    25    42    43    1
    26    52    54   ar
    27    48    51   ar
    28    16    15    2
    29    43    44    2
    30    63    64    1
    31    54    53   ar
    32    25    23   ar
    33    25    26   ar
    34    15    14    1
    35    55    56    1
    36    65    66    2
    37    65    64    1
    38    13    14    1
    39    75    76    1
    40    51    53   ar
    41    62    60    1
    42    14    17    1
    43    23    20   ar
    44    26    24   ar
    45    56    57    1
    46    56    59    1
    47    64    67    1
    48    58    57    2
    49    77    76    1
    50    77    78    2
    51    76    79    1
    52    20    22   ar
    53    20    18   ar
    54    60    59    1
    55    60    61    1
    56    24    22   ar
    57   106   105   ar
    58   106   104   ar
    59   105   103   ar
    60   104   102   ar
    61    17    18    1
    62    22    21   ar
    63    69    71   ar
    64    69    68   ar
    65   103   101   ar
    66    67    68    1
    67    18    19   ar
    68   102   101   ar
    69   101   100    1
    70    85    84    2
    71    71    73   ar
    72     4     3    2
    73    80    79    1
    74   100    97    1
    75    68    70   ar
    76    79    81    1
    77    21    19   ar
    78     1     2    1
    79     3     2    1
    80     2     5    1
    81   121   119   am
    82   120   119    2
    83   119   118    1
    84    84    83    1
    85    73    74    1
    86    73    72   ar
    87    70    72   ar
    88    82    83    1
    89    97    98    1
    90    97    96    1
    91   118   115    1
    92    98    99    2
    93    86    83    1
    94    86    87    1
    95     5     6    1
    96     8     6   ar
    97     8    10   ar
    98     6     7   ar
    99    10    11   ar
   100   117   116    2
   101    92    89   ar
   102    92    94   ar
   103    87    89   ar
   104    87    88   ar
   105   115   116    1
   106   115   114    1
   107     7     9   ar
   108    11     9   ar
   109    11    12    1
   110    89    91   ar
   111    94    95   ar
   112    88    90   ar
   113   114   109   am
   114    91    90   ar
   115    91    93   ar
   116    95    93   ar
   117   109   110    2
   118   109   108    1
   119   112   111    1
   120   111   108    1
   121   111   113    1
   122   107   108    1
