@<TRIPOS>MOLECULE
tmp/5conA00.pdb
 112 105 0 0 0
SMALL
GASTEIGER

@<TRIPOS>ATOM
      1  N        -21.2310   19.4730    6.1600 N.3     8  ARG8       -0.1245
      2  CA       -20.7010   19.2660    4.7970 C.3     8  ARG8        0.1563
      3  C        -21.5430   20.0090    3.7570 C.2     8  ARG8        0.2260
      4  O        -22.7790   19.9660    3.7940 O.2     8  ARG8       -0.2867
      5  CB       -20.6410   17.7760    4.4300 C.3     8  ARG8        0.0307
      6  CG       -19.5550   16.9920    5.1510 C.3     8  ARG8        0.0489
      7  CD       -19.2670   15.6540    4.4740 C.3     8  ARG8        0.2205
      8  NE       -18.2170   14.9040    5.1670 N.pl3   8  ARG8       -0.0865
      9  CZ       -17.3440   14.0930    4.5670 C.cat   8  ARG8        0.5346
     10  NH1      -17.3820   13.9240    3.2500 N.pl3   8  ARG8        0.1354
     11  NH2      -16.4210   13.4560    5.2800 N.pl3   8  ARG8        0.1354
     12  N        -20.1430   16.8510   -2.8390 N.3    23  LEU23      -0.1245
     13  CA       -19.6260   17.8060   -1.8860 C.3    23  LEU23       0.1561
     14  C        -18.9760   18.9330   -2.6710 C.2    23  LEU23       0.2260
     15  O        -18.1340   18.6610   -3.5290 O.2    23  LEU23      -0.2867
     16  CB       -18.5750   17.0690   -1.0640 C.3    23  LEU23       0.0270
     17  CG       -17.9060   17.6900    0.1540 C.3    23  LEU23       0.0019
     18  CD1      -18.9370   17.8910    1.2430 C.3    23  LEU23       0.0001
     19  CD2      -16.7840   16.7620    0.6290 C.3    23  LEU23       0.0001
     20  N        -16.2880   21.3030   -3.1810 N.3    25  ASN25      -0.1240
     21  CA       -14.9580   21.0790   -2.6340 C.3    25  ASN25       0.1653
     22  C        -13.9060   22.0550   -3.1490 C.2    25  ASN25       0.2266
     23  O        -13.3310   21.8480   -4.2160 O.2    25  ASN25      -0.2867
     24  CB       -14.5240   19.6340   -2.8950 C.3    25  ASN25       0.1155
     25  CG       -13.3590   19.2170   -2.0260 C.2    25  ASN25       0.2627
     26  OD1      -12.5830   20.0500   -1.5710 O.2    25  ASN25      -0.2716
     27  ND2      -13.2480   17.9300   -1.7700 N.am   25  ASN25      -0.0877
     28  N        -11.0850   22.4500   -2.1180 N.3    27  GLY27      -0.1210
     29  CA        -9.7620   21.8820   -1.9290 C.3    27  GLY27       0.1956
     30  C         -9.4170   20.9410   -3.0570 C.2    27  GLY27       0.2612
     31  O         -8.3380   20.3450   -3.0840 O.2    27  GLY27      -0.2717
     32  N        -10.3450   20.8260   -4.0050 N.am   28  ALA28      -0.1965
     33  CA       -10.1930   19.9310   -5.1390 C.3    28  ALA28       0.1728
     34  C        -10.0690   20.7390   -6.4350 C.2    28  ALA28       0.2616
     35  O        -10.9490   21.5440   -6.7610 O.2    28  ALA28      -0.2715
     36  CB       -11.4160   18.9770   -5.2070 C.3    28  ALA28       0.0334
     37  N         -8.9850   20.5410   -7.1790 N.am   29  ASP29      -0.1957
     38  CA        -8.8470   21.2210   -8.4590 C.3    29  ASP29       0.1840
     39  C         -9.8690   20.6420   -9.4400 C.2    29  ASP29       0.2622
     40  O        -10.5460   21.3750  -10.1650 O.2    29  ASP29      -0.2715
     41  CB        -7.4480   21.0040   -9.0510 C.3    29  ASP29       0.1450
     42  CG        -6.3290   21.2720   -8.0610 C.2    29  ASP29       0.3671
     43  OD1       -6.4910   22.1290   -7.1640 O.co2  29  ASP29      -0.2456
     44  OD2       -5.2750   20.6150   -8.1950 O.co2  29  ASP29      -0.2456
     45  N         -9.9640   19.3160   -9.4380 N.am   30  ASP30      -0.1971
     46  CA       -10.7950   18.5720  -10.3950 C.3    30  ASP30       0.1709
     47  C        -12.0710   18.0310   -9.7560 C.2    30  ASP30       0.2293
     48  O        -12.1980   17.9980   -8.5360 O.2    30  ASP30      -0.2864
     49  CB        -9.9950   17.3900  -10.9560 C.3    30  ASP30       0.1436
     50  CG        -8.7140   17.8200  -11.6490 C.2    30  ASP30       0.3671
     51  OD1       -8.6470   18.9570  -12.1520 O.co2  30  ASP30      -0.2456
     52  OD2       -7.7690   17.0130  -11.6850 O.co2  30  ASP30      -0.2456
     53  N        -14.4190   14.7100   -9.1210 N.3    32  VAL32      -0.1245
     54  CA       -14.2380   13.2640   -9.0330 C.3    32  VAL32       0.1561
     55  C        -15.5170   12.6100   -8.5110 C.2    32  VAL32       0.2260
     56  O        -15.9610   12.8690   -7.3830 O.2    32  VAL32      -0.2867
     57  CB       -13.0410   12.8660   -8.1110 C.3    32  VAL32       0.0252
     58  CG1      -12.5960   11.4410   -8.4270 C.3    32  VAL32       0.0019
     59  CG2      -11.8780   13.8180   -8.2870 C.3    32  VAL32       0.0019
     60  N         -4.7190   10.3120  -10.1080 N.3    47  ILE47      -0.1231
     61  CA        -4.8470   11.5000   -9.2690 C.3    47  ILE47       0.1692
     62  C         -4.4390   11.2330   -7.8220 C.2    47  ILE47       0.2593
     63  O         -4.7160   10.1670   -7.2750 O.2    47  ILE47      -0.2718
     64  CB        -6.2650   12.1380   -9.3420 C.3    47  ILE47       0.0266
     65  CG1       -7.3190   11.2630   -8.6630 C.3    47  ILE47       0.0019
     66  CG2       -6.6460   12.4540  -10.7930 C.3    47  ILE47       0.0020
     67  CD1       -8.6870   11.9250   -8.6230 C.3    47  ILE47       0.0001
     68  N         -3.7700   12.2080   -7.2130 N.am   48  GLY48      -0.1942
     69  CA        -3.2550   12.0370   -5.8690 C.3    48  GLY48       0.2014
     70  C         -4.0440   12.7940   -4.8260 C.2    48  GLY48       0.2639
     71  O         -4.4770   13.9180   -5.0570 O.2    48  GLY48      -0.2714
     72  N         -4.2270   12.1690   -3.6720 N.am   49  GLY49      -0.1939
     73  CA        -4.9010   12.7980   -2.5550 C.3    49  GLY49       0.2014
     74  C         -4.1170   12.6000   -1.2780 C.2    49  GLY49       0.2638
     75  O         -2.9040   12.4100   -1.3160 O.2    49  GLY49      -0.2714
     76  N         -4.8050   12.6210   -0.1440 N.am   50  ILE50      -0.1977
     77  CA        -4.1150   12.6210    1.1380 C.3    50  ILE50       0.1596
     78  C         -3.3520   11.3220    1.4480 C.2    50  ILE50       0.2287
     79  O         -2.2490   11.3710    2.0040 O.2    50  ILE50      -0.2864
     80  CB        -5.0650   13.0440    2.2930 C.3    50  ILE50       0.0276
     81  CG1       -4.3720   14.0770    3.1840 C.3    50  ILE50       0.0022
     82  CG2       -5.5300   11.8580    3.1120 C.3    50  ILE50       0.0022
     83  CD1       -5.2710   14.6890    4.2180 C.3    50  ILE50       0.0001
     84  N        -13.1860    7.2360   -5.6650 N.3    80  THR80      -0.1204
     85  CA       -13.2020    8.2500   -4.6110 C.3    80  THR80       0.1979
     86  C        -14.2220    7.8740   -3.5300 C.2    80  THR80       0.2460
     87  O        -15.2820    7.3160   -3.8390 O.2    80  THR80      -0.2732
     88  CB       -13.5290    9.6600   -5.1860 C.3    80  THR80       0.1783
     89  OG1      -13.7180   10.5930   -4.1140 O.3    80  THR80      -0.2211
     90  CG2      -14.7880    9.6160   -6.0220 C.3    80  THR80       0.0376
     91  N        -13.9070    8.1630   -2.2540 N.am   81  PRO81      -0.2717
     92  CA       -14.8410    7.8650   -1.1540 C.3    81  PRO81       0.1535
     93  C        -16.1060    8.7240   -1.1830 C.2    81  PRO81       0.2598
     94  O        -17.1100    8.3530   -0.5680 O.2    81  PRO81      -0.2715
     95  CB       -14.0420    8.2310    0.1030 C.3    81  PRO81       0.0310
     96  CG       -12.6000    8.2660   -0.3310 C.3    81  PRO81       0.0237
     97  CD       -12.6230    8.6960   -1.7670 C.3    81  PRO81       0.0939
     98  N        -16.0390    9.8750   -1.8500 N.am   82  VAL82      -0.1978
     99  CA       -17.1300   10.8510   -1.8390 C.3    82  VAL82       0.1596
    100  C        -17.1640   11.5240   -3.2060 C.2    82  VAL82       0.2287
    101  O        -16.1030   11.7580   -3.7950 O.2    82  VAL82      -0.2864
    102  CB       -16.8930   11.9350   -0.7470 C.3    82  VAL82       0.0276
    103  CG1      -17.9850   12.9890   -0.7750 C.3    82  VAL82       0.0022
    104  CG2      -16.8150   11.3190    0.6560 C.3    82  VAL82       0.0022
    105  N        -17.1290   14.5600   -5.3340 N.3    84  ILE84      -0.1245
    106  CA       -16.6000   15.8810   -5.0180 C.3    84  ILE84       0.1561
    107  C        -16.6500   16.7980   -6.2440 C.2    84  ILE84       0.2260
    108  O        -16.1650   16.4380   -7.3210 O.2    84  ILE84      -0.2867
    109  CB       -15.1700   15.8080   -4.4300 C.3    84  ILE84       0.0252
    110  CG1      -14.2660   14.9060   -5.2480 C.3    84  ILE84       0.0019
    111  CG2      -15.1990   15.2590   -3.0120 C.3    84  ILE84       0.0019
    112  CD1      -12.9720   14.5370   -4.5000 C.3    84  ILE84       0.0001
@<TRIPOS>BOND
     1    51    50   ar
     2    52    50   ar
     3    50    49    1
     4    49    46    1
     5    66    64    1
     6    46    47    1
     7    46    45    1
     8    40    39    2
     9    60    61    1
    10    47    48    2
    11    39    45   am
    12    39    38    1
    13    64    61    1
    14    64    65    1
    15    61    62    1
    16    53    54    1
    17    41    38    1
    18    41    42    1
    19    54    55    1
    20    54    57    1
    21    65    67    1
    22    55    56    2
    23    38    37    1
    24    58    57    1
    25    59    57    1
    26    44    42   ar
    27    42    43   ar
    28    62    63    2
    29    62    68   am
    30   108   107    2
    31    68    69    1
    32    37    34   am
    33    35    34    2
    34    34    33    1
    35   107   106    1
    36    90    88    1
    37    69    70    1
    38    84    85    1
    39   105   106    1
    40   110   112    1
    41   110   109    1
    42    36    33    1
    43    88    85    1
    44    88    89    1
    45    33    32    1
    46    71    70    2
    47   106   109    1
    48    70    72   am
    49    85    86    1
    50   109   111    1
    51    23    22    2
    52    32    30   am
    53    87    86    2
    54   101   100    2
    55    72    73    1
    56    86    91   am
    57    15    14    2
    58   100    99    1
    59    20    21    1
    60    22    21    1
    61    31    30    2
    62    30    29    1
    63    24    21    1
    64    24    25    1
    65    12    13    1
    66    14    13    1
    67    73    74    1
    68    91    97    1
    69    91    92    1
    70    28    29    1
    71    25    27   am
    72    25    26    2
    73    13    16    1
    74    98    99    1
    75    98    93   am
    76    99   102    1
    77    97    96    1
    78    75    74    2
    79    74    76   am
    80    93    92    1
    81    93    94    2
    82    92    95    1
    83    16    17    1
    84   103   102    1
    85   102   104    1
    86    96    95    1
    87    76    77    1
    88    17    19    1
    89    17    18    1
    90    77    78    1
    91    77    80    1
    92    78    79    2
    93    80    82    1
    94    80    81    1
    95    81    83    1
    96    10     9    1
    97     3     4    2
    98     3     2    1
    99     5     2    1
   100     5     6    1
   101     7     6    1
   102     7     8    1
   103     9     8    2
   104     9    11    1
   105     2     1    1
