@<TRIPOS>MOLECULE
tmp/5copB00.pdb
 112 105 0 0 0
SMALL
GASTEIGER

@<TRIPOS>ATOM
      1  N        -21.2170   19.4920    6.6010 N.3     8  ARG8       -0.1245
      2  CA       -20.6890   19.2760    5.2510 C.3     8  ARG8        0.1563
      3  C        -21.5570   19.9820    4.2190 C.2     8  ARG8        0.2260
      4  O        -22.7820   19.8590    4.2450 O.2     8  ARG8       -0.2867
      5  CB       -20.6100   17.7880    4.9130 C.3     8  ARG8        0.0307
      6  CG       -19.5380   17.0450    5.6740 C.3     8  ARG8        0.0489
      7  CD       -19.4030   15.6070    5.1990 C.3     8  ARG8        0.2205
      8  NE       -19.0130   14.7450    6.3070 N.pl3   8  ARG8       -0.0865
      9  CZ       -18.6580   13.4710    6.1860 C.cat   8  ARG8        0.5346
     10  NH1      -18.6190   12.8970    4.9870 N.pl3   8  ARG8        0.1354
     11  NH2      -18.3300   12.7740    7.2710 N.pl3   8  ARG8        0.1354
     12  N        -20.1610   16.7480   -2.3890 N.3    23  LEU23      -0.1245
     13  CA       -19.6060   17.7450   -1.4870 C.3    23  LEU23       0.1561
     14  C        -18.9780   18.9200   -2.2440 C.2    23  LEU23       0.2260
     15  O        -18.0880   18.7090   -3.0840 O.2    23  LEU23      -0.2867
     16  CB       -18.5520   17.0420   -0.6320 C.3    23  LEU23       0.0270
     17  CG       -17.7150   17.8540    0.3570 C.3    23  LEU23       0.0019
     18  CD1      -18.6190   18.4550    1.3870 C.3    23  LEU23       0.0001
     19  CD2      -16.6470   16.9700    1.0280 C.3    23  LEU23       0.0001
     20  N        -16.3150   21.2790   -2.6490 N.3    25  ASN25      -0.1240
     21  CA       -14.9630   21.0900   -2.1180 C.3    25  ASN25       0.1653
     22  C        -13.9370   22.0900   -2.6890 C.2    25  ASN25       0.2266
     23  O        -13.3830   21.8790   -3.7780 O.2    25  ASN25      -0.2867
     24  CB       -14.5540   19.6460   -2.3940 C.3    25  ASN25       0.1155
     25  CG       -13.3490   19.1920   -1.5860 C.2    25  ASN25       0.2627
     26  OD1      -12.5270   19.9840   -1.1530 O.2    25  ASN25      -0.2716
     27  ND2      -13.2410   17.8910   -1.3930 N.am   25  ASN25      -0.0877
     28  N        -11.1010   22.5490   -1.6110 N.3    27  GLY27      -0.1210
     29  CA        -9.7800   21.9640   -1.4790 C.3    27  GLY27       0.1956
     30  C         -9.4450   20.9790   -2.5850 C.2    27  GLY27       0.2612
     31  O         -8.4130   20.3130   -2.5490 O.2    27  GLY27      -0.2717
     32  N        -10.3230   20.8960   -3.5800 N.am   28  ALA28      -0.1965
     33  CA       -10.1370   19.9940   -4.7090 C.3    28  ALA28       0.1728
     34  C        -10.0510   20.8040   -6.0030 C.2    28  ALA28       0.2616
     35  O        -10.9120   21.6340   -6.2760 O.2    28  ALA28      -0.2715
     36  CB       -11.3000   19.0060   -4.7780 C.3    28  ALA28       0.0334
     37  N         -9.0050   20.5820   -6.7910 N.am   29  ASP29      -0.1957
     38  CA        -8.8850   21.2630   -8.0690 C.3    29  ASP29       0.1840
     39  C         -9.9180   20.6730   -9.0210 C.2    29  ASP29       0.2622
     40  O        -10.5750   21.3980   -9.7600 O.2    29  ASP29      -0.2715
     41  CB        -7.4880   21.0430   -8.6720 C.3    29  ASP29       0.1450
     42  CG        -6.3600   21.4600   -7.7320 C.2    29  ASP29       0.3671
     43  OD1       -6.5800   22.3670   -6.9030 O.co2  29  ASP29      -0.2456
     44  OD2       -5.2550   20.8760   -7.8220 O.co2  29  ASP29      -0.2456
     45  N        -10.0400   19.3440   -9.0010 N.am   30  ASP30      -0.1971
     46  CA       -10.8770   18.6260   -9.9600 C.3    30  ASP30       0.1709
     47  C        -12.1500   18.0810   -9.3110 C.2    30  ASP30       0.2293
     48  O        -12.2690   18.0140   -8.0850 O.2    30  ASP30      -0.2864
     49  CB       -10.1310   17.4270  -10.5560 C.3    30  ASP30       0.1436
     50  CG        -8.7590   17.7780  -11.0950 C.2    30  ASP30       0.3671
     51  OD1       -8.5910   18.9050  -11.5990 O.co2  30  ASP30      -0.2456
     52  OD2       -7.8540   16.9110  -11.0100 O.co2  30  ASP30      -0.2456
     53  N        -14.3950   14.8330   -8.6380 N.3    32  VAL32      -0.1245
     54  CA       -14.2260   13.3840   -8.5400 C.3    32  VAL32       0.1561
     55  C        -15.4990   12.6750   -8.0580 C.2    32  VAL32       0.2260
     56  O        -15.9630   12.9090   -6.9420 O.2    32  VAL32      -0.2867
     57  CB       -13.0720   12.9850   -7.5800 C.3    32  VAL32       0.0252
     58  CG1      -12.6650   11.5390   -7.8480 C.3    32  VAL32       0.0019
     59  CG2      -11.8710   13.9050   -7.7640 C.3    32  VAL32       0.0019
     60  N         -4.7640   10.3960   -9.5980 N.3    47  ILE47      -0.1231
     61  CA        -4.8370   11.6000   -8.7680 C.3    47  ILE47       0.1692
     62  C         -4.4390   11.3220   -7.3260 C.2    47  ILE47       0.2593
     63  O         -4.6860   10.2370   -6.7910 O.2    47  ILE47      -0.2718
     64  CB        -6.2230   12.2870   -8.8360 C.3    47  ILE47       0.0266
     65  CG1       -7.3070   11.4140   -8.2060 C.3    47  ILE47       0.0019
     66  CG2       -6.5790   12.6320  -10.2820 C.3    47  ILE47       0.0020
     67  CD1       -8.6130   12.1320   -8.0770 C.3    47  ILE47       0.0001
     68  N         -3.8010   12.3020   -6.7000 N.am   48  GLY48      -0.1942
     69  CA        -3.2550   12.0980   -5.3740 C.3    48  GLY48       0.2014
     70  C         -3.9770   12.9010   -4.3160 C.2    48  GLY48       0.2639
     71  O         -4.2750   14.0730   -4.5060 O.2    48  GLY48      -0.2714
     72  N         -4.2520   12.2560   -3.1900 N.am   49  GLY49      -0.1939
     73  CA        -4.9260   12.9030   -2.0860 C.3    49  GLY49       0.2014
     74  C         -4.1440   12.6970   -0.8210 C.2    49  GLY49       0.2638
     75  O         -2.9340   12.4930   -0.8650 O.2    49  GLY49      -0.2714
     76  N         -4.8340   12.7190    0.3110 N.am   50  ILE50      -0.1977
     77  CA        -4.1570   12.6800    1.5980 C.3    50  ILE50       0.1596
     78  C         -3.4980   11.3360    1.9170 C.2    50  ILE50       0.2287
     79  O         -2.4130   11.3130    2.5140 O.2    50  ILE50      -0.2864
     80  CB        -5.0890   13.1650    2.7530 C.3    50  ILE50       0.0276
     81  CG1       -4.3520   14.1780    3.6360 C.3    50  ILE50       0.0022
     82  CG2       -5.6030   12.0120    3.5890 C.3    50  ILE50       0.0022
     83  CD1       -5.2230   14.8120    4.6940 C.3    50  ILE50       0.0001
     84  N        -13.1160    7.2660   -5.2080 N.3    80  THR80      -0.1204
     85  CA       -13.1700    8.2800   -4.1580 C.3    80  THR80       0.1979
     86  C        -14.2110    7.8690   -3.1150 C.2    80  THR80       0.2460
     87  O        -15.2530    7.3330   -3.4600 O.2    80  THR80      -0.2732
     88  CB       -13.5180    9.6660   -4.7410 C.3    80  THR80       0.1783
     89  OG1      -13.6600   10.6230   -3.6790 O.3    80  THR80      -0.2211
     90  CG2      -14.8070    9.6000   -5.5600 C.3    80  THR80       0.0376
     91  N        -13.9230    8.0920   -1.8300 N.am   81  PRO81      -0.2717
     92  CA       -14.9120    7.7460   -0.7950 C.3    81  PRO81       0.1535
     93  C        -16.1720    8.6070   -0.8370 C.2    81  PRO81       0.2598
     94  O        -17.2080    8.1850   -0.3120 O.2    81  PRO81      -0.2715
     95  CB       -14.1570    7.9840    0.5230 C.3    81  PRO81       0.0310
     96  CG       -12.9410    8.7720    0.1520 C.3    81  PRO81       0.0237
     97  CD       -12.6060    8.4100   -1.2550 C.3    81  PRO81       0.0939
     98  N        -16.0830    9.8090   -1.4120 N.am   82  VAL82      -0.1978
     99  CA       -17.2390   10.7000   -1.4950 C.3    82  VAL82       0.1596
    100  C        -17.2150   11.4890   -2.8010 C.2    82  VAL82       0.2287
    101  O        -16.1400   11.8050   -3.3370 O.2    82  VAL82      -0.2864
    102  CB       -17.3710   11.6850   -0.2710 C.3    82  VAL82       0.0276
    103  CG1      -16.9670   11.0400    1.0570 C.3    82  VAL82       0.0022
    104  CG2      -16.5640   12.9240   -0.4790 C.3    82  VAL82       0.0022
    105  N        -17.1320   14.5370   -5.0280 N.3    84  ILE84      -0.1245
    106  CA       -16.4900   15.8220   -4.7590 C.3    84  ILE84       0.1561
    107  C        -16.7280   16.7770   -5.9060 C.2    84  ILE84       0.2260
    108  O        -16.3440   16.4610   -7.0220 O.2    84  ILE84      -0.2867
    109  CB       -14.9440   15.6810   -4.7260 C.3    84  ILE84       0.0252
    110  CG1      -14.4770   14.8920   -3.5200 C.3    84  ILE84       0.0019
    111  CG2      -14.2900   17.0670   -4.6930 C.3    84  ILE84       0.0019
    112  CD1      -15.0250   15.4490   -2.2410 C.3    84  ILE84       0.0001
@<TRIPOS>BOND
     1    51    50   ar
     2    50    52   ar
     3    50    49    1
     4    49    46    1
     5    66    64    1
     6    46    47    1
     7    46    45    1
     8    40    39    2
     9    60    61    1
    10    47    48    2
    11    39    45   am
    12    39    38    1
    13    64    61    1
    14    64    65    1
    15    61    62    1
    16    41    38    1
    17    41    42    1
    18    53    54    1
    19    54    55    1
    20    54    57    1
    21    65    67    1
    22    38    37    1
    23    55    56    2
    24    58    57    1
    25    44    42   ar
    26    59    57    1
    27    42    43   ar
    28    62    63    2
    29    62    68   am
    30   108   107    2
    31    37    34   am
    32    68    69    1
    33    35    34    2
    34    34    33    1
    35   107   106    1
    36    90    88    1
    37    69    70    1
    38    84    85    1
    39   105   106    1
    40    36    33    1
    41   106   109    1
    42    88    85    1
    43    88    89    1
    44   109   111    1
    45   109   110    1
    46    33    32    1
    47    71    70    2
    48    70    72   am
    49    85    86    1
    50    23    22    2
    51    32    30   am
    52   110   112    1
    53    87    86    2
    54   101   100    2
    55    72    73    1
    56    86    91   am
    57    15    14    2
    58   100    99    1
    59    22    21    1
    60    20    21    1
    61    30    31    2
    62    30    29    1
    63    24    21    1
    64    24    25    1
    65    12    13    1
    66    14    13    1
    67    73    74    1
    68    91    97    1
    69    91    92    1
    70    28    29    1
    71    25    27   am
    72    25    26    2
    73    99    98    1
    74    99   102    1
    75    13    16    1
    76    98    93   am
    77    97    96    1
    78    75    74    2
    79    93    92    1
    80    93    94    2
    81    74    76   am
    82    92    95    1
    83    16    17    1
    84   104   102    1
    85   102   103    1
    86    96    95    1
    87    76    77    1
    88    17    19    1
    89    17    18    1
    90    77    78    1
    91    77    80    1
    92    78    79    2
    93    80    82    1
    94    80    81    1
    95    81    83    1
    96     3     4    2
    97     3     2    1
    98     5     2    1
    99     5     6    1
   100    10     9    1
   101     7     6    1
   102     7     8    1
   103     2     1    1
   104     9     8    2
   105     9    11    1
