@<TRIPOS>MOLECULE
tmp/5cotA00.pdb
 152 140 0 0 0
SMALL
GASTEIGER

@<TRIPOS>ATOM
      1  N        -14.0550   38.4150   33.4800 N.3   146  THR146     -0.1203
      2  CA       -13.0050   38.8450   34.3960 C.3   146  THR146      0.1994
      3  C        -12.5490   37.8050   35.4420 C.2   146  THR146      0.2618
      4  O        -11.8250   38.1300   36.3790 O.2   146  THR146     -0.2717
      5  CB       -13.4260   40.1630   35.1000 C.3   146  THR146      0.1784
      6  OG1      -14.5670   39.9410   35.9230 O.3   146  THR146     -0.2211
      7  CG2      -13.7680   41.2340   34.0710 C.3   146  THR146      0.0376
      8  N        -12.9470   36.5620   35.3010 N.am  147  ASP147     -0.1959
      9  CA       -12.6030   35.5140   36.3130 C.3   147  ASP147      0.1840
     10  C        -11.1050   35.3300   36.3300 C.2   147  ASP147      0.2621
     11  O        -10.4100   35.5630   35.3430 O.2   147  ASP147     -0.2715
     12  CB       -13.3230   34.1910   35.8820 C.3   147  ASP147      0.1450
     13  CG       -14.8180   34.3880   35.8860 C.2   147  ASP147      0.3671
     14  OD1      -15.3760   34.5160   36.9480 O.co2 147  ASP147     -0.2456
     15  OD2      -15.4490   34.6130   34.8390 O.co2 147  ASP147     -0.2456
     16  N        -10.5540   34.9780   37.4970 N.am  148  GLN148     -0.1977
     17  CA        -9.1450   34.7830   37.6630 C.3   148  GLN148      0.1601
     18  C         -8.9530   33.4240   38.3460 C.2   148  GLN148      0.2287
     19  O         -9.6540   33.0900   39.3090 O.2   148  GLN148     -0.2864
     20  CB        -8.5600   35.8290   38.6020 C.3   148  GLN148      0.0394
     21  CG        -8.5680   37.2320   38.0300 C.3   148  GLN148      0.0908
     22  CD        -7.6180   37.4090   36.8940 C.2   148  GLN148      0.2608
     23  OE1       -6.8100   36.5250   36.5430 O.2   148  GLN148     -0.2717
     24  NE2       -7.8070   38.5030   36.1830 N.am  148  GLN148     -0.0878
     25  N         -7.0440   30.7760   40.7850 N.3   150  ARG150     -0.1245
     26  CA        -6.3240   30.8010   42.0550 C.3   150  ARG150      0.1563
     27  C         -4.9010   30.2960   42.0070 C.2   150  ARG150      0.2260
     28  O         -4.6080   29.2790   41.3630 O.2   150  ARG150     -0.2867
     29  CB        -7.0430   29.9080   43.0620 C.3   150  ARG150      0.0307
     30  CG        -8.3690   30.4350   43.5630 C.3   150  ARG150      0.0489
     31  CD        -8.9630   29.5160   44.5660 C.3   150  ARG150      0.2205
     32  NE       -10.0800   30.0870   45.2960 N.pl3 150  ARG150     -0.0865
     33  CZ       -11.3320   29.8720   44.9920 C.cat 150  ARG150      0.5346
     34  NH1      -11.6430   29.0310   44.0110 N.pl3 150  ARG150      0.1354
     35  NH2      -12.2930   30.4650   45.7170 N.pl3 150  ARG150      0.1354
     36  N         -2.1670   44.1440   42.3480 N.3   169  THR169     -0.1203
     37  CA        -3.2230   45.0350   42.7490 C.3   169  THR169      0.1994
     38  C         -4.0390   44.4580   43.8590 C.2   169  THR169      0.2618
     39  O         -4.1500   43.2060   44.0570 O.2   169  THR169     -0.2717
     40  CB        -4.1350   45.4100   41.6020 C.3   169  THR169      0.1784
     41  OG1       -4.5690   44.2040   40.9400 O.3   169  THR169     -0.2211
     42  CG2       -3.4760   46.3680   40.5740 C.3   169  THR169      0.0376
     43  N         -4.6060   45.3770   44.6550 N.am  170  VAL170     -0.1965
     44  CA        -5.5670   44.9490   45.6670 C.3   170  VAL170      0.1727
     45  C         -6.8660   44.4390   45.0500 C.2   170  VAL170      0.2616
     46  O         -7.4560   45.0690   44.1460 O.2   170  VAL170     -0.2715
     47  CB        -5.8480   46.0590   46.6840 C.3   170  VAL170      0.0290
     48  CG1       -6.9170   45.6400   47.6620 C.3   170  VAL170      0.0023
     49  CG2       -4.5580   46.4270   47.4060 C.3   170  VAL170      0.0023
     50  N         -7.2900   43.2650   45.5230 N.am  171  LYS171     -0.1963
     51  CA        -8.5680   42.6670   45.0720 C.3   171  LYS171      0.1728
     52  C         -9.6940   43.2710   45.9120 C.2   171  LYS171      0.2616
     53  O         -9.7200   43.1140   47.1430 O.2   171  LYS171     -0.2715
     54  CB        -8.5880   41.1650   45.2660 C.3   171  LYS171      0.0311
     55  CG        -9.7080   40.3950   44.5490 C.3   171  LYS171      0.0038
     56  CD        -9.5650   38.9280   44.8610 C.3   171  LYS171      0.0206
     57  CE       -10.2010   38.0450   43.8620 C.3   171  LYS171      0.1093
     58  NZ       -11.6490   38.2070   43.7790 N.3   171  LYS171     -0.1314
     59  N        -10.5860   44.0070   45.2580 N.am  172  LEU172     -0.1977
     60  CA       -11.7370   44.6440   45.9150 C.3   172  LEU172      0.1596
     61  C        -12.9410   43.7640   45.8730 C.2   172  LEU172      0.2287
     62  O        -13.1970   43.0940   44.8570 O.2   172  LEU172     -0.2864
     63  CB       -12.0360   46.0040   45.2840 C.3   172  LEU172      0.0297
     64  CG       -10.9270   46.9900   45.2760 C.3   172  LEU172      0.0022
     65  CD1      -11.3520   48.2080   44.4680 C.3   172  LEU172      0.0001
     66  CD2      -10.3770   47.2800   46.6730 C.3   172  LEU172      0.0001
     67  N        -18.1670   42.6960   39.3870 N.3   176  SER176     -0.1217
     68  CA       -17.4490   43.0240   38.1610 C.3   176  SER176      0.1889
     69  C        -18.3740   43.8030   37.2380 C.2   176  SER176      0.2288
     70  O        -19.5660   43.4380   37.0370 O.2   176  SER176     -0.2866
     71  CB       -17.1270   41.7100   37.4160 C.3   176  SER176      0.2089
     72  OG       -16.4140   42.0100   36.2540 O.3   176  SER176     -0.2183
     73  N        -21.5820   41.3660   35.6150 N.3   191  ARG191     -0.1245
     74  CA       -20.7410   40.2400   35.4410 C.3   191  ARG191      0.1563
     75  C        -21.0820   39.3280   34.2470 C.2   191  ARG191      0.2260
     76  O        -20.1920   38.8210   33.5600 O.2   191  ARG191     -0.2867
     77  CB       -20.7910   39.4240   36.7810 C.3   191  ARG191      0.0307
     78  CG       -19.8890   38.2510   36.7760 C.3   191  ARG191      0.0489
     79  CD       -20.1560   37.4500   38.0270 C.3   191  ARG191      0.2205
     80  NE       -19.2740   36.3230   38.1110 N.pl3 191  ARG191     -0.0865
     81  CZ       -19.3380   35.4440   39.1070 C.cat 191  ARG191      0.5346
     82  NH1      -20.2890   35.5690   40.0370 N.pl3 191  ARG191      0.1354
     83  NH2      -18.4870   34.4250   39.1450 N.pl3 191  ARG191      0.1354
     84  N        -14.1810   46.9360   39.2160 N.3   228  GLU228     -0.1245
     85  CA       -15.0210   46.5130   40.3140 C.3   228  GLU228      0.1567
     86  C        -15.8640   47.7210   40.6850 C.2   228  GLU228      0.2260
     87  O        -15.2950   48.7930   41.0220 O.2   228  GLU228     -0.2867
     88  CB       -14.2290   45.9920   41.5200 C.3   228  GLU228      0.0388
     89  CG       -14.9580   45.1010   42.4820 C.3   228  GLU228      0.1160
     90  CD       -15.1270   43.6770   41.9600 C.2   228  GLU228      0.3649
     91  OE1      -14.8100   43.4500   40.7480 O.co2 228  GLU228     -0.2457
     92  OE2      -15.6090   42.8150   42.7090 O.co2 228  GLU228     -0.2457
     93  N         -9.5640   47.7290   36.7300 N.3   249  PHE249     -0.1241
     94  CA        -8.4640   46.8010   36.8660 C.3   249  PHE249      0.1605
     95  C         -7.9430   46.2590   35.5420 C.2   249  PHE249      0.2264
     96  O         -6.8430   45.6920   35.5510 O.2   249  PHE249     -0.2867
     97  CB        -8.7670   45.6630   37.8870 C.3   249  PHE249      0.0534
     98  CG       -10.0480   44.8920   37.6050 C.ar  249  PHE249     -0.0203
     99  CD1      -10.1970   44.1170   36.4450 C.ar  249  PHE249     -0.0042
    100  CD2      -11.1320   44.9170   38.5280 C.ar  249  PHE249     -0.0042
    101  CE1      -11.3560   43.3880   36.2190 C.ar  249  PHE249     -0.0003
    102  CE2      -12.2900   44.2530   38.2710 C.ar  249  PHE249     -0.0003
    103  CZ       -12.4340   43.4890   37.1320 C.ar  249  PHE249     -0.0000
    104  N         -8.1840   50.3080   40.7750 N.3   282  VAL282     -0.1245
    105  CA        -7.8400   49.5290   41.9430 C.3   282  VAL282      0.1561
    106  C         -6.4410   49.8670   42.4790 C.2   282  VAL282      0.2260
    107  O         -5.5610   50.2960   41.6910 O.2   282  VAL282     -0.2867
    108  CB        -7.9410   47.9810   41.6680 C.3   282  VAL282      0.0252
    109  CG1       -9.3400   47.5720   41.3060 C.3   282  VAL282      0.0019
    110  CG2       -6.9380   47.5500   40.6250 C.3   282  VAL282      0.0019
    111  N         -9.4370   41.5770   50.7640 N.3   313  GLU313     -0.1245
    112  CA        -9.8320   40.2800   50.2660 C.3   313  GLU313      0.1567
    113  C         -8.6590   39.4810   49.7790 C.2   313  GLU313      0.2260
    114  O         -8.6530   38.2620   49.8990 O.2   313  GLU313     -0.2867
    115  CB       -10.8660   40.4480   49.1840 C.3   313  GLU313      0.0388
    116  CG       -11.4420   39.0850   48.7040 C.3   313  GLU313      0.1160
    117  CD       -12.5060   39.2140   47.6160 C.2   313  GLU313      0.3649
    118  OE1      -12.5780   40.2380   46.8860 O.co2 313  GLU313     -0.2457
    119  OE2      -13.2320   38.2100   47.4710 O.co2 313  GLU313     -0.2457
    120  N         -4.4940   40.5120   43.2040 N.3   316  VAL316     -0.1245
    121  CA        -4.4720   39.9700   41.8150 C.3   316  VAL316      0.1561
    122  C         -3.1250   40.3260   41.2250 C.2   316  VAL316      0.2260
    123  O         -2.6020   41.4320   41.3930 O.2   316  VAL316     -0.2867
    124  CB        -5.6730   40.4850   41.0010 C.3   316  VAL316      0.0252
    125  CG1       -5.5810   39.9490   39.6040 C.3   316  VAL316      0.0019
    126  CG2       -6.9620   40.1330   41.6680 C.3   316  VAL316      0.0019
    127  N         -0.9610   40.3700   37.6810 N.3   318  LYS318     -0.1245
    128  CA        -1.0790   40.4510   36.2650 C.3   318  LYS318      0.1561
    129  C          0.2800   40.6050   35.6380 C.2   318  LYS318      0.2260
    130  O          0.9920   41.6090   35.8450 O.2   318  LYS318     -0.2867
    131  CB        -2.0410   41.5580   35.7380 C.3   318  LYS318      0.0271
    132  CG        -3.4200   41.4730   36.3570 C.3   318  LYS318      0.0035
    133  CD        -4.2890   42.6540   35.9490 C.3   318  LYS318      0.0206
    134  CE        -5.6310   42.5430   36.6650 C.3   318  LYS318      0.1093
    135  NZ        -5.5030   43.1340   38.0180 N.3   318  LYS318     -0.1314
    136  N         -5.2450   35.1620   40.9950 N.3   327  LYS327     -0.1245
    137  CA        -5.6210   35.7990   42.2760 C.3   327  LYS327      0.1561
    138  C         -5.0280   34.9890   43.4670 C.2   327  LYS327      0.2260
    139  O         -4.8540   33.7950   43.4100 O.2   327  LYS327     -0.2867
    140  CB        -7.1310   35.8750   42.4140 C.3   327  LYS327      0.0271
    141  CG        -7.8720   34.5580   42.4950 C.3   327  LYS327      0.0035
    142  CD        -9.3880   34.7920   42.4010 C.3   327  LYS327      0.0206
    143  CE       -10.1920   33.5160   42.3590 C.3   327  LYS327      0.1093
    144  NZ       -11.6540   33.6630   42.1290 N.3   327  LYS327     -0.1314
    145  N         -6.2850   34.8960   47.2470 N.3   329  ILE329     -0.1245
    146  CA        -7.2740   35.3430   48.2380 C.3   329  ILE329      0.1561
    147  C         -6.6810   35.1390   49.6270 C.2   329  ILE329      0.2260
    148  O         -6.1290   34.0820   49.9050 O.2   329  ILE329     -0.2867
    149  CB        -8.5960   34.5880   48.0170 C.3   329  ILE329      0.0252
    150  CG1       -9.2150   34.9820   46.6730 C.3   329  ILE329      0.0019
    151  CG2       -9.5970   34.8320   49.1360 C.3   329  ILE329      0.0019
    152  CD1      -10.2430   34.0090   46.1460 C.3   329  ILE329      0.0001
@<TRIPOS>BOND
     1     1     2    1
     2    76    75    2
     3     7     5    1
     4    75    74    1
     5     2     5    1
     6     2     3    1
     7    15    13   ar
     8     5     6    1
     9     8     3   am
    10     8     9    1
    11    11    10    2
    12    74    73    1
    13    74    77    1
    14     3     4    2
    15    95    96    2
    16    95    94    1
    17   129   130    2
    18   129   128    1
    19   131   128    1
    20   131   132    1
    21    12    13    1
    22    12     9    1
    23    13    14   ar
    24   133   132    1
    25   133   134    1
    26    24    22   am
    27   101    99   ar
    28   101   103   ar
    29    72    71    1
    30   128   127    1
    31     9    10    1
    32    10    16   am
    33    99    98   ar
    34    23    22    2
    35   134   135    1
    36    93    94    1
    37    78    77    1
    38    78    79    1
    39    94    97    1
    40    22    21    1
    41    70    69    2
    42   103   102   ar
    43    69    68    1
    44    71    68    1
    45    16    17    1
    46    98    97    1
    47    98   100   ar
    48    17    18    1
    49    17    20    1
    50    79    80    1
    51    21    20    1
    52    80    81    2
    53    68    67    1
    54   102   100   ar
    55    18    19    2
    56    81    83    1
    57    81    82    1
    58    84    85    1
    59   125   124    1
    60    85    86    1
    61    85    88    1
    62    42    40    1
    63   110   108    1
    64    86    87    2
    65    91    90   ar
    66   104   105    1
    67    25    26    1
    68    41    40    1
    69   136   137    1
    70   124   126    1
    71   124   121    1
    72   122   123    2
    73   122   121    1
    74   109   108    1
    75    28    27    2
    76    88    89    1
    77    40    37    1
    78   108   105    1
    79   107   106    2
    80   121   120    1
    81   105   106    1
    82    90    89    1
    83    90    92   ar
    84    27    26    1
    85    26    29    1
    86   144   143    1
    87   137   140    1
    88   137   138    1
    89    36    37    1
    90   143   142    1
    91   142   141    1
    92   140   141    1
    93    37    38    1
    94    29    30    1
    95   139   138    2
    96    30    31    1
    97    58    57    1
    98    38    39    2
    99    38    43   am
   100    57    56    1
   101    34    33    1
   102    46    45    2
   103    65    64    1
   104    55    56    1
   105    55    54    1
   106    31    32    1
   107    43    44    1
   108    62    61    2
   109    33    32    2
   110    33    35    1
   111    45    50   am
   112    45    44    1
   113    51    54    1
   114    51    50    1
   115    51    52    1
   116    59    52   am
   117    59    60    1
   118    64    63    1
   119    64    66    1
   120    63    60    1
   121    44    47    1
   122    61    60    1
   123    52    53    2
   124   152   150    1
   125   150   149    1
   126    47    49    1
   127    47    48    1
   128   118   117   ar
   129   145   146    1
   130   119   117   ar
   131   117   116    1
   132   149   146    1
   133   149   151    1
   134   146   147    1
   135   116   115    1
   136   115   112    1
   137   147   148    2
   138   113   114    2
   139   113   112    1
   140   112   111    1
