@<TRIPOS>MOLECULE
tmp/5couA00.pdb
 179 164 0 0 0
SMALL
GASTEIGER

@<TRIPOS>ATOM
      1  N        -16.0520   26.2590   35.8810 N.3     4  ARG4       -0.1245
      2  CA       -14.8420   26.0530   36.7220 C.3     4  ARG4        0.1563
      3  C        -14.5990   24.5480   36.9490 C.2     4  ARG4        0.2260
      4  O        -15.5530   23.7810   37.1800 O.2     4  ARG4       -0.2867
      5  CB       -15.0500   26.7620   38.0770 C.3     4  ARG4        0.0307
      6  CG       -13.9090   26.6780   39.0790 C.3     4  ARG4        0.0489
      7  CD       -14.0590   27.7590   40.1170 C.3     4  ARG4        0.2205
      8  NE       -13.3520   27.3790   41.3070 N.pl3   4  ARG4       -0.0865
      9  CZ       -13.7440   27.7070   42.5350 C.cat   4  ARG4        0.5346
     10  NH1      -14.7840   28.5170   42.7200 N.pl3   4  ARG4        0.1354
     11  NH2      -13.0730   27.2160   43.5920 N.pl3   4  ARG4        0.1354
     12  N        -16.0560   25.8800   47.3500 N.3    53  ASP53      -0.1239
     13  CA       -17.1800   26.3070   46.4620 C.3    53  ASP53       0.1674
     14  C        -17.8950   25.1520   45.7930 C.2    53  ASP53       0.2266
     15  O        -19.0150   25.3190   45.2670 O.2    53  ASP53      -0.2867
     16  CB       -16.8710   27.4170   45.4500 C.3    53  ASP53       0.1410
     17  CG       -16.1230   28.5930   46.0430 C.2    53  ASP53       0.3668
     18  OD1      -16.0980   28.7960   47.2760 O.co2  53  ASP53      -0.2456
     19  OD2      -15.4590   29.3160   45.2270 O.co2  53  ASP53      -0.2456
     20  N        -21.5580   24.6140   41.3980 N.3   121  LYS121     -0.1245
     21  CA       -20.7490   25.6200   42.0550 C.3   121  LYS121      0.1561
     22  C        -21.6230   26.4010   43.0620 C.2   121  LYS121      0.2260
     23  O        -22.5810   27.0520   42.6410 O.2   121  LYS121     -0.2867
     24  CB       -20.1750   26.6080   41.0620 C.3   121  LYS121      0.0271
     25  CG       -18.9950   27.4100   41.6770 C.3   121  LYS121      0.0035
     26  CD       -18.2820   28.3010   40.6660 C.3   121  LYS121      0.0206
     27  CE       -19.0090   29.6210   40.7010 C.3   121  LYS121      0.1093
     28  NZ       -18.0700   30.6980   40.3930 N.3   121  LYS121     -0.1314
     29  N        -13.9630   38.4810   33.0580 N.3   145  THR145     -0.1203
     30  CA       -12.8820   38.6850   34.0310 C.3   145  THR145      0.1994
     31  C        -12.7400   37.3640   34.7990 C.2   145  THR145      0.2618
     32  O        -13.7230   36.7710   35.2770 O.2   145  THR145     -0.2717
     33  CB       -13.1010   39.8770   34.9860 C.3   145  THR145      0.1784
     34  OG1      -14.3250   39.6850   35.7600 O.3   145  THR145     -0.2211
     35  CG2      -13.2640   41.1670   34.1540 C.3   145  THR145      0.0376
     36  N        -11.5390   36.8670   34.8710 N.am  146  ASP146     -0.1959
     37  CA       -11.3530   35.5420   35.4840 C.3   146  ASP146      0.1840
     38  C         -9.8920   35.5130   35.8300 C.2   146  ASP146      0.2621
     39  O         -9.0730   36.0200   35.0490 O.2   146  ASP146     -0.2715
     40  CB       -11.7620   34.4250   34.4770 C.3   146  ASP146      0.1450
     41  CG       -11.2510   33.0510   34.8790 C.2   146  ASP146      0.3671
     42  OD1      -10.0270   32.7860   34.6890 O.co2 146  ASP146     -0.2456
     43  OD2      -12.0680   32.2430   35.3960 O.co2 146  ASP146     -0.2456
     44  N         -9.5580   34.9250   37.0000 N.am  147  GLN147     -0.1977
     45  CA        -8.1790   34.6480   37.4360 C.3   147  GLN147      0.1601
     46  C         -8.1270   33.2790   38.0640 C.2   147  GLN147      0.2287
     47  O         -8.9540   32.9270   38.9020 O.2   147  GLN147     -0.2864
     48  CB        -7.6780   35.6450   38.4850 C.3   147  GLN147      0.0394
     49  CG        -7.8640   37.0990   38.0150 C.3   147  GLN147      0.0908
     50  CD        -6.8330   37.4280   36.9790 C.2   147  GLN147      0.2608
     51  OE1       -5.9080   36.6220   36.7540 O.2   147  GLN147     -0.2717
     52  NE2       -6.9650   38.6070   36.3280 N.am  147  GLN147     -0.0878
     53  N         -6.5240   30.4880   40.5850 N.3   149  ARG149     -0.1245
     54  CA        -5.9220   30.4510   41.9040 C.3   149  ARG149      0.1563
     55  C         -4.4950   29.9120   41.8540 C.2   149  ARG149      0.2260
     56  O         -4.2260   28.9210   41.1500 O.2   149  ARG149     -0.2867
     57  CB        -6.8220   29.5240   42.7810 C.3   149  ARG149      0.0307
     58  CG        -8.1430   30.1970   43.1950 C.3   149  ARG149      0.0489
     59  CD        -9.0810   29.2550   43.9990 C.3   149  ARG149      0.2205
     60  NE       -10.2670   30.0060   44.4920 N.pl3 149  ARG149     -0.0865
     61  CZ       -11.3570   30.3030   43.7620 C.cat 149  ARG149      0.5346
     62  NH1      -11.4690   29.9190   42.4580 N.pl3 149  ARG149      0.1354
     63  NH2      -12.3560   30.9800   44.3420 N.pl3 149  ARG149      0.1354
     64  N         -1.6440   43.9470   42.4000 N.3   168  THR168     -0.1203
     65  CA        -2.7110   44.8280   42.8120 C.3   168  THR168      0.1994
     66  C         -3.5360   44.2130   43.9400 C.2   168  THR168      0.2618
     67  O         -3.6370   42.9740   44.0450 O.2   168  THR168     -0.2717
     68  CB        -3.6480   45.1820   41.6610 C.3   168  THR168      0.1784
     69  OG1       -4.1330   43.9750   41.0800 O.3   168  THR168     -0.2211
     70  CG2       -2.8750   46.0220   40.5500 C.3   168  THR168      0.0376
     71  N         -4.1870   45.0810   44.7210 N.am  169  VAL169     -0.1965
     72  CA        -5.1180   44.5940   45.7510 C.3   169  VAL169      0.1727
     73  C         -6.3900   44.0510   45.0650 C.2   169  VAL169      0.2616
     74  O         -6.9030   44.6990   44.1650 O.2   169  VAL169     -0.2715
     75  CB        -5.4740   45.7090   46.7560 C.3   169  VAL169      0.0290
     76  CG1       -6.5290   45.2220   47.7360 C.3   169  VAL169      0.0023
     77  CG2       -4.2220   46.1990   47.5200 C.3   169  VAL169      0.0023
     78  N         -6.8020   42.8320   45.4480 N.am  170  MET170     -0.1963
     79  CA        -8.0250   42.2330   45.0210 C.3   170  MET170      0.1736
     80  C         -9.1600   42.8510   45.8650 C.2   170  MET170      0.2616
     81  O         -9.2380   42.6450   47.0900 O.2   170  MET170     -0.2715
     82  CB        -7.9900   40.7430   45.3140 C.3   170  MET170      0.0427
     83  CG        -9.1950   39.9930   44.7870 C.3   170  MET170      0.0599
     84  SD        -8.9320   38.1740   44.9440 S.3   170  MET170     -0.1393
     85  CE       -10.4870   37.6810   44.1770 C.3   170  MET170      0.0692
     86  N         -9.9950   43.6510   45.2190 N.am  171  LEU171     -0.1977
     87  CA       -11.1880   44.2100   45.8720 C.3   171  LEU171      0.1596
     88  C        -12.3690   43.2420   45.8130 C.2   171  LEU171      0.2287
     89  O        -12.6340   42.6150   44.7940 O.2   171  LEU171     -0.2864
     90  CB       -11.6140   45.5300   45.1800 C.3   171  LEU171      0.0297
     91  CG       -10.5660   46.5990   45.1820 C.3   171  LEU171      0.0022
     92  CD1      -11.1470   47.8940   44.6160 C.3   171  LEU171      0.0001
     93  CD2      -10.0340   46.7560   46.6140 C.3   171  LEU171      0.0001
     94  N        -17.5450   42.4010   39.4540 N.3   175  SER175     -0.1217
     95  CA       -16.9020   42.7540   38.1780 C.3   175  SER175      0.1889
     96  C        -17.8190   43.5700   37.2910 C.2   175  SER175      0.2288
     97  O        -19.0070   43.2590   37.1260 O.2   175  SER175     -0.2866
     98  CB       -16.5410   41.4740   37.3740 C.3   175  SER175      0.2089
     99  OG       -15.9200   41.7880   36.1590 O.3   175  SER175     -0.2183
    100  N        -20.9590   40.9420   35.5650 N.3   190  ARG190     -0.1245
    101  CA       -19.9890   39.8510   35.4530 C.3   190  ARG190      0.1563
    102  C        -20.3880   38.9620   34.3010 C.2   190  ARG190      0.2260
    103  O        -19.5200   38.3600   33.6340 O.2   190  ARG190     -0.2867
    104  CB       -19.9330   39.0280   36.7790 C.3   190  ARG190      0.0307
    105  CG       -21.2950   38.7330   37.3650 C.3   190  ARG190      0.0489
    106  CD       -21.3460   38.3650   38.8720 C.3   190  ARG190      0.2205
    107  NE       -22.5080   37.4620   39.0300 N.pl3 190  ARG190     -0.0865
    108  CZ       -22.4360   36.1740   39.3970 C.cat 190  ARG190      0.5346
    109  NH1      -21.2650   35.6360   39.7440 N.pl3 190  ARG190      0.1354
    110  NH2      -23.5420   35.4300   39.4660 N.pl3 190  ARG190      0.1354
    111  N        -13.7590   46.6220   39.2930 N.3   227  GLU227     -0.1245
    112  CA       -14.6120   46.1380   40.3370 C.3   227  GLU227      0.1567
    113  C        -15.4630   47.3520   40.7360 C.2   227  GLU227      0.2260
    114  O        -14.9050   48.3930   41.0340 O.2   227  GLU227     -0.2867
    115  CB       -13.7800   45.6990   41.5510 C.3   227  GLU227      0.0388
    116  CG       -14.5370   44.7540   42.4960 C.3   227  GLU227      0.1160
    117  CD       -14.6940   43.3530   41.8740 C.2   227  GLU227      0.3649
    118  OE1      -14.2190   43.1470   40.6790 O.co2 227  GLU227     -0.2457
    119  OE2      -15.0790   42.4160   42.6440 O.co2 227  GLU227     -0.2457
    120  N         -9.0610   47.4300   36.7780 N.3   248  PHE248     -0.1241
    121  CA        -7.9360   46.5020   36.9800 C.3   248  PHE248      0.1605
    122  C         -7.3810   46.0040   35.6750 C.2   248  PHE248      0.2264
    123  O         -6.2730   45.4430   35.6710 O.2   248  PHE248     -0.2867
    124  CB        -8.2320   45.3020   38.0000 C.3   248  PHE248      0.0534
    125  CG        -9.5440   44.5660   37.7320 C.ar  248  PHE248     -0.0203
    126  CD1       -9.7020   43.7750   36.6040 C.ar  248  PHE248     -0.0042
    127  CD2      -10.6040   44.6630   38.6130 C.ar  248  PHE248     -0.0042
    128  CE1      -10.9180   43.1200   36.3660 C.ar  248  PHE248     -0.0003
    129  CE2      -11.8400   44.0930   38.3380 C.ar  248  PHE248     -0.0003
    130  CZ       -11.9880   43.2900   37.2300 C.ar  248  PHE248     -0.0000
    131  N         -7.4720   50.0060   40.8630 N.3   281  VAL281     -0.1245
    132  CA        -7.3430   49.1870   42.1000 C.3   281  VAL281      0.1561
    133  C         -5.9660   49.5430   42.6740 C.2   281  VAL281      0.2260
    134  O         -5.0530   49.8560   41.9190 O.2   281  VAL281     -0.2867
    135  CB        -7.3660   47.6490   41.8500 C.3   281  VAL281      0.0252
    136  CG1       -8.7560   47.1450   41.4640 C.3   281  VAL281      0.0019
    137  CG2       -6.3170   47.2890   40.8110 C.3   281  VAL281      0.0019
    138  N         -9.0240   41.0220   50.5820 N.3   312  GLU312     -0.1245
    139  CA        -9.4620   39.7270   50.0770 C.3   312  GLU312      0.1567
    140  C         -8.2250   39.0030   49.5500 C.2   312  GLU312      0.2260
    141  O         -8.0950   37.7720   49.7130 O.2   312  GLU312     -0.2867
    142  CB       -10.3990   39.8910   48.8690 C.3   312  GLU312      0.0388
    143  CG       -11.0390   38.5680   48.4980 C.3   312  GLU312      0.1160
    144  CD       -12.0580   38.6380   47.3870 C.2   312  GLU312      0.3649
    145  OE1      -12.7440   37.5900   47.1690 O.co2 312  GLU312     -0.2457
    146  OE2      -12.1580   39.6790   46.6770 O.co2 312  GLU312     -0.2457
    147  N         -3.8300   40.2270   43.1920 N.3   315  VAL315     -0.1245
    148  CA        -3.8710   39.7450   41.8370 C.3   315  VAL315      0.1561
    149  C         -2.5090   40.1120   41.2180 C.2   315  VAL315      0.2260
    150  O         -2.0290   41.2080   41.3910 O.2   315  VAL315     -0.2867
    151  CB        -5.1050   40.2680   41.0310 C.3   315  VAL315      0.0252
    152  CG1       -5.0500   39.7980   39.5820 C.3   315  VAL315      0.0019
    153  CG2       -6.4100   39.7520   41.6560 C.3   315  VAL315      0.0019
    154  N         -0.2740   40.1590   37.6260 N.3   317  LYS317     -0.1245
    155  CA        -0.4390   40.1780   36.1650 C.3   317  LYS317      0.1561
    156  C          0.9750   40.3820   35.5960 C.2   317  LYS317      0.2260
    157  O          1.7090   41.3180   36.0030 O.2   317  LYS317     -0.2867
    158  CB        -1.3880   41.3260   35.7170 C.3   317  LYS317      0.0271
    159  CG        -2.8420   41.1760   36.2690 C.3   317  LYS317      0.0035
    160  CD        -3.7900   42.3480   35.8720 C.3   317  LYS317      0.0206
    161  CE        -5.0760   42.3670   36.6770 C.3   317  LYS317      0.1093
    162  NZ        -4.7510   42.8590   38.0780 N.3   317  LYS317     -0.1314
    163  N         -4.7260   34.9170   40.7860 N.3   326  LYS326     -0.1245
    164  CA        -5.1210   35.5320   42.0660 C.3   326  LYS326      0.1561
    165  C         -4.5720   34.6560   43.2580 C.2   326  LYS326      0.2260
    166  O         -4.4570   33.4410   43.1400 O.2   326  LYS326     -0.2867
    167  CB        -6.6560   35.7130   42.1870 C.3   326  LYS326      0.0271
    168  CG        -7.4340   34.3770   42.0340 C.3   326  LYS326      0.0035
    169  CD        -8.9730   34.5510   42.0170 C.3   326  LYS326      0.0206
    170  CE        -9.6790   33.1910   41.9140 C.3   326  LYS326      0.1093
    171  NZ       -11.1110   33.1990   41.4490 N.3   326  LYS326     -0.1314
    172  N         -6.0570   34.6340   46.8040 N.3   328  ILE328     -0.1245
    173  CA        -7.0310   34.9330   47.8740 C.3   328  ILE328      0.1561
    174  C         -6.4370   34.6550   49.2680 C.2   328  ILE328      0.2260
    175  O         -5.9480   33.5490   49.5360 O.2   328  ILE328     -0.2867
    176  CB        -8.3690   34.1960   47.6270 C.3   328  ILE328      0.0252
    177  CG1       -8.9230   34.5680   46.2150 C.3   328  ILE328      0.0019
    178  CG2       -9.3330   34.3850   48.8130 C.3   328  ILE328      0.0019
    179  CD1      -10.2320   33.9560   45.7800 C.3   328  ILE328      0.0001
@<TRIPOS>BOND
     1    29    30    1
     2   103   102    2
     3    30    31    1
     4    30    33    1
     5    35    33    1
     6   102   101    1
     7    40    41    1
     8    40    37    1
     9    42    41   ar
    10    31    36   am
    11    31    32    2
    12    36    37    1
    13    41    43   ar
    14    33    34    1
    15    39    38    2
    16   101   100    1
    17   101   104    1
    18    37    38    1
    19   156   157    2
    20   156   155    1
    21   123   122    2
    22   122   121    1
    23   158   155    1
    24   158   159    1
    25    38    44   am
    26   160   159    1
    27   160   161    1
    28     1     2    1
    29    99    98    1
    30   155   154    1
    31    52    50   am
    32   128   126   ar
    33   128   130   ar
    34   126   125   ar
    35   161   162    1
    36     2     3    1
    37     2     5    1
    38    51    50    2
    39   120   121    1
    40   104   105    1
    41     3     4    2
    42    50    49    1
    43   121   124    1
    44    44    45    1
    45    97    96    2
    46   130   129   ar
    47    96    95    1
    48   105   106    1
    49    98    95    1
    50    45    46    1
    51    45    48    1
    52   125   124    1
    53   125   127   ar
    54    49    48    1
    55    46    47    2
    56     5     6    1
    57    95    94    1
    58   129   127   ar
    59   106   107    1
    60   107   108    2
    61     6     7    1
    62   111   112    1
    63   108   110    1
    64   108   109    1
    65   152   151    1
    66     7     8    1
    67   112   113    1
    68   112   115    1
    69    28    27    1
    70    70    68    1
    71    53    54    1
    72    26    27    1
    73    26    25    1
    74   118   117   ar
    75   113   114    2
    76   163   164    1
    77   137   135    1
    78   131   132    1
    79   151   153    1
    80   151   148    1
    81    24    25    1
    82    24    21    1
    83    69    68    1
    84    56    55    2
    85   149   150    2
    86   149   148    1
    87     8     9    2
    88    20    21    1
    89   171   170    1
    90   136   135    1
    91   115   116    1
    92    68    65    1
    93   148   147    1
    94   135   132    1
    95    55    54    1
    96   117   116    1
    97   117   119   ar
    98    54    57    1
    99   170   169    1
   100   134   133    2
   101   169   168    1
   102   168   167    1
   103    21    22    1
   104   164   167    1
   105   164   165    1
   106   132   133    1
   107    64    65    1
   108    62    61    1
   109     9    10    1
   110     9    11    1
   111    23    22    2
   112    57    58    1
   113    65    66    1
   114   166   165    2
   115    58    59    1
   116    61    63    1
   117    61    60    2
   118    66    67    2
   119    66    71   am
   120    59    60    1
   121    74    73    2
   122    85    84    1
   123    92    91    1
   124    71    72    1
   125    83    84    1
   126    83    82    1
   127    89    88    2
   128    79    82    1
   129    79    78    1
   130    79    80    1
   131    73    78   am
   132    73    72    1
   133    90    91    1
   134    90    87    1
   135    91    93    1
   136    86    80   am
   137    86    87    1
   138    19    17   ar
   139    15    14    2
   140    16    17    1
   141    16    13    1
   142    72    75    1
   143   179   177    1
   144    14    13    1
   145    88    87    1
   146    80    81    2
   147    17    18   ar
   148   177   176    1
   149    13    12    1
   150   146   144   ar
   151    75    77    1
   152    75    76    1
   153   172   173    1
   154   145   144   ar
   155   144   143    1
   156   176   173    1
   157   176   178    1
   158   173   174    1
   159   143   142    1
   160   142   139    1
   161   174   175    2
   162   140   141    2
   163   140   139    1
   164   139   138    1
