@<TRIPOS>MOLECULE
tmp/5coyA00.pdb
 73 72 0 0 0
SMALL
GASTEIGER

@<TRIPOS>ATOM
      1  N         -2.3770   24.9380   -6.4160 N.3     1  SER1       -0.1217
      2  CA        -1.8730   24.1650   -5.2910 C.3     1  SER1        0.1889
      3  C         -0.5900   24.7910   -4.7450 C.2     1  SER1        0.2288
      4  O          0.1400   25.4470   -5.4910 O.2     1  SER1       -0.2866
      5  CB        -1.6340   22.7220   -5.7430 C.3     1  SER1        0.2089
      6  OG        -0.9420   21.9540   -4.7890 O.3     1  SER1       -0.2183
      7  N          1.5240   22.6410   -3.4050 N.3     3  ASP3       -0.1225
      8  CA         2.4390   21.5240   -3.6380 C.3     3  ASP3        0.1805
      9  C          2.9990   21.6200   -5.0420 C.2     3  ASP3        0.2598
     10  O          2.4290   22.3070   -5.8980 O.2     3  ASP3       -0.2718
     11  CB         1.7420   20.1720   -3.4810 C.3     3  ASP3        0.1424
     12  CG         1.4490   19.8130   -2.0390 C.2     3  ASP3        0.3668
     13  OD1        1.8150   20.5660   -1.1140 O.co2   3  ASP3       -0.2456
     14  OD2        0.8770   18.7230   -1.8330 O.co2   3  ASP3       -0.2456
     15  N          4.0990   20.9230   -5.3000 N.am    4  THR4       -0.1939
     16  CA         4.5990   20.8560   -6.6710 C.3     4  THR4        0.2028
     17  C          3.5870   20.2110   -7.5970 C.2     4  THR4        0.2643
     18  O          2.7080   19.4370   -7.1750 O.2     4  THR4       -0.2714
     19  CB         5.9090   20.0590   -6.7690 C.3     4  THR4        0.1808
     20  OG1        5.6660   18.7160   -6.3460 O.3     4  THR4       -0.2208
     21  CG2        6.9740   20.6900   -5.8810 C.3     4  THR4        0.0379
     22  N          3.6990   20.5450   -8.8780 N.am    5  THR5       -0.1937
     23  CA         2.8720   19.8930   -9.8880 C.3     5  THR5        0.2013
     24  C          3.7750   19.6070  -11.0810 C.2     5  THR5        0.2484
     25  O          4.7090   20.3560  -11.3560 O.2     5  THR5       -0.2729
     26  CB         1.6590   20.7540  -10.2610 C.3     5  THR5        0.1807
     27  OG1        0.7130   19.9840  -11.0180 O.3     5  THR5       -0.2208
     28  CG2        2.0630   21.9360  -11.0700 C.3     5  THR5        0.0379
     29  N          3.5310   18.4880  -11.7680 N.am    6  PRO6       -0.2726
     30  CA         4.4550   18.0890  -12.8350 C.3     6  PRO6        0.1402
     31  C          4.2690   18.9140  -14.1020 C.2     6  PRO6        0.2269
     32  O          3.1410   19.1270  -14.5590 O.2     6  PRO6       -0.2865
     33  CB         4.0990   16.6170  -13.0780 C.3     6  PRO6        0.0296
     34  CG         2.6620   16.5050  -12.6600 C.3     6  PRO6        0.0237
     35  CD         2.5340   17.4370  -11.4590 C.3     6  PRO6        0.0939
     36  N         -3.3900   15.2380  -18.3950 N.3    26  TYR26      -0.1227
     37  CA        -2.8690   16.5030  -18.8990 C.3    26  TYR26       0.1736
     38  C         -2.1170   17.2100  -17.7990 C.2    26  TYR26       0.2596
     39  O         -2.5830   17.2480  -16.6740 O.2    26  TYR26      -0.2718
     40  CB        -3.9970   17.3970  -19.3870 C.3    26  TYR26       0.0548
     41  CG        -4.8790   16.7900  -20.4220 C.ar   26  TYR26      -0.0200
     42  CD1       -6.1980   16.4650  -20.1220 C.ar   26  TYR26      -0.0009
     43  CD2       -4.4220   16.5770  -21.7120 C.ar   26  TYR26      -0.0009
     44  CE1       -7.0270   15.9290  -21.0740 C.ar   26  TYR26       0.0417
     45  CE2       -5.2560   16.0300  -22.6810 C.ar   26  TYR26       0.0417
     46  CZ        -6.5520   15.7170  -22.3440 C.ar   26  TYR26       0.1957
     47  OH        -7.3850   15.1730  -23.2730 O.3    26  TYR26      -0.2866
     48  N         -0.9620   17.7890  -18.1140 N.am   27  THR27      -0.1939
     49  CA        -0.2880   18.6110  -17.1250 C.3    27  THR27       0.2028
     50  C         -1.0920   19.8720  -16.9010 C.2    27  THR27       0.2643
     51  O         -1.8920   20.2670  -17.7520 O.2    27  THR27      -0.2714
     52  CB         1.1540   18.9700  -17.5330 C.3    27  THR27       0.1808
     53  OG1        1.1590   19.4690  -18.8730 O.3    27  THR27      -0.2208
     54  CG2        2.0250   17.7270  -17.4820 C.3    27  THR27       0.0379
     55  N         -0.8750   20.4970  -15.7520 N.am   28  SER28      -0.1935
     56  CA        -1.5530   21.7380  -15.3920 C.3    28  SER28       0.2055
     57  C         -1.4720   22.8270  -16.4480 C.2    28  SER28       0.2644
     58  O         -0.4200   23.0380  -17.0480 O.2    28  SER28      -0.2714
     59  CB        -0.9670   22.2810  -14.0880 C.3    28  SER28       0.2130
     60  OG        -1.4590   23.5840  -13.7960 O.3    28  SER28      -0.2179
     61  N         -2.5700   23.5520  -16.6350 N.am   29  GLY29      -0.1939
     62  CA        -2.5580   24.7290  -17.4970 C.3    29  GLY29       0.2014
     63  C         -1.6290   25.8410  -17.0250 C.2    29  GLY29       0.2638
     64  O         -1.3640   26.7940  -17.7720 O.2    29  GLY29      -0.2714
     65  N         -1.1120   25.7340  -15.8000 N.am   30  LYS30      -0.1977
     66  CA        -0.1320   26.7130  -15.3020 C.3    30  LYS30       0.1596
     67  C          1.2530   26.5070  -15.9160 C.2    30  LYS30       0.2287
     68  O          2.0810   27.4230  -15.9240 O.2    30  LYS30      -0.2864
     69  CB        -0.0390   26.6610  -13.7720 C.3    30  LYS30       0.0298
     70  CG        -1.3590   27.0420  -13.0660 C.3    30  LYS30       0.0038
     71  CD        -1.2190   26.9230  -11.5540 C.3    30  LYS30       0.0206
     72  CE        -2.4250   27.5330  -10.8140 C.3    30  LYS30       0.1093
     73  NZ        -3.6320   26.6480  -10.8610 N.3    30  LYS30      -0.1314
@<TRIPOS>BOND
     1    47    46    1
     2    45    46   ar
     3    45    43   ar
     4    46    44   ar
     5    43    41   ar
     6    44    42   ar
     7    41    42   ar
     8    41    40    1
     9    40    37    1
    10    37    36    1
    11    37    38    1
    12    53    52    1
    13    48    38   am
    14    48    49    1
    15    38    39    2
    16    64    63    2
    17    51    50    2
    18    52    54    1
    19    52    49    1
    20    62    63    1
    21    62    61    1
    22    49    50    1
    23    58    57    2
    24    63    65   am
    25    50    55   am
    26    61    57   am
    27    57    56    1
    28    68    67    2
    29    67    66    1
    30    65    66    1
    31    55    56    1
    32    56    59    1
    33    66    69    1
    34    32    31    2
    35    31    30    1
    36    59    60    1
    37    69    70    1
    38    33    30    1
    39    33    34    1
    40    70    71    1
    41    30    29    1
    42    34    35    1
    43    29    35    1
    44    29    24   am
    45    71    72    1
    46    25    24    2
    47    24    23    1
    48    28    26    1
    49    27    26    1
    50    73    72    1
    51    26    23    1
    52    23    22    1
    53    22    17   am
    54    17    18    2
    55    17    16    1
    56    19    16    1
    57    19    20    1
    58    19    21    1
    59    16    15    1
    60     1     2    1
    61    10     9    2
    62     5     2    1
    63     5     6    1
    64     4     3    2
    65    15     9   am
    66     2     3    1
    67     9     8    1
    68     8    11    1
    69     8     7    1
    70    11    12    1
    71    12    14   ar
    72    12    13   ar
