@<TRIPOS>MOLECULE
tmp/5cp3A00.pdb
 101 99 0 0 0
SMALL
GASTEIGER

@<TRIPOS>ATOM
      1  N         14.4700   -3.5740   85.1240 N.3    37  TYR37      -0.1241
      2  CA        13.0740   -3.1550   84.7540 C.3    37  TYR37       0.1605
      3  C         12.0870   -3.7740   85.6720 C.2    37  TYR37       0.2264
      4  O         11.3760   -4.7510   85.3440 O.2    37  TYR37      -0.2867
      5  CB        12.7810   -3.4920   83.3090 C.3    37  TYR37       0.0534
      6  CG        13.6400   -2.7140   82.3650 C.ar   37  TYR37      -0.0201
      7  CD1       13.3810   -1.3320   82.1110 C.ar   37  TYR37      -0.0009
      8  CD2       14.7040   -3.3330   81.6940 C.ar   37  TYR37      -0.0009
      9  CE1       14.1810   -0.6030   81.2480 C.ar   37  TYR37       0.0417
     10  CE2       15.4870   -2.6290   80.8090 C.ar   37  TYR37       0.0417
     11  CZ        15.2470   -1.2640   80.6110 C.ar   37  TYR37       0.1957
     12  OH        16.0390   -0.5730   79.7370 O.3    37  TYR37      -0.2866
     13  N          8.9190   -2.6310   88.2490 N.3    39  ASN39      -0.1240
     14  CA         7.9680   -1.6170   88.6780 C.3    39  ASN39       0.1653
     15  C          7.0320   -2.1310   89.7580 C.2    39  ASN39       0.2266
     16  O          6.8180   -3.3630   89.8920 O.2    39  ASN39      -0.2867
     17  CB         7.0600   -1.1650   87.5310 C.3    39  ASN39       0.1155
     18  CG         7.8010   -0.5100   86.3780 C.2    39  ASN39       0.2627
     19  OD1        9.0210   -0.5250   86.2870 O.2    39  ASN39      -0.2716
     20  ND2        7.0350    0.1450   85.5310 N.am   39  ASN39      -0.0877
     21  N          2.9580   -1.1810   91.0620 N.3    41  LEU41      -0.1245
     22  CA         1.7100   -0.5700   90.6520 C.3    41  LEU41       0.1561
     23  C          0.6790   -0.7660   91.7540 C.2    41  LEU41       0.2260
     24  O          0.7510   -1.7540   92.4670 O.2    41  LEU41      -0.2867
     25  CB         1.2100   -1.2510   89.4000 C.3    41  LEU41       0.0270
     26  CG         2.0780   -1.1110   88.1380 C.3    41  LEU41       0.0019
     27  CD1        3.0200   -2.2850   87.9790 C.3    41  LEU41       0.0001
     28  CD2        1.1720   -1.0620   86.9520 C.3    41  LEU41       0.0001
     29  N         -4.8840   -0.2000   86.9940 N.3    49  PRO49      -0.2102
     30  CA        -3.5730   -0.0660   87.5910 C.3    49  PRO49       0.1504
     31  C         -2.9490    1.3090   87.3350 C.2    49  PRO49       0.2576
     32  O         -3.0870    1.8440   86.2470 O.2    49  PRO49      -0.2718
     33  CB        -2.7580   -1.1330   86.8840 C.3    49  PRO49       0.0282
     34  CG        -3.7590   -2.1000   86.3620 C.3    49  PRO49       0.0208
     35  CD        -4.8930   -1.2390   85.9580 C.3    49  PRO49       0.0893
     36  N         -2.2650    1.8040   88.3500 N.am   50  LYS50      -0.1966
     37  CA        -1.4830    3.0260   88.3400 C.3    50  LYS50       0.1728
     38  C         -0.0220    2.7020   88.6890 C.2    50  LYS50       0.2616
     39  O          0.2730    1.8890   89.5920 O.2    50  LYS50      -0.2715
     40  CB        -2.0410    3.9910   89.3930 C.3    50  LYS50       0.0311
     41  CG        -3.0670    4.9630   88.8390 C.3    50  LYS50       0.0038
     42  CD        -3.0820    6.2810   89.6290 C.3    50  LYS50       0.0206
     43  CE        -1.7740    7.0670   89.4510 C.3    50  LYS50       0.1093
     44  NZ        -1.8280    8.5000   89.8580 N.3    50  LYS50      -0.1314
     45  N          0.8990    3.3740   88.0120 N.am   51  ARG51      -0.1977
     46  CA         2.3230    3.1470   88.2730 C.3    51  ARG51       0.1597
     47  C          2.7890    3.9280   89.4950 C.2    51  ARG51       0.2287
     48  O          2.4490    5.0770   89.6180 O.2    51  ARG51      -0.2864
     49  CB         3.1490    3.5270   87.0500 C.3    51  ARG51       0.0334
     50  CG         4.6130    3.1980   87.2010 C.3    51  ARG51       0.0492
     51  CD         5.3480    3.4580   85.8820 C.3    51  ARG51       0.2205
     52  NE         5.6080    4.8770   85.7760 N.pl3  51  ARG51      -0.0865
     53  CZ         6.4630    5.4430   84.9420 C.cat  51  ARG51       0.5346
     54  NH1        7.1790    4.6790   84.0970 N.pl3  51  ARG51       0.1354
     55  NH2        6.5920    6.7910   84.9610 N.pl3  51  ARG51       0.1354
     56  N          9.2050    2.8950   89.1530 N.3    54  TYR54      -0.1241
     57  CA         9.8020    2.2350   87.9930 C.3    54  TYR54       0.1605
     58  C         11.3320    2.1320   88.1760 C.2    54  TYR54       0.2264
     59  O         11.9080    2.8220   89.0000 O.2    54  TYR54      -0.2867
     60  CB         9.4300    2.9650   86.7050 C.3    54  TYR54       0.0534
     61  CG         9.9020    4.4040   86.6290 C.ar   54  TYR54      -0.0201
     62  CD1        9.2240    5.4210   87.2770 C.ar   54  TYR54      -0.0009
     63  CD2       11.0140    4.7320   85.8690 C.ar   54  TYR54      -0.0009
     64  CE1        9.6700    6.7310   87.2210 C.ar   54  TYR54       0.0417
     65  CE2       11.4780    6.0330   85.7930 C.ar   54  TYR54       0.0417
     66  CZ        10.7920    7.0210   86.4610 C.ar   54  TYR54       0.1957
     67  OH        11.2580    8.2720   86.3830 O.3    54  TYR54      -0.2866
     68  N          6.1280   -5.8680   88.7790 N.3    94  TRP94      -0.1241
     69  CA         6.1730   -6.1610   87.3670 C.3    94  TRP94       0.1605
     70  C          7.6010   -6.1310   86.9110 C.2    94  TRP94       0.2264
     71  O          8.3700   -5.3100   87.3680 O.2    94  TRP94      -0.2867
     72  CB         5.4150   -5.0810   86.6210 C.3    94  TRP94       0.0550
     73  CG         5.6120   -5.0190   85.1120 C.ar   94  TRP94       0.0003
     74  CD1        4.8890   -5.6830   84.1840 C.ar   94  TRP94       0.0946
     75  CD2        6.5890   -4.2440   84.3850 C.ar   94  TRP94       0.0152
     76  NE1        5.3180   -5.3510   82.9280 N.ar   94  TRP94      -0.2442
     77  CE2        6.3540   -4.4650   83.0150 C.ar   94  TRP94       0.0810
     78  CE3        7.6190   -3.3650   84.7610 C.ar   94  TRP94       0.0012
     79  CZ2        7.1350   -3.8640   81.9870 C.ar   94  TRP94       0.0191
     80  CZ3        8.3990   -2.7560   83.7480 C.ar   94  TRP94       0.0001
     81  CH2        8.1530   -3.0200   82.3710 C.ar   94  TRP94       0.0015
     82  N          7.2360  -10.0690   79.6210 N.3   101  GLN101     -0.1245
     83  CA         7.0720   -9.3350   80.8660 C.3   101  GLN101      0.1566
     84  C          6.0560  -10.0640   81.7450 C.2   101  GLN101      0.2260
     85  O          5.0400  -10.5980   81.2460 O.2   101  GLN101     -0.2867
     86  CB         6.6170   -7.9000   80.5720 C.3   101  GLN101      0.0367
     87  CG         5.2440   -7.7420   80.0440 C.3   101  GLN101      0.0905
     88  CD         5.0500   -6.3830   79.3840 C.2   101  GLN101      0.2608
     89  OE1        4.3880   -5.4530   79.9300 O.2   101  GLN101     -0.2717
     90  NE2        5.6550   -6.2350   78.2360 N.am  101  GLN101     -0.0878
     91  N          3.9350  -10.0950   85.8040 N.3   103  PHE103     -0.1241
     92  CA         3.4240   -9.3730   86.9360 C.3   103  PHE103      0.1605
     93  C          3.4020  -10.3270   88.0700 C.2   103  PHE103      0.2264
     94  O          3.1170  -11.4790   87.8350 O.2   103  PHE103     -0.2867
     95  CB         1.9770   -9.0110   86.7110 C.3   103  PHE103      0.0534
     96  CG         1.7560   -7.9610   85.6430 C.ar  103  PHE103     -0.0203
     97  CD1        1.5390   -8.3200   84.3280 C.ar  103  PHE103     -0.0042
     98  CD2        1.6940   -6.6170   86.0000 C.ar  103  PHE103     -0.0042
     99  CE1        1.2990   -7.3640   83.3690 C.ar  103  PHE103     -0.0003
    100  CE2        1.4640   -5.6450   85.0620 C.ar  103  PHE103     -0.0003
    101  CZ         1.2660   -6.0200   83.7270 C.ar  103  PHE103     -0.0000
@<TRIPOS>BOND
     1    90    88   am
     2    88    89    2
     3    88    87    1
     4    82    83    1
     5    12    11    1
     6    87    86    1
     7    86    83    1
     8    11    10   ar
     9    11     9   ar
    10    10     8   ar
    11    83    84    1
    12    85    84    2
    13     9     7   ar
    14     8     6   ar
    15    79    81   ar
    16    79    77   ar
    17     7     6   ar
    18     6     5    1
    19    81    80   ar
    20    76    77   ar
    21    76    74   ar
    22    77    75   ar
    23     5     2    1
    24    99   101   ar
    25    99    97   ar
    26   101   100   ar
    27    80    78   ar
    28    54    53    1
    29    74    73   ar
    30    97    96   ar
    31    75    78   ar
    32    75    73   ar
    33     2     1    1
    34     2     3    1
    35    53    55    1
    36    53    52    2
    37   100    98   ar
    38    73    72    1
    39     4     3    2
    40    20    18   am
    41    96    98   ar
    42    96    95    1
    43    52    51    1
    44    65    63   ar
    45    65    66   ar
    46    91    92    1
    47    63    61   ar
    48    51    50    1
    49    35    34    1
    50    35    29    1
    51    32    31    2
    52    19    18    2
    53    34    33    1
    54    18    17    1
    55    67    66    1
    56    66    64   ar
    57    72    69    1
    58    61    60    1
    59    61    62   ar
    60    60    57    1
    61    95    92    1
    62    33    30    1
    63    70    69    1
    64    70    71    2
    65    92    93    1
    66    28    26    1
    67    29    30    1
    68    49    50    1
    69    49    46    1
    70    64    62   ar
    71    31    30    1
    72    31    36   am
    73    69    68    1
    74    17    14    1
    75    94    93    2
    76    27    26    1
    77    57    58    1
    78    57    56    1
    79    45    46    1
    80    45    38   am
    81    26    25    1
    82    58    59    2
    83    13    14    1
    84    46    47    1
    85    37    36    1
    86    37    38    1
    87    37    40    1
    88    14    15    1
    89    38    39    2
    90    41    40    1
    91    41    42    1
    92    25    22    1
    93    43    42    1
    94    43    44    1
    95    47    48    2
    96    15    16    2
    97    22    21    1
    98    22    23    1
    99    23    24    2
