@<TRIPOS>MOLECULE
tmp/5cpdA00.pdb
 148 146 0 0 0
SMALL
GASTEIGER

@<TRIPOS>ATOM
      1  N         -4.6840  -16.0620    0.1790 N.3    43  HIS43      -0.1226
      2  CA        -4.0760  -16.4870   -1.0520 C.3    43  HIS43       0.1752
      3  C         -2.5550  -16.3500   -0.9240 C.2    43  HIS43       0.2597
      4  O         -1.8910  -15.9200   -1.8640 O.2    43  HIS43      -0.2718
      5  CB        -4.6560  -15.7080   -2.2520 C.3    43  HIS43       0.0759
      6  CG        -6.1600  -15.8280   -2.3940 C.ar   43  HIS43       0.0818
      7  ND1       -6.7880  -15.9980   -3.6150 N.ar   43  HIS43      -0.2268
      8  CD2       -7.1560  -15.7930   -1.4690 C.ar   43  HIS43       0.1154
      9  CE1       -8.0950  -16.0890   -3.4340 C.ar   43  HIS43       0.1986
     10  NE2       -8.3430  -15.9720   -2.1440 N.ar   43  HIS43      -0.2212
     11  N         -1.9950  -16.6790    0.2630 N.am   44  GLY44      -0.1942
     12  CA        -0.5430  -16.7620    0.3790 C.3    44  GLY44       0.2014
     13  C          0.0460  -18.0330   -0.2200 C.2    44  GLY44       0.2639
     14  O         -0.6660  -19.0390   -0.3550 O.2    44  GLY44      -0.2714
     15  N          1.3520  -18.0250   -0.5010 N.am   45  VAL45      -0.1963
     16  CA         2.0500  -19.2880   -0.7720 C.3    45  VAL45       0.1727
     17  C          2.9940  -19.6410    0.3810 C.2    45  VAL45       0.2617
     18  O          3.6130  -20.6730    0.3960 O.2    45  VAL45      -0.2715
     19  CB         2.8330  -19.2480   -2.1210 C.3    45  VAL45       0.0290
     20  CG1        1.8400  -19.2090   -3.3120 C.3    45  VAL45       0.0023
     21  CG2        3.7970  -18.0680   -2.1070 C.3    45  VAL45       0.0023
     22  N          3.1080  -18.7530    1.3480 N.am   46  GLY46      -0.1940
     23  CA         3.8340  -19.0310    2.5740 C.3    46  GLY46       0.2014
     24  C          3.2380  -18.1040    3.6160 C.2    46  GLY46       0.2638
     25  O          2.5480  -17.1250    3.2630 O.2    46  GLY46      -0.2714
     26  N          3.5170  -18.3680    4.8890 N.am   47  LEU47      -0.1977
     27  CA         3.1200  -17.4400    5.9600 C.3    47  LEU47       0.1596
     28  C          3.9500  -17.7520    7.1680 C.2    47  LEU47       0.2287
     29  O          4.1390  -18.9390    7.5270 O.2    47  LEU47      -0.2864
     30  CB         1.6320  -17.6040    6.2930 C.3    47  LEU47       0.0297
     31  CG         1.0740  -16.7860    7.4870 C.3    47  LEU47       0.0022
     32  CD1        0.7800  -15.3620    7.0320 C.3    47  LEU47       0.0001
     33  CD2       -0.2130  -17.4320    8.0350 C.3    47  LEU47       0.0001
     34  N          3.8120  -12.9740   11.2830 N.3    51  GLN51      -0.1245
     35  CA         2.8190  -12.1850   10.5600 C.3    51  GLN51       0.1566
     36  C          1.4900  -12.2490   11.2340 C.2    51  GLN51       0.2260
     37  O          0.6270  -11.4050   10.9660 O.2    51  GLN51      -0.2867
     38  CB         2.6670  -12.6640    9.0930 C.3    51  GLN51       0.0367
     39  CG         3.9510  -12.4970    8.3230 C.3    51  GLN51       0.0905
     40  CD         3.7660  -12.8360    6.8690 C.2    51  GLN51       0.2608
     41  OE1        4.0000  -13.9770    6.4540 O.2    51  GLN51      -0.2717
     42  NE2        3.2940  -11.8600    6.0900 N.am   51  GLN51      -0.0878
     43  N         -1.2920  -16.2860   -8.7060 N.3    68  ARG68      -0.1231
     44  CA        -0.1670  -15.3430   -8.6160 C.3    68  ARG68       0.1694
     45  C          1.0980  -15.7400   -9.3750 C.2    68  ARG68       0.2592
     46  O          1.6450  -14.9200  -10.1010 O.2    68  ARG68      -0.2718
     47  CB         0.1760  -15.0710   -7.1510 C.3    68  ARG68       0.0321
     48  CG        -0.7880  -14.0980   -6.5160 C.3    68  ARG68       0.0489
     49  CD        -0.8730  -14.2190   -5.0010 C.3    68  ARG68       0.2205
     50  NE        -1.7630  -13.1660   -4.5000 N.pl3  68  ARG68      -0.0865
     51  CZ        -1.9250  -12.8250   -3.2230 C.cat  68  ARG68       0.5346
     52  NH1       -1.2660  -13.4610   -2.2730 N.pl3  68  ARG68       0.1354
     53  NH2       -2.7580  -11.8470   -2.8910 N.pl3  68  ARG68       0.1354
     54  N          1.5680  -16.9770   -9.2170 N.am   69  TYR69      -0.1976
     55  CA         2.7940  -17.4080   -9.9080 C.3    69  TYR69       0.1639
     56  C          2.5010  -18.6570  -10.7420 C.2    69  TYR69       0.2290
     57  O          2.7960  -19.8050  -10.3240 O.2    69  TYR69      -0.2864
     58  CB         3.9540  -17.6220   -8.9420 C.3    69  TYR69       0.0560
     59  CG         4.2070  -16.4500   -8.0020 C.ar   69  TYR69      -0.0198
     60  CD1        5.1000  -15.4160   -8.3560 C.ar   69  TYR69      -0.0009
     61  CD2        3.5440  -16.3570   -6.7490 C.ar   69  TYR69      -0.0009
     62  CE1        5.3330  -14.3390   -7.4910 C.ar   69  TYR69       0.0417
     63  CE2        3.7760  -15.2950   -5.9060 C.ar   69  TYR69       0.0417
     64  CZ         4.6800  -14.3010   -6.2690 C.ar   69  TYR69       0.1957
     65  OH         4.9250  -13.2460   -5.4250 O.3    69  TYR69      -0.2866
     66  N         10.0180  -11.9990   -8.7660 N.3    96  TRP96      -0.1227
     67  CA         8.9570  -11.2560   -8.0770 C.3    96  TRP96       0.1737
     68  C          8.5610  -11.8000   -6.6840 C.2    96  TRP96       0.2595
     69  O          8.3300  -12.9780   -6.5040 O.2    96  TRP96      -0.2718
     70  CB         7.7160  -11.1140   -8.9640 C.3    96  TRP96       0.0564
     71  CG         8.0290  -10.2950  -10.1660 C.ar   96  TRP96       0.0003
     72  CD1        8.3160  -10.7620  -11.4470 C.ar   96  TRP96       0.0946
     73  CD2        8.1280   -8.8590  -10.2340 C.ar   96  TRP96       0.0152
     74  NE1        8.5510   -9.7060  -12.2780 N.ar   96  TRP96      -0.2442
     75  CE2        8.4380   -8.5290  -11.5830 C.ar   96  TRP96       0.0810
     76  CE3        7.9500   -7.8360   -9.3050 C.ar   96  TRP96       0.0012
     77  CZ2        8.6150   -7.1970  -12.0250 C.ar   96  TRP96       0.0191
     78  CZ3        8.1410   -6.5010   -9.7220 C.ar   96  TRP96       0.0001
     79  CH2        8.4710   -6.1910  -11.0820 C.ar   96  TRP96       0.0015
     80  N          8.4870  -10.9260   -5.7010 N.am   97  GLU97      -0.1965
     81  CA         7.8610  -11.3080   -4.4110 C.3    97  GLU97       0.1733
     82  C          6.8690  -10.2290   -4.0330 C.2    97  GLU97       0.2616
     83  O          7.0400   -9.0840   -4.4340 O.2    97  GLU97      -0.2715
     84  CB         8.9240  -11.3950   -3.3210 C.3    97  GLU97       0.0429
     85  CG        10.0020  -12.4230   -3.6310 C.3    97  GLU97       0.1163
     86  CD        10.9550  -12.6790   -2.4580 C.2    97  GLU97       0.3649
     87  OE1       10.6890  -12.1940   -1.2990 O.co2  97  GLU97      -0.2457
     88  OE2       12.0060  -13.3170   -2.7280 O.co2  97  GLU97      -0.2457
     89  N          5.8320  -10.6090   -3.2800 N.am   98  GLY98      -0.1955
     90  CA         4.9570   -9.6790   -2.5750 C.3    98  GLY98       0.1869
     91  C          4.7600  -10.2330   -1.1640 C.2    98  GLY98       0.2309
     92  O          5.1680  -11.3530   -0.8950 O.2    98  GLY98      -0.2863
     93  N          2.0550  -10.4110    2.3620 N.3    99  LEU99      -0.1245
     94  CA         0.6910  -10.1440    2.9100 C.3    99  LEU99       0.1561
     95  C          0.7320   -9.0430    3.9920 C.2    99  LEU99       0.2260
     96  O         -0.2700   -8.3410    4.2060 O.2    99  LEU99      -0.2867
     97  CB         0.0280  -11.4190    3.4080 C.3    99  LEU99       0.0270
     98  CG         0.0610  -12.5610    2.3700 C.3    99  LEU99       0.0019
     99  CD1       -0.2390  -13.9310    2.9990 C.3    99  LEU99       0.0001
    100  CD2       -0.8500  -12.2430    1.1870 C.3    99  LEU99       0.0001
    101  N         11.8460  -21.3930   -7.2040 N.3   133  PHE133     -0.1241
    102  CA        10.7420  -20.8350   -6.4930 C.3   133  PHE133      0.1605
    103  C         10.5290  -21.3880   -5.0690 C.2   133  PHE133      0.2264
    104  O         10.2200  -20.5980   -4.1940 O.2   133  PHE133     -0.2867
    105  CB         9.4600  -20.9610   -7.2800 C.3   133  PHE133      0.0534
    106  CG         8.3800  -20.0660   -6.7670 C.ar  133  PHE133     -0.0203
    107  CD1        8.4750  -18.6920   -6.9050 C.ar  133  PHE133     -0.0042
    108  CD2        7.2660  -20.5970   -6.1070 C.ar  133  PHE133     -0.0042
    109  CE1        7.4650  -17.8480   -6.4170 C.ar  133  PHE133     -0.0003
    110  CE2        6.2460  -19.7550   -5.6350 C.ar  133  PHE133     -0.0003
    111  CZ         6.3450  -18.3840   -5.7880 C.ar  133  PHE133     -0.0000
    112  N         12.9760  -19.8320   -2.9050 N.3   136  ARG136     -0.1231
    113  CA        12.7070  -18.4080   -2.6870 C.3   136  ARG136      0.1694
    114  C         11.6920  -18.2740   -1.5640 C.2   136  ARG136      0.2591
    115  O         11.8640  -17.4740   -0.5960 O.2   136  ARG136     -0.2718
    116  CB        12.1440  -17.7680   -3.9840 C.3   136  ARG136      0.0321
    117  CG        11.4190  -16.4160   -3.8150 C.3   136  ARG136      0.0489
    118  CD        11.0560  -15.8810   -5.1950 C.3   136  ARG136      0.2205
    119  NE        12.2030  -15.9580   -6.1170 N.pl3 136  ARG136     -0.0865
    120  CZ        13.1870  -15.0470   -6.1980 C.cat 136  ARG136      0.5346
    121  NH1       13.1180  -13.9200   -5.4540 N.pl3 136  ARG136      0.1354
    122  NH2       14.2090  -15.2460   -7.0760 N.pl3 136  ARG136      0.1354
    123  N         10.5980  -19.0090   -1.7070 N.am  137  VAL137     -0.1980
    124  CA         9.5930  -18.9780   -0.6520 C.3   137  VAL137      0.1595
    125  C         10.1640  -19.2410    0.7370 C.2   137  VAL137      0.2287
    126  O          9.7990  -18.5230    1.7080 O.2   137  VAL137     -0.2864
    127  CB         8.4040  -19.9440   -0.9040 C.3   137  VAL137      0.0276
    128  CG1        7.3550  -19.7750    0.2260 C.3   137  VAL137      0.0022
    129  CG2        7.7550  -19.6500   -2.2710 C.3   137  VAL137      0.0022
    130  N         12.1380  -16.3500    2.0360 N.3   140  HIS140     -0.1226
    131  CA        11.2960  -15.1850    2.3260 C.3   140  HIS140      0.1752
    132  C         10.6450  -15.3620    3.7160 C.2   140  HIS140      0.2595
    133  O         10.6300  -14.4060    4.5120 O.2   140  HIS140     -0.2718
    134  CB        10.2350  -15.0290    1.2020 C.3   140  HIS140      0.0759
    135  CG         9.1430  -14.0460    1.5000 C.ar  140  HIS140      0.0818
    136  ND1        8.9400  -12.9020    0.7540 N.ar  140  HIS140     -0.2268
    137  CD2        8.1670  -14.0480    2.4520 C.ar  140  HIS140      0.1154
    138  CE1        7.9110  -12.2260    1.2400 C.ar  140  HIS140      0.1986
    139  NE2        7.4260  -12.8970    2.2700 N.ar  140  HIS140     -0.2212
    140  N         10.1040  -16.5670    3.9830 N.am  141  GLU141     -0.1979
    141  CA         9.5310  -16.8740    5.2920 C.3   141  GLU141      0.1602
    142  C         10.5820  -16.8600    6.3480 C.2   141  GLU141      0.2287
    143  O         10.3130  -16.3420    7.4500 O.2   141  GLU141     -0.2864
    144  CB         8.8250  -18.2250    5.3460 C.3   141  GLU141      0.0415
    145  CG         7.6990  -18.3700    4.3270 C.3   141  GLU141      0.1163
    146  CD         6.8530  -17.1230    4.1650 C.2   141  GLU141      0.3649
    147  OE1        6.6020  -16.3500    5.1230 O.co2 141  GLU141     -0.2457
    148  OE2        6.4300  -16.8960    3.0400 O.co2 141  GLU141     -0.2457
@<TRIPOS>BOND
     1    74    75   ar
     2    74    72   ar
     3    77    75   ar
     4    77    79   ar
     5    75    73   ar
     6    72    71   ar
     7    79    78   ar
     8    56    57    2
     9    56    55    1
    10    73    71   ar
    11    73    76   ar
    12    71    70    1
    13    46    45    2
    14    55    54    1
    15    55    58    1
    16    78    76   ar
    17    45    54   am
    18    45    44    1
    19    70    67    1
    20    58    59    1
    21    66    67    1
    22    43    44    1
    23    44    47    1
    24    60    59   ar
    25    60    62   ar
    26    67    68    1
    27    59    61   ar
    28    62    64   ar
    29   105   106    1
    30   105   102    1
    31   101   102    1
    32    47    48    1
    33   122   120    1
    34   107   106   ar
    35   107   109   ar
    36   106   108   ar
    37    61    63   ar
    38    68    69    2
    39    68    80   am
    40    48    49    1
    41   102   103    1
    42   109   111   ar
    43    64    63   ar
    44    64    65    1
    45   120   119    2
    46   120   121    1
    47   119   118    1
    48   108   110   ar
    49   111   110   ar
    50    80    81    1
    51   118   117    1
    52   103   104    2
    53    49    50    1
    54    50    51    2
    55    83    82    2
    56    81    82    1
    57    81    84    1
    58    82    89   am
    59   116   117    1
    60   116   113    1
    61    85    84    1
    62    85    86    1
    63     7     9   ar
    64     7     6   ar
    65     9    10   ar
    66    20    19    1
    67    89    90    1
    68    51    53    1
    69    51    52    1
    70   112   113    1
    71    88    86   ar
    72   113   114    1
    73    90    91    1
    74    86    87   ar
    75     6     5    1
    76     6     8   ar
    77   129   127    1
    78     5     2    1
    79    10     8   ar
    80    19    21    1
    81    19    16    1
    82     4     3    2
    83   123   114   am
    84   123   124    1
    85   114   115    2
    86    91    92    2
    87     2     3    1
    88     2     1    1
    89     3    11   am
    90   127   124    1
    91   127   128    1
    92    16    15    1
    93    16    17    1
    94   124   125    1
    95    15    13   am
    96    14    13    2
    97    13    12    1
    98    11    12    1
    99    17    18    2
   100    17    22   am
   101   125   126    2
   102   136   138   ar
   103   136   135   ar
   104   100    98    1
   105   134   135    1
   106   134   131    1
   107   138   139   ar
   108    22    23    1
   109   135   137   ar
   110   130   131    1
   111   139   137   ar
   112   131   132    1
   113    93    94    1
   114    98    99    1
   115    98    97    1
   116    23    24    1
   117    94    97    1
   118    94    95    1
   119   148   146   ar
   120    25    24    2
   121    24    26   am
   122   132   140   am
   123   132   133    2
   124   140   141    1
   125    95    96    2
   126   146   145    1
   127   146   147   ar
   128   145   144    1
   129    26    27    1
   130   141   144    1
   131   141   142    1
   132    27    30    1
   133    27    28    1
   134    42    40   am
   135    30    31    1
   136   142   143    2
   137    41    40    2
   138    40    39    1
   139    32    31    1
   140    28    29    2
   141    31    33    1
   142    39    38    1
   143    38    35    1
   144    35    36    1
   145    35    34    1
   146    37    36    2
