@<TRIPOS>MOLECULE
tmp/5cpeA00.pdb
 117 114 0 0 0
SMALL
GASTEIGER

@<TRIPOS>ATOM
      1  N         12.6540    3.7050    0.4980 N.3    45  TRP45      -0.1228
      2  CA        13.0860    5.0460    0.8500 C.3    45  TRP45       0.1722
      3  C         12.1170    5.8540    1.7290 C.2    45  TRP45       0.2437
      4  O         12.5790    6.5770    2.6170 O.2    45  TRP45      -0.2733
      5  CB        13.5690    5.8570   -0.3760 C.3    45  TRP45       0.0563
      6  CG        12.5160    6.1520   -1.3230 C.ar   45  TRP45       0.0003
      7  CD1       12.1860    5.4390   -2.4340 C.ar   45  TRP45       0.0946
      8  CD2       11.6240    7.2530   -1.2690 C.ar   45  TRP45       0.0152
      9  NE1       11.1250    6.0250   -3.0720 N.ar   45  TRP45      -0.2442
     10  CE2       10.7830    7.1620   -2.3880 C.ar   45  TRP45       0.0810
     11  CE3       11.4650    8.3320   -0.3920 C.ar   45  TRP45       0.0012
     12  CZ2        9.7690    8.1050   -2.6420 C.ar   45  TRP45       0.0191
     13  CZ3       10.4410    9.2550   -0.6370 C.ar   45  TRP45       0.0001
     14  CH2        9.6220    9.1370   -1.7610 C.ar   45  TRP45       0.0015
     15  N         10.7960    5.7350    1.5200 N.am   46  PRO46      -0.2718
     16  CA         9.9250    6.5230    2.3980 C.3    46  PRO46       0.1535
     17  C          9.9740    6.1370    3.8560 C.2    46  PRO46       0.2598
     18  O          9.4870    6.9070    4.6890 O.2    46  PRO46      -0.2715
     19  CB         8.5150    6.2120    1.8650 C.3    46  PRO46       0.0310
     20  CG         8.7410    5.8060    0.4230 C.3    46  PRO46       0.0237
     21  CD        10.0050    4.9990    0.5150 C.3    46  PRO46       0.0939
     22  N         10.5140    4.9500    4.1260 N.am   47  PHE47      -0.1974
     23  CA        10.5680    4.3520    5.4720 C.3    47  PHE47       0.1639
     24  C         11.9520    4.4810    6.1020 C.2    47  PHE47       0.2290
     25  O         12.1700    3.9830    7.2240 O.2    47  PHE47      -0.2864
     26  CB        10.1820    2.8770    5.3790 C.3    47  PHE47       0.0560
     27  CG         8.8370    2.6620    4.7740 C.ar   47  PHE47      -0.0200
     28  CD1        8.6880    2.5680    3.3620 C.ar   47  PHE47      -0.0042
     29  CD2        7.7140    2.6380    5.5720 C.ar   47  PHE47      -0.0042
     30  CE1        7.4490    2.4130    2.8070 C.ar   47  PHE47      -0.0003
     31  CE2        6.4660    2.4710    4.9980 C.ar   47  PHE47      -0.0003
     32  CZ         6.3450    2.4010    3.6130 C.ar   47  PHE47      -0.0000
     33  N          9.2570   10.3710    9.7400 N.3    51  VAL51      -0.1245
     34  CA         8.3070   11.2250    9.0240 C.3    51  VAL51       0.1561
     35  C          8.4770   12.6800    9.4690 C.2    51  VAL51       0.2260
     36  O          8.4490   12.9730   10.6510 O.2    51  VAL51      -0.2867
     37  CB         6.8670   10.7810    9.3400 C.3    51  VAL51       0.0252
     38  CG1        5.8470   11.8550    8.9440 C.3    51  VAL51       0.0019
     39  CG2        6.5550    9.4400    8.6730 C.3    51  VAL51       0.0019
     40  N          6.3510   16.8370    4.6550 N.3    56  LEU56      -0.1245
     41  CA         5.5090   15.9250    3.8840 C.3    56  LEU56       0.1561
     42  C          4.0400   16.3710    3.8410 C.2    56  LEU56       0.2260
     43  O          3.2220   15.6840    3.1850 O.2    56  LEU56      -0.2867
     44  CB         5.5900   14.5050    4.4230 C.3    56  LEU56       0.0270
     45  CG         6.9440   13.8030    4.3770 C.3    56  LEU56       0.0019
     46  CD1        6.8130   12.4040    4.9380 C.3    56  LEU56       0.0001
     47  CD2        7.5000   13.7280    2.9720 C.3    56  LEU56       0.0001
     48  N          1.7460   16.3340    6.1670 N.3    58  LEU58      -0.1245
     49  CA         0.9520   15.3890    6.9450 C.3    58  LEU58       0.1561
     50  C          0.7580   16.0070    8.3360 C.2    58  LEU58       0.2260
     51  O          1.2840   15.5060    9.3130 O.2    58  LEU58      -0.2867
     52  CB         1.6890   14.0490    7.0150 C.3    58  LEU58       0.0270
     53  CG         2.0860   13.4090    5.6710 C.3    58  LEU58       0.0019
     54  CD1        2.8600   12.1180    5.9130 C.3    58  LEU58       0.0001
     55  CD2        0.8760   13.1980    4.7780 C.3    58  LEU58       0.0001
     56  N          0.0260   13.9590   11.4730 N.3    61  TYR61      -0.1241
     57  CA         0.6870   12.6450   11.5810 C.3    61  TYR61       0.1605
     58  C          0.9310   12.2590   13.0360 C.2    61  TYR61       0.2264
     59  O          0.5940   11.1420   13.4310 O.2    61  TYR61      -0.2867
     60  CB         1.9930   12.5940   10.7620 C.3    61  TYR61       0.0534
     61  CG         2.5980   11.2090   10.7070 C.ar   61  TYR61      -0.0201
     62  CD1        2.1680   10.2920    9.7560 C.ar   61  TYR61      -0.0009
     63  CD2        3.5490   10.7930   11.6370 C.ar   61  TYR61      -0.0009
     64  CE1        2.6900    9.0080    9.7110 C.ar   61  TYR61       0.0417
     65  CE2        4.0840    9.5190   11.6050 C.ar   61  TYR61       0.0417
     66  CZ         3.6420    8.6300   10.6390 C.ar   61  TYR61       0.1957
     67  OH         4.1230    7.3560   10.5940 O.3    61  TYR61      -0.2866
     68  N          2.0360    2.9400    9.1740 N.3   100  CYS100     -0.1235
     69  CA         1.6870    3.3090    7.8280 C.3   100  CYS100      0.1677
     70  C          0.2190    2.9510    7.5410 C.2   100  CYS100      0.2270
     71  O         -0.5450    3.7540    6.9490 O.2   100  CYS100     -0.2867
     72  CB         2.6260    2.6360    6.8390 C.3   100  CYS100      0.0956
     73  SG         2.3960    3.1750    5.1640 S.3   100  CYS100     -0.0801
     74  N         -2.1990    5.3270    9.6630 N.3   103  TYR103     -0.1227
     75  CA        -2.2970    6.7200    9.2410 C.3   103  TYR103      0.1736
     76  C         -3.0020    6.8840    7.8830 C.2   103  TYR103      0.2595
     77  O         -3.8290    7.8050    7.6620 O.2   103  TYR103     -0.2718
     78  CB        -0.9110    7.4250    9.2560 C.3   103  TYR103      0.0548
     79  CG        -1.0700    8.8630    8.8590 C.ar  103  TYR103     -0.0200
     80  CD1       -1.6180    9.7910    9.7460 C.ar  103  TYR103     -0.0009
     81  CD2       -0.7250    9.2830    7.5830 C.ar  103  TYR103     -0.0009
     82  CE1       -1.8220   11.0920    9.3610 C.ar  103  TYR103      0.0417
     83  CE2       -0.9120   10.5910    7.1970 C.ar  103  TYR103      0.0417
     84  CZ        -1.4540   11.4860    8.0820 C.ar  103  TYR103      0.1957
     85  OH        -1.6600   12.7960    7.6620 O.3   103  TYR103     -0.2866
     86  N         -2.6800    5.9820    6.9540 N.am  104  ASN104     -0.1974
     87  CA        -3.0800    6.1180    5.5700 C.3   104  ASN104      0.1688
     88  C         -4.2980    5.3000    5.2510 C.2   104  ASN104      0.2292
     89  O         -4.7160    4.5230    6.0690 O.2   104  ASN104     -0.2864
     90  CB        -1.9030    5.7390    4.6820 C.3   104  ASN104      0.1181
     91  CG        -0.7320    6.6550    4.9110 C.2   104  ASN104      0.2629
     92  OD1       -0.7620    7.8150    4.5030 O.2   104  ASN104     -0.2716
     93  ND2        0.2820    6.1770    5.6170 N.am  104  ASN104     -0.0877
     94  N         -1.0500    4.5400   -2.2640 N.3   109  ASP109     -0.1225
     95  CA         0.2150    4.0660   -2.8250 C.3   109  ASP109      0.1805
     96  C          1.2090    3.7110   -1.6950 C.2   109  ASP109      0.2597
     97  O          1.8720    2.6860   -1.7520 O.2   109  ASP109     -0.2718
     98  CB         0.8920    5.0940   -3.7350 C.3   109  ASP109      0.1424
     99  CG         0.1390    5.3790   -5.0410 C.2   109  ASP109      0.3668
    100  OD1       -0.7970    4.6420   -5.4080 O.co2 109  ASP109     -0.2456
    101  OD2        0.5310    6.3620   -5.7220 O.co2 109  ASP109     -0.2456
    102  N          1.3360    4.5740   -0.6850 N.am  110  ILE110     -0.1980
    103  CA         2.3130    4.3140    0.3930 C.3   110  ILE110      0.1595
    104  C          2.0070    2.9810    1.1180 C.2   110  ILE110      0.2287
    105  O          2.9090    2.2880    1.6240 O.2   110  ILE110     -0.2864
    106  CB         2.4170    5.5180    1.3780 C.3   110  ILE110      0.0276
    107  CG1        3.6680    5.4100    2.2790 C.3   110  ILE110      0.0022
    108  CG2        1.1480    5.6060    2.2150 C.3   110  ILE110      0.0022
    109  CD1        4.9910    5.6370    1.5680 C.3   110  ILE110      0.0001
    110  N          3.2920    0.1200   -0.9150 N.3   113  MET113     -0.1245
    111  CA         4.7450    0.0590   -0.6940 C.3   113  MET113      0.1570
    112  C          5.0740   -0.6280    0.6380 C.2   113  MET113      0.2261
    113  O          5.9010   -1.5390    0.7040 O.2   113  MET113     -0.2867
    114  CB         5.3370    1.4520   -0.7560 C.3   113  MET113      0.0387
    115  CG         5.2400    2.0760   -2.1280 C.3   113  MET113      0.0595
    116  SD         5.7500    3.7920   -2.2300 S.3   113  MET113     -0.1393
    117  CE         7.5310    3.6340   -2.3390 C.3   113  MET113      0.0692
@<TRIPOS>BOND
     1   101    99   ar
     2   100    99   ar
     3    99    98    1
     4    98    95    1
     5     9     7   ar
     6     9    10   ar
     7    95    94    1
     8    95    96    1
     9    12    10   ar
    10    12    14   ar
    11     7     6   ar
    12    10     8   ar
    13   117   116    1
    14   116   115    1
    15   115   114    1
    16    14    13   ar
    17    97    96    2
    18    96   102   am
    19     6     8   ar
    20     6     5    1
    21     8    11   ar
    22   110   111    1
    23   114   111    1
    24   111   112    1
    25   102   103    1
    26    13    11   ar
    27     5     2    1
    28   103   104    1
    29   103   106    1
    30    20    21    1
    31    20    19    1
    32     1     2    1
    33    21    15    1
    34   112   113    2
    35     2     3    1
    36   104   105    2
    37   106   108    1
    38   106   107    1
    39    15     3   am
    40    15    16    1
    41   109   107    1
    42     3     4    2
    43    19    16    1
    44    16    17    1
    45    30    28   ar
    46    30    32   ar
    47    47    45    1
    48    43    42    2
    49    28    27   ar
    50    32    31   ar
    51    42    41    1
    52    17    22   am
    53    17    18    2
    54    41    44    1
    55    41    40    1
    56    22    23    1
    57    45    44    1
    58    45    46    1
    59    92    91    2
    60    90    91    1
    61    90    87    1
    62    27    26    1
    63    27    29   ar
    64    55    53    1
    65    91    93   am
    66    31    29   ar
    67    73    72    1
    68    88    87    1
    69    88    89    2
    70    26    23    1
    71    23    24    1
    72    87    86    1
    73    53    54    1
    74    53    52    1
    75    24    25    2
    76    48    49    1
    77    72    69    1
    78    49    52    1
    79    49    50    1
    80    71    70    2
    81    86    76   am
    82    83    81   ar
    83    83    84   ar
    84    70    69    1
    85    81    79   ar
    86    77    76    2
    87    85    84    1
    88    69    68    1
    89    76    75    1
    90    84    82   ar
    91    50    51    2
    92    39    37    1
    93    79    78    1
    94    79    80   ar
    95    38    37    1
    96    34    37    1
    97    34    35    1
    98    34    33    1
    99    75    78    1
   100    75    74    1
   101    82    80   ar
   102    35    36    2
   103    64    62   ar
   104    64    66   ar
   105    62    61   ar
   106    67    66    1
   107    66    65   ar
   108    61    60    1
   109    61    63   ar
   110    60    57    1
   111    56    57    1
   112    57    58    1
   113    65    63   ar
   114    58    59    2
