@<TRIPOS>MOLECULE
tmp/5cpfA01.pdb
 182 174 0 0 0
SMALL
GASTEIGER

@<TRIPOS>ATOM
      1  N         -6.0360    0.0500   27.9380 N.3    93  ILE93      -0.1231
      2  CA        -7.4300    0.3070   28.2670 C.3    93  ILE93       0.1692
      3  C         -8.1330   -1.0010   28.5600 C.2    93  ILE93       0.2593
      4  O         -7.9420   -1.9940   27.8470 O.2    93  ILE93      -0.2718
      5  CB        -8.1690    0.9460   27.1000 C.3    93  ILE93       0.0266
      6  CG1       -7.6870    2.3730   26.8600 C.3    93  ILE93       0.0019
      7  CG2       -9.6670    0.9460   27.3540 C.3    93  ILE93       0.0020
      8  CD1       -8.3710    3.0340   25.6670 C.3    93  ILE93       0.0001
      9  N         -8.9460   -1.0050   29.6080 N.am   94  GLY94      -0.1942
     10  CA        -9.7340   -2.1740   29.9280 C.3    94  GLY94       0.2014
     11  C        -10.8550   -1.8780   30.8970 C.2    94  GLY94       0.2639
     12  O        -10.7360   -1.0070   31.7540 O.2    94  GLY94      -0.2714
     13  N        -11.9480   -2.6150   30.7710 N.am   95  PHE95      -0.1959
     14  CA       -13.0580   -2.4560   31.6900 C.3    95  PHE95       0.1771
     15  C        -13.9390   -3.6940   31.7320 C.2    95  PHE95       0.2619
     16  O        -14.2440   -4.2590   30.6860 O.2    95  PHE95      -0.2715
     17  CB       -13.9030   -1.2580   31.2790 C.3    95  PHE95       0.0574
     18  CG       -15.2120   -1.1880   31.9920 C.ar   95  PHE95      -0.0200
     19  CD1      -15.2780   -0.6910   33.2880 C.ar   95  PHE95      -0.0042
     20  CD2      -16.3750   -1.6430   31.3820 C.ar   95  PHE95      -0.0042
     21  CE1      -16.4860   -0.6370   33.9640 C.ar   95  PHE95      -0.0003
     22  CE2      -17.5890   -1.5910   32.0470 C.ar   95  PHE95      -0.0003
     23  CZ       -17.6460   -1.0860   33.3410 C.ar   95  PHE95      -0.0000
     24  N        -14.3570   -4.1030   32.9310 N.am   96  MET96      -0.1977
     25  CA       -15.3710   -5.1570   33.0750 C.3    96  MET96       0.1605
     26  C        -16.2880   -4.9140   34.2780 C.2    96  MET96       0.2287
     27  O        -15.8040   -4.7620   35.4010 O.2    96  MET96      -0.2864
     28  CB       -14.7200   -6.5390   33.1830 C.3    96  MET96       0.0413
     29  CG       -15.7080   -7.7060   33.1650 C.3    96  MET96       0.0598
     30  SD       -16.5390   -7.9620   31.5770 S.3    96  MET96      -0.1393
     31  CE       -15.2500   -8.7230   30.6110 C.3    96  MET96       0.0692
     32  N        -17.1990  -10.4870   37.2820 N.3   101  MET101     -0.1245
     33  CA       -15.9440  -10.3400   38.0150 C.3   101  MET101      0.1570
     34  C        -16.1680  -10.3530   39.5190 C.2   101  MET101      0.2261
     35  O        -17.0030   -9.6020   40.0270 O.2   101  MET101     -0.2867
     36  CB       -15.2790   -9.0110   37.6670 C.3   101  MET101      0.0387
     37  CG       -14.2040   -9.0850   36.6150 C.3   101  MET101      0.0595
     38  SD       -12.9950   -7.7780   36.8710 S.3   101  MET101     -0.1393
     39  CE       -14.0180   -6.3990   37.4040 C.3   101  MET101      0.0692
     40  N         -3.2250   -9.7000   29.8890 N.3   147  PHE147     -0.1241
     41  CA        -2.9550  -10.5500   31.0470 C.3   147  PHE147      0.1605
     42  C         -3.2730  -12.0280   30.7410 C.2   147  PHE147      0.2264
     43  O         -4.4340  -12.3740   30.4960 O.2   147  PHE147     -0.2867
     44  CB        -3.7480  -10.0700   32.2500 C.3   147  PHE147      0.0534
     45  CG        -3.5010  -10.8750   33.4740 C.ar  147  PHE147     -0.0203
     46  CD1       -2.2530  -10.8550   34.0860 C.ar  147  PHE147     -0.0042
     47  CD2       -4.5020  -11.6740   34.0100 C.ar  147  PHE147     -0.0042
     48  CE1       -2.0090  -11.6070   35.2270 C.ar  147  PHE147     -0.0003
     49  CE2       -4.2650  -12.4340   35.1410 C.ar  147  PHE147     -0.0003
     50  CZ        -3.0150  -12.3960   35.7520 C.ar  147  PHE147     -0.0000
     51  N         -9.1890  -19.0740   35.4460 N.3   153  MET153     -0.1231
     52  CA        -8.8990  -18.8160   36.8590 C.3   153  MET153      0.1687
     53  C        -10.1140  -18.3000   37.6390 C.2   153  MET153      0.2434
     54  O        -11.0930  -17.8290   37.0540 O.2   153  MET153     -0.2733
     55  CB        -7.7530  -17.8120   36.9720 C.3   153  MET153      0.0400
     56  CG        -8.0600  -16.4820   36.3370 C.3   153  MET153      0.0596
     57  SD        -6.6040  -15.4390   36.2270 S.3   153  MET153     -0.1393
     58  CE        -5.6320  -16.3060   34.9920 C.3   153  MET153      0.0692
     59  N        -10.0550  -18.3890   38.9720 N.am  154  PRO154     -0.2718
     60  CA       -11.1050  -17.7980   39.8040 C.3   154  PRO154      0.1535
     61  C        -11.1530  -16.2760   39.6870 C.2   154  PRO154      0.2598
     62  O        -10.1150  -15.6470   39.5010 O.2   154  PRO154     -0.2715
     63  CB       -10.6640  -18.1770   41.2130 C.3   154  PRO154      0.0310
     64  CG        -9.1850  -18.4130   41.0900 C.3   154  PRO154      0.0237
     65  CD        -9.0450  -19.0850   39.7840 C.3   154  PRO154      0.0939
     66  N        -12.3590  -15.7190   39.7760 N.am  155  ALA155     -0.1964
     67  CA       -12.5910  -14.2780   39.9420 C.3   155  ALA155      0.1728
     68  C        -12.5130  -13.4210   38.6800 C.2   155  ALA155      0.2616
     69  O        -13.4520  -12.6790   38.3730 O.2   155  ALA155     -0.2715
     70  CB       -11.6980  -13.7000   41.0410 C.3   155  ALA155      0.0334
     71  N        -11.3920  -13.5100   37.9680 N.am  156  TYR156     -0.1974
     72  CA       -11.1710  -12.7410   36.7410 C.3   156  TYR156      0.1639
     73  C        -12.2870  -13.0150   35.7180 C.2   156  TYR156      0.2290
     74  O        -12.6400  -12.1480   34.9180 O.2   156  TYR156     -0.2864
     75  CB        -9.7920  -13.0860   36.1730 C.3   156  TYR156      0.0560
     76  CG        -9.1590  -12.0620   35.2460 C.ar  156  TYR156     -0.0198
     77  CD1       -8.8870  -10.7630   35.6750 C.ar  156  TYR156     -0.0009
     78  CD2       -8.7800  -12.4130   33.9520 C.ar  156  TYR156     -0.0009
     79  CE1       -8.2840   -9.8300   34.8150 C.ar  156  TYR156      0.0417
     80  CE2       -8.1860  -11.5000   33.0950 C.ar  156  TYR156      0.0417
     81  CZ        -7.9350  -10.2140   33.5280 C.ar  156  TYR156      0.1957
     82  OH        -7.3470   -9.3180   32.6670 O.3   156  TYR156     -0.2866
     83  N        -13.2500  -11.1570   32.3270 N.3   159  MET159     -0.1245
     84  CA       -12.1540  -10.3840   31.7850 C.3   159  MET159      0.1570
     85  C        -11.1330  -11.3510   31.2210 C.2   159  MET159      0.2261
     86  O        -10.3310  -10.9810   30.3590 O.2   159  MET159     -0.2867
     87  CB       -11.5360   -9.4090   32.7860 C.3   159  MET159      0.0387
     88  CG       -10.3980   -8.5750   32.1870 C.3   159  MET159      0.0595
     89  SD       -10.7560   -6.9340   31.5010 S.3   159  MET159     -0.1393
     90  CE       -12.0960   -7.2730   30.3830 C.3   159  MET159      0.0692
     91  N         -9.8050  -11.0990   27.2980 N.3   163  LYS163     -0.1245
     92  CA        -8.3860  -11.0860   26.9180 C.3   163  LYS163      0.1561
     93  C         -8.0810  -12.1430   25.8540 C.2   163  LYS163      0.2260
     94  O         -7.2620  -11.9110   24.9710 O.2   163  LYS163     -0.2867
     95  CB        -7.4690  -11.2530   28.1300 C.3   163  LYS163      0.0271
     96  CG        -7.4960  -10.0840   29.0950 C.3   163  LYS163      0.0035
     97  CD        -6.6880   -8.9180   28.5800 C.3   163  LYS163      0.0206
     98  CE        -6.9950   -7.6860   29.3830 C.3   163  LYS163      0.1093
     99  NZ        -6.3010   -6.5080   28.8320 N.3   163  LYS163     -0.1314
    100  N          2.4970   -9.3160   34.4530 N.3   190  GLY190     -0.1210
    101  CA         2.0880   -9.9690   35.6840 C.3   190  GLY190      0.1940
    102  C          1.1770   -9.0220   36.4350 C.2   190  GLY190      0.2454
    103  O          0.8220   -7.9540   35.9160 O.2   190  GLY190     -0.2732
    104  N          0.7790   -9.3950   37.6550 N.am  191  PRO191     -0.2717
    105  CA        -0.1400   -8.5250   38.3970 C.3   191  PRO191      0.1535
    106  C          0.5420   -7.2800   38.9780 C.2   191  PRO191      0.2598
    107  O          1.6350   -7.3550   39.5420 O.2   191  PRO191     -0.2715
    108  CB        -0.6500   -9.4360   39.5090 C.3   191  PRO191      0.0310
    109  CG         0.4370  -10.4140   39.7050 C.3   191  PRO191      0.0237
    110  CD         1.0340  -10.6610   38.3530 C.3   191  PRO191      0.0939
    111  N         -0.1080   -6.1340   38.8020 N.am  192  ILE192     -0.1978
    112  CA         0.3190   -4.8940   39.4260 C.3   192  ILE192      0.1596
    113  C         -0.8440   -4.3830   40.2600 C.2   192  ILE192      0.2287
    114  O         -1.9980   -4.4430   39.8220 O.2   192  ILE192     -0.2864
    115  CB         0.6540   -3.8180   38.3900 C.3   192  ILE192      0.0276
    116  CG1        1.6330   -4.3500   37.3260 C.3   192  ILE192      0.0022
    117  CG2        1.1650   -2.5720   39.0890 C.3   192  ILE192      0.0022
    118  CD1        3.0900   -4.1240   37.6140 C.3   192  ILE192      0.0001
    119  N         -2.6910   -1.8260   40.7410 N.3   194  THR194     -0.1218
    120  CA        -2.9860   -0.5800   40.0760 C.3   194  THR194      0.1862
    121  C         -4.4480   -0.2700   40.2540 C.2   194  THR194      0.2287
    122  O         -5.2300   -0.3500   39.3050 O.2   194  THR194     -0.2866
    123  CB        -2.6850   -0.6750   38.5800 C.3   194  THR194      0.1770
    124  OG1       -3.0290    0.5620   37.9680 O.3   194  THR194     -0.2211
    125  CG2       -3.4600   -1.7710   37.8670 C.3   194  THR194      0.0375
    126  N         -7.4530   -0.4680   40.0420 N.3   196  ALA196     -0.1231
    127  CA        -8.3200   -1.4660   39.4080 C.3   196  ALA196      0.1694
    128  C         -8.1560   -2.8320   40.0780 C.2   196  ALA196      0.2591
    129  O         -9.0620   -3.2990   40.7710 O.2   196  ALA196     -0.2718
    130  CB        -8.0310   -1.5600   37.9140 C.3   196  ALA196      0.0304
    131  N         -6.9940   -3.4580   39.8930 N.am  197  MET197     -0.1979
    132  CA        -6.6660   -4.6790   40.6320 C.3   197  MET197      0.1605
    133  C         -6.8990   -4.4830   42.1280 C.2   197  MET197      0.2287
    134  O         -7.8880   -4.9790   42.6600 O.2   197  MET197     -0.2864
    135  CB        -5.2140   -5.1060   40.4000 C.3   197  MET197      0.0413
    136  CG        -4.7460   -6.2920   41.2440 C.3   197  MET197      0.0598
    137  SD        -5.5920   -7.8390   40.8620 S.3   197  MET197     -0.1393
    138  CE        -6.5450   -8.1040   42.3580 C.3   197  MET197      0.0692
    139  N        -10.2730   -5.3830   44.2310 N.3   200  ILE200     -0.1245
    140  CA       -10.6980   -6.7610   44.4960 C.3   200  ILE200      0.1561
    141  C         -9.7990   -7.4620   45.5110 C.2   200  ILE200      0.2260
    142  O        -10.2210   -8.4130   46.1720 O.2   200  ILE200     -0.2867
    143  CB       -10.7150   -7.6010   43.1980 C.3   200  ILE200      0.0252
    144  CG1      -11.6110   -6.9520   42.1520 C.3   200  ILE200      0.0019
    145  CG2      -11.1610   -9.0260   43.5070 C.3   200  ILE200      0.0019
    146  CD1      -11.4150   -7.6670   40.8080 C.3   200  ILE200      0.0001
    147  N        -12.9800  -13.8160   47.1560 N.3   209  ALA209     -0.1245
    148  CA       -12.3630  -13.4110   45.8960 C.3   209  ALA209      0.1562
    149  C        -11.0160  -12.7890   46.1960 C.2   209  ALA209      0.2260
    150  O        -10.0150  -13.1010   45.5560 O.2   209  ALA209     -0.2867
    151  CB       -13.2480  -12.4180   45.1710 C.3   209  ALA209      0.0290
    152  N         -8.6620  -15.6960   46.9820 N.3   212  GLN212     -0.1231
    153  CA        -8.0880  -16.3010   45.7870 C.3   212  GLN212      0.1698
    154  C         -7.0410  -15.3630   45.1390 C.2   212  GLN212      0.2592
    155  O         -6.1350  -15.8200   44.4320 O.2   212  GLN212     -0.2718
    156  CB        -9.2080  -16.7020   44.8120 C.3   212  GLN212      0.0381
    157  CG       -10.1620  -17.7910   45.2970 C.3   212  GLN212      0.0905
    158  CD        -9.4440  -19.0680   45.6520 C.2   212  GLN212      0.2608
    159  OE1       -8.6670  -19.5780   44.8210 O.2   212  GLN212     -0.2717
    160  NE2       -9.5670  -19.5220   46.8590 N.am  212  GLN212     -0.0878
    161  N         -7.1520  -14.0600   45.4190 N.am  213  ALA213     -0.1980
    162  CA        -6.1900  -13.0610   44.9400 C.3   213  ALA213      0.1597
    163  C         -4.7650  -13.2930   45.4400 C.2   213  ALA213      0.2287
    164  O         -3.9020  -13.6790   44.6640 O.2   213  ALA213     -0.2864
    165  CB        -6.6420  -11.6570   45.2750 C.3   213  ALA213      0.0319
    166  N         -2.7690  -16.0960   44.2060 N.3   216  LEU216     -0.1231
    167  CA        -2.1550  -15.8500   42.8800 C.3   216  LEU216      0.1693
    168  C         -0.9220  -14.9740   43.0150 C.2   216  LEU216      0.2591
    169  O          0.1870  -15.3820   42.6630 O.2   216  LEU216     -0.2718
    170  CB        -3.1240  -15.1790   41.8850 C.3   216  LEU216      0.0284
    171  CG        -4.2710  -16.0450   41.3650 C.3   216  LEU216      0.0019
    172  CD1       -5.1860  -15.1820   40.5270 C.3   216  LEU216      0.0001
    173  CD2       -3.7760  -17.1970   40.5290 C.3   216  LEU216      0.0001
    174  N         -1.1400  -13.7720   43.5470 N.am  217  GLU217     -0.1979
    175  CA        -0.1190  -12.7300   43.6630 C.3   217  GLU217      0.1602
    176  C          1.1630  -13.2000   44.3470 C.2   217  GLU217      0.2287
    177  O          2.2260  -12.6200   44.1410 O.2   217  GLU217     -0.2864
    178  CB        -0.6950  -11.5100   44.3970 C.3   217  GLU217      0.0415
    179  CG        -1.7460  -10.8090   43.5330 C.3   217  GLU217      0.1163
    180  CD        -2.5610   -9.7730   44.2980 C.2   217  GLU217      0.3649
    181  OE1       -2.7710   -9.8930   45.5270 O.co2 217  GLU217     -0.2457
    182  OE2       -3.0390   -8.8850   43.5590 O.co2 217  GLU217     -0.2457
@<TRIPOS>BOND
     1    94    93    2
     2     8     6    1
     3    93    92    1
     4     6     5    1
     5    92    91    1
     6    92    95    1
     7     5     7    1
     8     5     2    1
     9     4     3    2
    10     1     2    1
    11    95    96    1
    12     2     3    1
    13     3     9   am
    14    97    96    1
    15    97    98    1
    16    99    98    1
    17     9    10    1
    18    40    41    1
    19    10    11    1
    20    86    85    2
    21    90    89    1
    22    43    42    2
    23    31    30    1
    24    16    15    2
    25    42    41    1
    26    13    11   am
    27    13    14    1
    28    11    12    2
    29    41    44    1
    30    85    84    1
    31    17    14    1
    32    17    18    1
    33    20    18   ar
    34    20    22   ar
    35    89    88    1
    36    30    29    1
    37    14    15    1
    38    15    24   am
    39    84    83    1
    40    84    87    1
    41    18    19   ar
    42    22    23   ar
    43    88    87    1
    44    44    45    1
    45    82    81    1
    46    24    25    1
    47    25    28    1
    48    25    26    1
    49    80    81   ar
    50    80    78   ar
    51    29    28    1
    52    19    21   ar
    53    23    21   ar
    54    45    47   ar
    55    45    46   ar
    56    81    79   ar
    57    78    76   ar
    58    47    49   ar
    59    46    48   ar
    60    26    27    2
    61   100   101    1
    62    79    77   ar
    63    74    73    2
    64    58    57    1
    65    49    50   ar
    66    48    50   ar
    67    76    77   ar
    68    76    75    1
    69    51    52    1
    70   101   102    1
    71    73    72    1
    72   103   102    2
    73    75    72    1
    74    57    56    1
    75    56    55    1
    76   102   104   am
    77    37    38    1
    78    37    36    1
    79    72    71    1
    80    52    55    1
    81    52    53    1
    82    38    39    1
    83    54    53    2
    84    32    33    1
    85   116   118    1
    86   116   115    1
    87    53    59   am
    88   104   110    1
    89   104   105    1
    90    36    33    1
    91   125   123    1
    92   130   127    1
    93   124   123    1
    94    71    68   am
    95    33    34    1
    96   110   109    1
    97    69    68    2
    98   115   117    1
    99   115   112    1
   100   105   106    1
   101   105   108    1
   102   123   120    1
   103    68    67    1
   104   111   106   am
   105   111   112    1
   106    59    65    1
   107    59    60    1
   108   106   107    2
   109   122   121    2
   110   127   126    1
   111   127   128    1
   112   112   113    1
   113    62    61    2
   114   108   109    1
   115    34    35    2
   116    61    66   am
   117    61    60    1
   118    66    67    1
   119    65    64    1
   120    60    63    1
   121   114   113    2
   122   131   128   am
   123   131   132    1
   124    67    70    1
   125   120   121    1
   126   120   119    1
   127   128   129    2
   128   135   132    1
   129   135   136    1
   130   172   171    1
   131   173   171    1
   132   132   133    1
   133   146   144    1
   134   137   136    1
   135   137   138    1
   136    64    63    1
   137   171   170    1
   138   170   167    1
   139   133   134    2
   140   144   143    1
   141   169   168    2
   142   167   168    1
   143   167   166    1
   144   168   174   am
   145   143   145    1
   146   143   140    1
   147   179   180    1
   148   179   178    1
   149   174   175    1
   150   182   180   ar
   151   175   176    1
   152   175   178    1
   153   177   176    2
   154   139   140    1
   155   180   181   ar
   156   155   154    2
   157   140   141    1
   158   164   163    2
   159   156   157    1
   160   156   153    1
   161   159   158    2
   162   162   165    1
   163   162   161    1
   164   162   163    1
   165   154   161   am
   166   154   153    1
   167   151   148    1
   168   157   158    1
   169   141   142    2
   170   150   149    2
   171   158   160   am
   172   153   152    1
   173   148   149    1
   174   148   147    1
