@<TRIPOS>MOLECULE
tmp/5cphB01.pdb
 107 99 0 0 0
SMALL
GASTEIGER

@<TRIPOS>ATOM
      1  N        -17.4960   -9.1880  -29.1710 N.3    32  ILE32      -0.1245
      2  CA       -17.8000  -10.5880  -29.5510 C.3    32  ILE32       0.1561
      3  C        -17.7880  -10.7340  -31.0430 C.2    32  ILE32       0.2260
      4  O        -17.1580  -11.7050  -31.5330 O.2    32  ILE32      -0.2867
      5  CB       -19.1060  -11.0440  -28.8830 C.3    32  ILE32       0.0252
      6  CG1      -19.0640  -10.8760  -27.3540 C.3    32  ILE32       0.0019
      7  CG2      -19.4690  -12.4540  -29.3080 C.3    32  ILE32       0.0019
      8  CD1      -17.9250  -11.6380  -26.6760 C.3    32  ILE32       0.0001
      9  N        -14.3830  -11.1750  -32.6590 N.3    35  ASN35      -0.1225
     10  CA       -13.8040  -12.5210  -32.6260 C.3    35  ASN35       0.1785
     11  C        -14.3140  -13.4190  -33.7610 C.2    35  ASN35       0.2597
     12  O        -13.5020  -14.1180  -34.3820 O.2    35  ASN35      -0.2718
     13  CB       -14.0930  -13.2390  -31.2610 C.3    35  ASN35       0.1169
     14  CG       -13.4640  -12.5400  -30.0850 C.2    35  ASN35       0.2627
     15  OD1      -12.4070  -11.9770  -30.2440 O.2    35  ASN35      -0.2716
     16  ND2      -14.2050  -12.4240  -29.0010 N.am   35  ASN35      -0.0877
     17  N        -15.5840  -13.2640  -34.1100 N.am   36  SER36      -0.1952
     18  CA       -16.0900  -14.0310  -35.2330 C.3    36  SER36       0.1924
     19  C        -15.5120  -13.4990  -36.5670 C.2    36  SER36       0.2314
     20  O        -15.2320  -14.2640  -37.4830 O.2    36  SER36      -0.2863
     21  CB       -17.6180  -13.9540  -35.3060 C.3    36  SER36       0.2116
     22  OG       -18.1870  -14.6760  -34.2080 O.3    36  SER36      -0.2180
     23  N        -12.2490  -14.9930  -37.0850 N.3    39  GLU39      -0.1245
     24  CA       -12.3440  -16.3530  -37.5460 C.3    39  GLU39       0.1567
     25  C        -12.6560  -16.3610  -39.0570 C.2    39  GLU39       0.2260
     26  O        -12.2390  -17.2960  -39.8140 O.2    39  GLU39      -0.2867
     27  CB       -13.3530  -17.0580  -36.7010 C.3    39  GLU39       0.0388
     28  CG       -13.4690  -18.5340  -36.9310 C.3    39  GLU39       0.1160
     29  CD       -12.2320  -19.3960  -36.5170 C.2    39  GLU39       0.3649
     30  OE1      -11.2010  -18.8770  -36.0670 O.co2  39  GLU39      -0.2457
     31  OE2      -12.3740  -20.6360  -36.7580 O.co2  39  GLU39      -0.2457
     32  N        -24.4100  -14.2810  -30.5100 N.3    60  VAL60      -0.1245
     33  CA       -23.5200  -14.2000  -31.6850 C.3    60  VAL60       0.1561
     34  C        -23.1360  -15.6370  -32.0370 C.2    60  VAL60       0.2260
     35  O        -22.5840  -16.3660  -31.1940 O.2    60  VAL60      -0.2867
     36  CB       -22.3070  -13.3580  -31.4420 C.3    60  VAL60       0.0252
     37  CG1      -21.4350  -13.2960  -32.7250 C.3    60  VAL60       0.0019
     38  CG2      -22.7070  -11.9480  -30.9930 C.3    60  VAL60       0.0019
     39  N        -21.1400  -18.0210  -35.0940 N.3    62  ASP62      -0.1239
     40  CA       -20.3780  -18.1580  -36.3530 C.3    62  ASP62       0.1674
     41  C        -20.2130  -19.6160  -36.7150 C.2    62  ASP62       0.2266
     42  O        -20.3860  -20.4880  -35.8350 O.2    62  ASP62      -0.2867
     43  CB       -19.0520  -17.4070  -36.3290 C.3    62  ASP62       0.1410
     44  CG       -18.0530  -17.9920  -35.4080 C.2    62  ASP62       0.3668
     45  OD1      -17.5750  -17.3240  -34.4760 O.co2  62  ASP62      -0.2456
     46  OD2      -17.6350  -19.1710  -35.5990 O.co2  62  ASP62      -0.2456
     47  N        -14.3440  -22.7010  -36.7010 N.3    65  ARG65      -0.1231
     48  CA       -13.8250  -23.9910  -36.1600 C.3    65  ARG65       0.1694
     49  C        -14.3990  -24.3210  -34.8220 C.2    65  ARG65       0.2593
     50  O        -14.2740  -25.4830  -34.3710 O.2    65  ARG65      -0.2718
     51  CB       -12.3270  -23.9500  -36.0620 C.3    65  ARG65       0.0321
     52  CG       -11.6300  -23.8760  -37.4510 C.3    65  ARG65       0.0489
     53  CD       -10.1760  -23.5050  -37.3190 C.3    65  ARG65       0.2205
     54  NE       -10.0000  -22.1810  -36.8060 N.pl3  65  ARG65      -0.0865
     55  CZ        -8.8540  -21.5980  -36.6250 C.cat  65  ARG65       0.5346
     56  NH1       -8.7920  -20.3000  -36.2520 N.pl3  65  ARG65       0.1354
     57  NH2       -7.6990  -22.2680  -36.7590 N.pl3  65  ARG65       0.1354
     58  N        -14.9220  -23.3700  -34.0580 N.am   66  GLY66      -0.1942
     59  CA       -15.2640  -23.5640  -32.6420 C.3    66  GLY66       0.2014
     60  C        -14.1310  -23.1680  -31.8240 C.2    66  GLY66       0.2639
     61  O        -12.9530  -23.5660  -32.0860 O.2    66  GLY66      -0.2714
     62  N        -14.3550  -22.4680  -30.6970 N.am   67  ILE67      -0.1963
     63  CA       -13.2770  -22.1590  -29.7760 C.3    67  ILE67       0.1712
     64  C        -12.6510  -23.4360  -29.3030 C.2    67  ILE67       0.2455
     65  O        -13.3440  -24.3640  -28.9100 O.2    67  ILE67      -0.2730
     66  CB       -13.7530  -21.3360  -28.5720 C.3    67  ILE67       0.0289
     67  CG1      -14.3930  -20.0340  -28.9690 C.3    67  ILE67       0.0022
     68  CG2      -12.5920  -21.0080  -27.6420 C.3    67  ILE67       0.0023
     69  CD1      -15.0950  -19.3140  -27.8340 C.3    67  ILE67       0.0001
     70  N        -11.2950  -23.5850  -29.2210 N.am   68  PRO68      -0.2772
     71  CA       -10.7270  -24.8660  -28.7880 C.3    68  PRO68       0.1083
     72  C        -11.1640  -25.2280  -27.3480 C.3    68  PRO68       0.2017
     73  O        -11.3420  -24.2750  -26.4810 O.3    68  PRO68      -0.2186
     74  CB        -9.2200  -24.5550  -28.8210 C.3    68  PRO68       0.0243
     75  CG        -9.0650  -23.5930  -29.8830 C.3    68  PRO68       0.0233
     76  CD       -10.3010  -22.6920  -29.8430 C.3    68  PRO68       0.0935
     77  N         -9.9730  -18.6440  -22.1850 N.3    80  ILE80      -0.1231
     78  CA       -10.2920  -17.5300  -23.0690 C.3    80  ILE80       0.1692
     79  C        -11.4290  -16.7150  -22.4760 C.2    80  ILE80       0.2591
     80  O        -11.3260  -15.4570  -22.3330 O.2    80  ILE80      -0.2718
     81  CB       -10.5570  -17.9890  -24.4930 C.3    80  ILE80       0.0266
     82  CG1       -9.2590  -18.5860  -25.0840 C.3    80  ILE80       0.0019
     83  CG2      -11.2000  -16.8930  -25.3400 C.3    80  ILE80       0.0020
     84  CD1       -9.5230  -19.5240  -26.2960 C.3    80  ILE80       0.0001
     85  N        -12.5200  -17.3510  -22.1440 N.am   81  LEU81      -0.1980
     86  CA       -13.7090  -16.5810  -21.7400 C.3    81  LEU81       0.1596
     87  C        -13.5590  -16.0320  -20.3280 C.2    81  LEU81       0.2287
     88  O        -14.1510  -14.9330  -20.0620 O.2    81  LEU81      -0.2864
     89  CB       -15.0200  -17.4410  -21.8930 C.3    81  LEU81       0.0297
     90  CG       -15.3440  -17.6440  -23.3700 C.3    81  LEU81       0.0022
     91  CD1      -16.5750  -18.5010  -23.5340 C.3    81  LEU81       0.0001
     92  CD2      -15.4900  -16.3600  -24.2450 C.3    81  LEU81       0.0001
     93  N        -19.1610  -21.5000  -33.1150 N.3   128  THR128     -0.1218
     94  CA       -19.2550  -20.9920  -31.7370 C.3   128  THR128      0.1862
     95  C        -20.5410  -20.2020  -31.5980 C.2   128  THR128      0.2287
     96  O        -20.8650  -19.3640  -32.4890 O.2   128  THR128     -0.2866
     97  CB       -18.0580  -20.1030  -31.4180 C.3   128  THR128      0.1770
     98  OG1      -16.8400  -20.8780  -31.5850 O.3   128  THR128     -0.2211
     99  CG2      -18.0810  -19.5640  -30.0530 C.3   128  THR128      0.0375
    100  N        -22.0740  -17.6210  -28.6360 N.3   130  ILE130     -0.1245
    101  CA       -21.9360  -16.8750  -27.3950 C.3   130  ILE130      0.1561
    102  C        -23.2150  -16.1580  -27.1440 C.2   130  ILE130      0.2260
    103  O        -23.6770  -15.4200  -28.0360 O.2   130  ILE130     -0.2867
    104  CB       -20.7800  -15.8390  -27.4910 C.3   130  ILE130      0.0252
    105  CG1      -19.4270  -16.5000  -27.7140 C.3   130  ILE130      0.0019
    106  CG2      -20.7630  -14.8990  -26.2410 C.3   130  ILE130      0.0019
    107  CD1      -18.9800  -17.2150  -26.6170 C.3   130  ILE130      0.0001
@<TRIPOS>BOND
     1    26    25    2
     2    25    24    1
     3    24    23    1
     4    24    27    1
     5    20    19    2
     6    52    53    1
     7    52    51    1
     8    53    54    1
     9    28    27    1
    10    28    29    1
    11    54    55    2
    12    57    55    1
    13    31    29   ar
    14    41    40    1
    15    41    42    2
    16    47    48    1
    17    55    56    1
    18    19    18    1
    19    29    30   ar
    20    40    43    1
    21    40    39    1
    22    43    44    1
    23    48    51    1
    24    48    49    1
    25    46    44   ar
    26    44    45   ar
    27    21    18    1
    28    21    22    1
    29    18    17    1
    30    49    50    2
    31    49    58   am
    32    12    11    2
    33    17    11   am
    34    58    59    1
    35    11    10    1
    36    93    94    1
    37    37    36    1
    38     9    10    1
    39    59    60    1
    40    10    13    1
    41    96    95    2
    42    61    60    2
    43    34    33    1
    44    34    35    2
    45    60    62   am
    46    94    95    1
    47    94    97    1
    48    33    36    1
    49    33    32    1
    50    98    97    1
    51     4     3    2
    52    36    38    1
    53    97    99    1
    54    13    14    1
    55     3     2    1
    56    62    63    1
    57    15    14    2
    58    14    16   am
    59    75    76    1
    60    75    74    1
    61    76    70    1
    62    63    64    1
    63    63    66    1
    64     2     1    1
    65     2     5    1
    66     7     5    1
    67    64    70   am
    68    64    65    2
    69    70    71    1
    70    67    66    1
    71    67    69    1
    72     5     6    1
    73    74    71    1
    74    71    72    1
    75   100   101    1
    76    66    68    1
    77   103   102    2
    78   105   104    1
    79   105   107    1
    80   104   101    1
    81   104   106    1
    82   101   102    1
    83     6     8    1
    84    72    73    1
    85    84    82    1
    86    83    81    1
    87    82    81    1
    88    81    78    1
    89    92    90    1
    90    91    90    1
    91    90    89    1
    92    78    79    1
    93    78    77    1
    94    79    80    2
    95    79    85   am
    96    85    86    1
    97    89    86    1
    98    86    87    1
    99    87    88    2
