@<TRIPOS>MOLECULE
tmp/5cplB00.pdb
 147 143 0 0 0
SMALL
GASTEIGER

@<TRIPOS>ATOM
      1  N         -9.7380   57.2430  -21.1980 N.3    22  PRO22      -0.2116
      2  CA        -8.8080   56.6710  -22.1760 C.3    22  PRO22       0.1372
      3  C         -7.6690   55.9170  -21.5000 C.2    22  PRO22       0.2244
      4  O         -7.0790   56.4290  -20.5350 O.2    22  PRO22      -0.2868
      5  CB        -8.2940   57.9030  -22.9300 C.3    22  PRO22       0.0268
      6  CG        -8.5140   59.0630  -21.9520 C.3    22  PRO22       0.0207
      7  CD        -9.7690   58.7160  -21.2290 C.3    22  PRO22       0.0892
      8  N         -4.3620   53.7650  -22.9590 N.3    24  CYS24      -0.1235
      9  CA        -3.4780   53.1880  -23.9600 C.3    24  CYS24       0.1677
     10  C         -3.2760   51.7080  -23.7340 C.2    24  CYS24       0.2270
     11  O         -2.9970   51.2790  -22.6220 O.2    24  CYS24      -0.2867
     12  CB        -2.1170   53.8650  -23.9330 C.3    24  CYS24       0.0956
     13  SG        -2.1010   55.5130  -24.6610 S.3    24  CYS24      -0.0801
     14  N         -1.1850   49.9270  -26.1560 N.3    26  TYR26      -0.1241
     15  CA         0.1240   49.6500  -26.7590 C.3    26  TYR26       0.1605
     16  C          0.1080   48.3770  -27.6010 C.2    26  TYR26       0.2264
     17  O          1.1380   47.7020  -27.7240 O.2    26  TYR26      -0.2867
     18  CB         1.2110   49.5610  -25.6750 C.3    26  TYR26       0.0534
     19  CG         1.1800   50.7230  -24.7000 C.ar   26  TYR26      -0.0201
     20  CD1        1.8670   51.9070  -24.9570 C.ar   26  TYR26      -0.0009
     21  CD2        0.4490   50.6450  -23.5210 C.ar   26  TYR26      -0.0009
     22  CE1        1.8280   52.9580  -24.0870 C.ar   26  TYR26       0.0417
     23  CE2        0.3980   51.6950  -22.6420 C.ar   26  TYR26       0.0417
     24  CZ         1.0910   52.8560  -22.9170 C.ar   26  TYR26       0.1957
     25  OH         1.0620   53.9130  -22.0400 O.3    26  TYR26      -0.2866
     26  N         -5.7630   57.2950  -25.9950 N.3    56  ALA56      -0.1245
     27  CA        -5.0140   58.3140  -26.7400 C.3    56  ALA56       0.1562
     28  C         -4.6530   57.7910  -28.1110 C.2    56  ALA56       0.2260
     29  O         -3.8890   56.8340  -28.2460 O.2    56  ALA56      -0.2867
     30  CB        -3.7490   58.7110  -25.9840 C.3    56  ALA56       0.0290
     31  N          2.8710   57.7760  -28.5590 N.3    65  ILE65      -0.1245
     32  CA         3.8360   57.6630  -27.4590 C.3    65  ILE65       0.1561
     33  C          4.8560   56.5970  -27.8350 C.2    65  ILE65       0.2260
     34  O          6.0610   56.8030  -27.6730 O.2    65  ILE65      -0.2867
     35  CB         3.1800   57.2960  -26.1210 C.3    65  ILE65       0.0252
     36  CG1        2.1260   58.3240  -25.7390 C.3    65  ILE65       0.0019
     37  CG2        4.2320   57.2400  -25.0110 C.3    65  ILE65       0.0019
     38  CD1        1.1840   57.8700  -24.6560 C.3    65  ILE65       0.0001
     39  N        -10.2200   59.8660  -27.4240 N.3    98  GLN98      -0.1245
     40  CA        -9.2500   60.8880  -27.1010 C.3    98  GLN98       0.1566
     41  C         -8.2420   60.9820  -28.2630 C.2    98  GLN98       0.2260
     42  O         -7.5950   59.9750  -28.6040 O.2    98  GLN98      -0.2867
     43  CB        -8.5400   60.5580  -25.7820 C.3    98  GLN98       0.0367
     44  CG        -7.6160   61.6650  -25.3270 C.3    98  GLN98       0.0905
     45  CD        -6.7300   61.2480  -24.2020 C.2    98  GLN98       0.2608
     46  OE1       -5.9300   60.3220  -24.3320 O.2    98  GLN98      -0.2717
     47  NE2       -6.8590   61.9360  -23.0750 N.am   98  GLN98      -0.0878
     48  N          5.3410   50.2850  -21.9090 N.3   111  PRO111     -0.2116
     49  CA         5.6500   50.3230  -20.4720 C.3   111  PRO111      0.1372
     50  C          6.3140   49.0650  -19.9200 C.2   111  PRO111      0.2244
     51  O          7.1510   49.1940  -19.0320 O.2   111  PRO111     -0.2868
     52  CB         4.2760   50.5280  -19.8300 C.3   111  PRO111      0.0268
     53  CG         3.4750   51.2620  -20.9320 C.3   111  PRO111      0.0207
     54  CD         3.9370   50.6630  -22.1920 C.3   111  PRO111      0.0892
     55  N         -6.5100   65.7480  -26.0880 N.3   177  HIS177     -0.1241
     56  CA        -5.5600   65.4150  -25.0390 C.3   177  HIS177      0.1621
     57  C         -4.5610   66.5350  -24.8070 C.2   177  HIS177      0.2264
     58  O         -3.4740   66.5690  -25.4110 O.2   177  HIS177     -0.2867
     59  CB        -4.8070   64.1290  -25.3630 C.3   177  HIS177      0.0745
     60  CG        -4.1490   63.5220  -24.1760 C.ar  177  HIS177      0.0817
     61  ND1       -4.0890   64.1630  -22.9540 N.ar  177  HIS177     -0.2268
     62  CD2       -3.5570   62.3170  -24.0080 C.ar  177  HIS177      0.1154
     63  CE1       -3.4820   63.3720  -22.0840 C.ar  177  HIS177      0.1986
     64  NE2       -3.1600   62.2430  -22.6960 N.ar  177  HIS177     -0.2212
     65  N         -1.0330   65.6540  -19.2420 N.3   180  HIS180     -0.1241
     66  CA        -0.0430   64.5970  -18.9870 C.3   180  HIS180      0.1621
     67  C          1.3070   64.8360  -19.6830 C.2   180  HIS180      0.2264
     68  O          2.0850   63.9100  -19.9110 O.2   180  HIS180     -0.2867
     69  CB        -0.6380   63.2220  -19.3620 C.3   180  HIS180      0.0745
     70  CG        -1.8780   62.8770  -18.6030 C.ar  180  HIS180      0.0817
     71  ND1       -2.6860   61.8140  -18.9400 N.ar  180  HIS180     -0.2268
     72  CD2       -2.4590   63.4660  -17.5330 C.ar  180  HIS180      0.1154
     73  CE1       -3.7100   61.7600  -18.1040 C.ar  180  HIS180      0.1986
     74  NE2       -3.5970   62.7550  -17.2410 N.ar  180  HIS180     -0.2212
     75  N          2.1390   65.9050  -22.5950 N.3   182  TYR182     -0.1241
     76  CA         2.2560   65.6940  -24.0190 C.3   182  TYR182      0.1605
     77  C          2.1700   67.0610  -24.7050 C.2   182  TYR182      0.2264
     78  O          2.3510   68.0970  -24.0690 O.2   182  TYR182     -0.2867
     79  CB         1.2010   64.6930  -24.4710 C.3   182  TYR182      0.0534
     80  CG         1.3270   63.3640  -23.7600 C.ar  182  TYR182     -0.0201
     81  CD1        2.4820   62.6060  -23.8670 C.ar  182  TYR182     -0.0009
     82  CD2        0.2920   62.8650  -22.9830 C.ar  182  TYR182     -0.0009
     83  CE1        2.6100   61.3840  -23.2240 C.ar  182  TYR182      0.0417
     84  CE2        0.4220   61.6670  -22.3230 C.ar  182  TYR182      0.0417
     85  CZ         1.5700   60.9310  -22.4440 C.ar  182  TYR182      0.1957
     86  OH         1.6790   59.7480  -21.7740 O.3   182  TYR182     -0.2866
     87  N         -9.0150   66.9640  -22.0550 N.3   230  ARG230     -0.1245
     88  CA        -8.3260   66.6260  -20.8100 C.3   230  ARG230      0.1563
     89  C         -7.1940   67.6240  -20.6190 C.2   230  ARG230      0.2260
     90  O         -6.4840   67.9440  -21.5750 O.2   230  ARG230     -0.2867
     91  CB        -7.7910   65.1920  -20.8210 C.3   230  ARG230      0.0307
     92  CG        -7.5320   64.6760  -19.4160 C.3   230  ARG230      0.0489
     93  CD        -7.3470   63.1600  -19.3750 C.3   230  ARG230      0.2205
     94  NE        -7.7310   62.6440  -18.0620 N.pl3 230  ARG230     -0.0865
     95  CZ        -7.6250   61.3730  -17.6930 C.cat 230  ARG230      0.5346
     96  NH1       -7.0690   60.4820  -18.4860 N.pl3 230  ARG230      0.1354
     97  NH2       -8.0610   60.9950  -16.4920 N.pl3 230  ARG230      0.1354
     98  N          1.9380   66.3830  -15.2190 N.3   268  PHE268     -0.1241
     99  CA         3.0610   65.4780  -15.5270 C.3   268  PHE268      0.1605
    100  C          4.0300   66.0930  -16.5370 C.2   268  PHE268      0.2264
    101  O          4.5980   65.3780  -17.3610 O.2   268  PHE268     -0.2867
    102  CB         2.5940   64.1180  -16.0850 C.3   268  PHE268      0.0534
    103  CG         1.5690   63.4070  -15.2390 C.ar  268  PHE268     -0.0203
    104  CD1        1.5970   63.4790  -13.8590 C.ar  268  PHE268     -0.0042
    105  CD2        0.5690   62.6670  -15.8460 C.ar  268  PHE268     -0.0042
    106  CE1        0.6380   62.8210  -13.1020 C.ar  268  PHE268     -0.0003
    107  CE2       -0.3840   62.0040  -15.0910 C.ar  268  PHE268     -0.0003
    108  CZ        -0.3490   62.0800  -13.7270 C.ar  268  PHE268     -0.0000
    109  N         -0.4730   61.2710   -4.4490 N.3   277  TRP277     -0.1241
    110  CA        -1.3560   60.1860   -4.8280 C.3   277  TRP277      0.1605
    111  C         -2.1400   59.6590   -3.6460 C.2   277  TRP277      0.2264
    112  O         -1.5900   59.4390   -2.5580 O.2   277  TRP277     -0.2867
    113  CB        -0.5790   59.0310   -5.4320 C.3   277  TRP277      0.0550
    114  CG         0.3230   59.4120   -6.5280 C.ar  277  TRP277      0.0003
    115  CD1        1.6730   59.5430   -6.4610 C.ar  277  TRP277      0.0946
    116  CD2       -0.0490   59.7090   -7.8750 C.ar  277  TRP277      0.0152
    117  NE1        2.1720   59.9120   -7.6870 N.ar  277  TRP277     -0.2442
    118  CE2        1.1330   60.0110   -8.5740 C.ar  277  TRP277      0.0810
    119  CE3       -1.2670   59.7490   -8.5570 C.ar  277  TRP277      0.0012
    120  CZ2        1.1330   60.3510   -9.9260 C.ar  277  TRP277      0.0191
    121  CZ3       -1.2590   60.0810   -9.9070 C.ar  277  TRP277      0.0001
    122  CH2       -0.0720   60.3840  -10.5650 C.ar  277  TRP277      0.0015
    123  N         -8.4190   58.6640  -10.8450 N.3   301  TRP301     -0.1241
    124  CA        -7.3700   58.2230   -9.9080 C.3   301  TRP301      0.1605
    125  C         -7.9720   57.7970   -8.6070 C.2   301  TRP301      0.2264
    126  O         -8.2250   58.5780   -7.6730 O.2   301  TRP301     -0.2867
    127  CB        -6.2780   59.2330   -9.5820 C.3   301  TRP301      0.0550
    128  CG        -5.2650   58.5030   -8.7000 C.ar  301  TRP301      0.0003
    129  CD1       -5.3370   58.2950   -7.3340 C.ar  301  TRP301      0.0946
    130  CD2       -4.0800   57.8230   -9.1340 C.ar  301  TRP301      0.0152
    131  NE1       -4.2680   57.5530   -6.9110 N.ar  301  TRP301     -0.2442
    132  CE2       -3.4820   57.2460   -7.9930 C.ar  301  TRP301      0.0810
    133  CE3       -3.4650   57.6510  -10.3750 C.ar  301  TRP301      0.0012
    134  CZ2       -2.2920   56.5230   -8.0610 C.ar  301  TRP301      0.0191
    135  CZ3       -2.2820   56.9300  -10.4370 C.ar  301  TRP301      0.0001
    136  CH2       -1.7130   56.3740   -9.2960 C.ar  301  TRP301      0.0015
    137  N         -8.2600   51.6960  -14.1030 N.3   325  ARG325     -0.1245
    138  CA        -7.6120   50.4220  -13.8130 C.3   325  ARG325      0.1563
    139  C         -8.5890   49.3780  -13.2760 C.2   325  ARG325      0.2260
    140  O         -8.4300   48.2130  -13.5850 O.2   325  ARG325     -0.2867
    141  CB        -6.4290   50.6160  -12.8570 C.3   325  ARG325      0.0307
    142  CG        -5.2330   51.1700  -13.6280 C.3   325  ARG325      0.0489
    143  CD        -4.1510   51.7170  -12.7250 C.3   325  ARG325      0.2205
    144  NE        -4.6160   52.8700  -11.9660 N.pl3 325  ARG325     -0.0865
    145  CZ        -3.8740   53.5570  -11.1060 C.cat 325  ARG325      0.5346
    146  NH1       -2.6060   53.2240  -10.8910 N.pl3 325  ARG325      0.1354
    147  NH2       -4.4040   54.5880  -10.4660 N.pl3 325  ARG325      0.1354
@<TRIPOS>BOND
     1    42    41    2
     2    31    32    1
     3    41    40    1
     4    29    28    2
     5    28    27    1
     6    33    34    2
     7    33    32    1
     8    17    16    2
     9    16    15    1
    10    32    35    1
    11    39    40    1
    12    40    43    1
    13    15    14    1
    14    15    18    1
    15    27    26    1
    16    27    30    1
    17    35    36    1
    18    35    37    1
    19    55    56    1
    20    43    44    1
    21    36    38    1
    22    18    19    1
    23    58    57    2
    24    59    56    1
    25    59    60    1
    26    44    45    1
    27    56    57    1
    28    20    19   ar
    29    20    22   ar
    30    77    78    2
    31    77    76    1
    32    19    21   ar
    33    13    12    1
    34    79    76    1
    35    79    80    1
    36    46    45    2
    37    45    47   am
    38    60    62   ar
    39    60    61   ar
    40    22    24   ar
    41    76    75    1
    42    62    64   ar
    43     9    12    1
    44     9    10    1
    45     9     8    1
    46    81    80   ar
    47    81    83   ar
    48    80    82   ar
    49    10    11    2
    50    21    23   ar
    51    83    85   ar
    52    82    84   ar
    53    61    63   ar
    54     5     2    1
    55     5     6    1
    56    24    23   ar
    57    24    25    1
    58    64    63   ar
    59    85    84   ar
    60    85    86    1
    61    54    48    1
    62    54    53    1
    63     2     3    1
    64     2     1    1
    65    87    88    1
    66     6     7    1
    67    48    49    1
    68    90    89    2
    69     3     4    2
    70     7     1    1
    71    53    52    1
    72    91    88    1
    73    91    92    1
    74    88    89    1
    75    49    50    1
    76    49    52    1
    77    50    51    2
    78    68    67    2
    79    67    66    1
    80    92    93    1
    81    93    94    1
    82    69    66    1
    83    69    70    1
    84    65    66    1
    85    71    70   ar
    86    71    73   ar
    87    70    72   ar
    88    96    95    1
    89    73    74   ar
    90    94    95    2
    91    95    97    1
    92    72    74   ar
    93   101   100    2
    94   100    99    1
    95   102    99    1
    96   102   103    1
    97   105   103   ar
    98   105   107   ar
    99    99    98    1
   100   103   104   ar
   101   107   108   ar
   102   137   138    1
   103   104   106   ar
   104   138   139    1
   105   138   141    1
   106   108   106   ar
   107   142   141    1
   108   142   143    1
   109   140   139    2
   110   143   144    1
   111   144   145    2
   112   145   146    1
   113   145   147    1
   114   123   124    1
   115   122   120   ar
   116   122   121   ar
   117   135   133   ar
   118   135   136   ar
   119   133   130   ar
   120   120   118   ar
   121   124   127    1
   122   124   125    1
   123   121   119   ar
   124   127   128    1
   125   136   134   ar
   126   130   128   ar
   127   130   132   ar
   128   128   129   ar
   129   125   126    2
   130   118   116   ar
   131   118   117   ar
   132   119   116   ar
   133   134   132   ar
   134   132   131   ar
   135   116   114   ar
   136   117   115   ar
   137   129   131   ar
   138   114   115   ar
   139   114   113    1
   140   113   110    1
   141   110   109    1
   142   110   111    1
   143   111   112    2
