@<TRIPOS>MOLECULE
tmp/5cpmA00.pdb
 165 160 0 0 0
SMALL
GASTEIGER

@<TRIPOS>ATOM
      1  N        -38.4450  110.7130  179.4870 N.3    22  PRO22      -0.2116
      2  CA       -37.5420  111.2830  180.4910 C.3    22  PRO22       0.1372
      3  C        -36.3800  112.0270  179.8370 C.2    22  PRO22       0.2244
      4  O        -35.7610  111.4950  178.9100 O.2    22  PRO22      -0.2868
      5  CB       -37.0570  110.0420  181.2630 C.3    22  PRO22       0.0268
      6  CG       -37.2360  108.8840  180.2730 C.3    22  PRO22       0.0207
      7  CD       -38.4960  109.2370  179.5440 C.3    22  PRO22       0.0892
      8  N        -33.0760  114.1930  181.3110 N.3    24  CYS24      -0.1235
      9  CA       -32.1970  114.7770  182.3150 C.3    24  CYS24       0.1677
     10  C        -31.9970  116.2690  182.0920 C.2    24  CYS24       0.2270
     11  O        -31.7640  116.7120  180.9610 O.2    24  CYS24      -0.2867
     12  CB       -30.8470  114.0750  182.3000 C.3    24  CYS24       0.0956
     13  SG       -30.8920  112.4410  183.0600 S.3    24  CYS24      -0.0801
     14  N        -30.0140  118.0390  184.5390 N.3    26  TYR26      -0.1241
     15  CA       -28.7150  118.2750  185.1700 C.3    26  TYR26       0.1605
     16  C        -28.7110  119.5550  186.0100 C.2    26  TYR26       0.2264
     17  O        -27.6850  120.2170  186.1220 O.2    26  TYR26      -0.2867
     18  CB       -27.5990  118.3370  184.1200 C.3    26  TYR26       0.0534
     19  CG       -27.6090  117.1780  183.1430 C.ar   26  TYR26      -0.0201
     20  CD1      -28.3110  117.2650  181.9460 C.ar   26  TYR26      -0.0009
     21  CD2      -26.9270  116.0000  183.4170 C.ar   26  TYR26      -0.0009
     22  CE1      -28.3390  116.2100  181.0440 C.ar   26  TYR26       0.0417
     23  CE2      -26.9450  114.9290  182.5080 C.ar   26  TYR26       0.0417
     24  CZ       -27.6570  115.0430  181.3290 C.ar   26  TYR26       0.1957
     25  OH       -27.6840  114.0110  180.4120 O.3    26  TYR26      -0.2866
     26  N        -34.5710  110.6990  184.3370 N.3    56  ALA56      -0.1245
     27  CA       -33.8530  109.6790  185.1120 C.3    56  ALA56       0.1562
     28  C        -33.5150  110.1810  186.5070 C.2    56  ALA56       0.2260
     29  O        -32.7480  111.1310  186.6760 O.2    56  ALA56      -0.2867
     30  CB       -32.5900  109.2550  184.3870 C.3    56  ALA56       0.0290
     31  N        -26.0270  110.1880  187.1300 N.3    65  ILE65      -0.1245
     32  CA       -25.0530  110.2940  186.0480 C.3    65  ILE65       0.1561
     33  C        -24.0370  111.3510  186.4410 C.2    65  ILE65       0.2260
     34  O        -22.8350  111.1440  186.2990 O.2    65  ILE65      -0.2867
     35  CB       -25.6940  110.6490  184.6900 C.3    65  ILE65       0.0252
     36  CG1      -26.7770  109.6430  184.3190 C.3    65  ILE65       0.0019
     37  CG2      -24.6180  110.7290  183.6110 C.3    65  ILE65       0.0019
     38  CD1      -27.6060  110.0680  183.1310 C.3    65  ILE65       0.0001
     39  N        -39.0520  108.2150  185.7200 N.3    98  GLN98      -0.1245
     40  CA       -38.0880  107.1710  185.4330 C.3    98  GLN98       0.1566
     41  C        -37.1010  107.0500  186.5870 C.2    98  GLN98       0.2260
     42  O        -36.4010  108.0080  186.9150 O.2    98  GLN98      -0.2867
     43  CB       -37.3480  107.4570  184.1220 C.3    98  GLN98       0.0367
     44  CG       -36.4310  106.3210  183.6920 C.3    98  GLN98       0.0905
     45  CD       -35.5290  106.7270  182.5570 C.2    98  GLN98       0.2608
     46  OE1      -34.7440  107.6650  182.6870 O.2    98  GLN98      -0.2717
     47  NE2      -35.6520  106.0470  181.4210 N.am   98  GLN98      -0.0878
     48  N        -23.3910  117.6420  180.5050 N.3   111  PRO111     -0.2116
     49  CA       -23.0370  117.5760  179.0740 C.3   111  PRO111      0.1372
     50  C        -22.3680  118.8390  178.5170 C.2   111  PRO111      0.2244
     51  O        -21.5020  118.7240  177.6470 O.2   111  PRO111     -0.2868
     52  CB       -24.3900  117.3200  178.3960 C.3   111  PRO111      0.0268
     53  CG       -25.2020  116.6180  179.4610 C.3   111  PRO111      0.0207
     54  CD       -24.8080  117.3100  180.7360 C.3   111  PRO111      0.0892
     55  N        -18.9920  116.5740  179.5400 N.3   115  ASP115     -0.1239
     56  CA       -19.7540  115.3620  179.2350 C.3   115  ASP115      0.1674
     57  C        -18.9400  114.0870  179.4870 C.2   115  ASP115      0.2266
     58  O        -19.3460  112.9990  179.0830 O.2   115  ASP115     -0.2867
     59  CB       -20.2500  115.3940  177.7770 C.3   115  ASP115      0.1410
     60  CG       -21.4440  114.4840  177.5430 C.2   115  ASP115      0.3668
     61  OD1      -22.3080  114.3830  178.4370 O.co2 115  ASP115     -0.2456
     62  OD2      -21.5240  113.8700  176.4550 O.co2 115  ASP115     -0.2456
     63  N        -14.8380  108.6400  176.2160 N.3   139  HIS139     -0.1241
     64  CA       -14.8990  109.7680  177.1470 C.3   139  HIS139      0.1621
     65  C        -15.3480  109.3390  178.5460 C.2   139  HIS139      0.2264
     66  O        -15.4510  110.1670  179.4620 O.2   139  HIS139     -0.2867
     67  CB       -15.8440  110.8480  176.6050 C.3   139  HIS139      0.0745
     68  CG       -17.2550  110.3760  176.4270 C.ar  139  HIS139      0.0817
     69  ND1      -17.6140  109.4330  175.4850 N.ar  139  HIS139     -0.2268
     70  CD2      -18.3920  110.7010  177.0870 C.ar  139  HIS139      0.1154
     71  CE1      -18.9130  109.2050  175.5690 C.ar  139  HIS139      0.1986
     72  NE2      -19.4080  109.9590  176.5350 N.ar  139  HIS139     -0.2212
     73  N        -35.3970  102.2490  184.4990 N.3   177  HIS177     -0.1241
     74  CA       -34.4100  102.5770  183.4650 C.3   177  HIS177      0.1621
     75  C        -33.4240  101.4390  183.2360 C.2   177  HIS177      0.2264
     76  O        -32.3520  101.3910  183.8430 O.2   177  HIS177     -0.2867
     77  CB       -33.6450  103.8540  183.8060 C.3   177  HIS177      0.0745
     78  CG       -32.9650  104.4650  182.6210 C.ar  177  HIS177      0.0817
     79  ND1      -32.8390  103.8000  181.4150 N.ar  177  HIS177     -0.2268
     80  CD2      -32.3990  105.6830  182.4410 C.ar  177  HIS177      0.1154
     81  CE1      -32.2210  104.5820  180.5490 C.ar  177  HIS177      0.1986
     82  NE2      -31.9420  105.7330  181.1460 N.ar  177  HIS177     -0.2212
     83  N        -29.7790  102.2290  177.7400 N.3   180  HIS180     -0.1241
     84  CA       -28.7890  103.2800  177.5070 C.3   180  HIS180      0.1621
     85  C        -27.4680  103.0380  178.2300 C.2   180  HIS180      0.2264
     86  O        -26.7180  103.9790  178.5120 O.2   180  HIS180     -0.2867
     87  CB       -29.3730  104.6590  177.8870 C.3   180  HIS180      0.0745
     88  CG       -30.6110  105.0190  177.1190 C.ar  180  HIS180      0.0817
     89  ND1      -31.3760  106.1350  177.3990 N.ar  180  HIS180     -0.2268
     90  CD2      -31.2170  104.4040  176.0740 C.ar  180  HIS180      0.1154
     91  CE1      -32.3970  106.1910  176.5630 C.ar  180  HIS180      0.1986
     92  NE2      -32.3250  105.1500  175.7470 N.ar  180  HIS180     -0.2212
     93  N        -26.7000  102.0320  181.1910 N.3   182  TYR182     -0.1241
     94  CA       -26.6110  102.2690  182.6250 C.3   182  TYR182      0.1605
     95  C        -26.6900  100.9170  183.3410 C.2   182  TYR182      0.2264
     96  O        -26.4990   99.8890  182.6960 O.2   182  TYR182     -0.2867
     97  CB       -27.6910  103.2540  183.0620 C.3   182  TYR182      0.0534
     98  CG       -27.5540  104.5800  182.3300 C.ar  182  TYR182     -0.0201
     99  CD1      -26.3950  105.3450  182.4530 C.ar  182  TYR182     -0.0009
    100  CD2      -28.5590  105.0500  181.4910 C.ar  182  TYR182     -0.0009
    101  CE1      -26.2500  106.5560  181.7750 C.ar  182  TYR182      0.0417
    102  CE2      -28.4220  106.2630  180.8100 C.ar  182  TYR182      0.0417
    103  CZ       -27.2690  107.0020  180.9520 C.ar  182  TYR182      0.1957
    104  OH       -27.1380  108.1970  180.2660 O.3   182  TYR182     -0.2866
    105  N        -37.7960  100.9960  180.3940 N.3   230  ARG230     -0.1245
    106  CA       -37.0900  101.3250  179.1530 C.3   230  ARG230      0.1563
    107  C        -35.9370  100.3360  179.0020 C.2   230  ARG230      0.2260
    108  O        -35.2600  100.0160  179.9780 O.2   230  ARG230     -0.2867
    109  CB       -36.5780  102.7720  179.1620 C.3   230  ARG230      0.0307
    110  CG       -36.2150  103.2720  177.7660 C.3   230  ARG230      0.0489
    111  CD       -36.0720  104.7970  177.7130 C.3   230  ARG230      0.2205
    112  NE       -36.3880  105.2990  176.3740 N.pl3 230  ARG230     -0.0865
    113  CZ       -36.2750  106.5700  175.9920 C.cat 230  ARG230      0.5346
    114  NH1      -35.7970  107.4790  176.8260 N.pl3 230  ARG230      0.1354
    115  NH2      -36.6190  106.9200  174.7630 N.pl3 230  ARG230      0.1354
    116  N        -26.7560  101.4730  173.7920 N.3   268  PHE268     -0.1241
    117  CA       -25.6430  102.3920  174.0890 C.3   268  PHE268      0.1605
    118  C        -24.6850  101.8140  175.1340 C.2   268  PHE268      0.2264
    119  O        -24.1540  102.5460  175.9640 O.2   268  PHE268     -0.2867
    120  CB       -26.1450  103.7600  174.5950 C.3   268  PHE268      0.0534
    121  CG       -27.1140  104.4460  173.6800 C.ar  268  PHE268     -0.0203
    122  CD1      -26.8310  104.6220  172.3360 C.ar  268  PHE268     -0.0042
    123  CD2      -28.3110  104.9360  174.1760 C.ar  268  PHE268     -0.0042
    124  CE1      -27.7320  105.2620  171.5030 C.ar  268  PHE268     -0.0003
    125  CE2      -29.2170  105.5780  173.3500 C.ar  268  PHE268     -0.0003
    126  CZ       -28.9280  105.7390  172.0130 C.ar  268  PHE268     -0.0000
    127  N        -28.7720  106.5500  162.7430 N.3   277  TRP277     -0.1241
    128  CA       -29.6230  107.6720  163.1160 C.3   277  TRP277      0.1605
    129  C        -30.4260  108.1980  161.9250 C.2   277  TRP277      0.2264
    130  O        -29.8890  108.3750  160.8300 O.2   277  TRP277     -0.2867
    131  CB       -28.7810  108.8070  163.7040 C.3   277  TRP277      0.0550
    132  CG       -27.9150  108.4190  164.8800 C.ar  277  TRP277      0.0003
    133  CD1      -26.5600  108.2380  164.8760 C.ar  277  TRP277      0.0946
    134  CD2      -28.3460  108.1910  166.2280 C.ar  277  TRP277      0.0152
    135  NE1      -26.1240  107.9040  166.1370 N.ar  277  TRP277     -0.2442
    136  CE2      -27.2000  107.8680  166.9840 C.ar  277  TRP277      0.0810
    137  CE3      -29.5890  108.2240  166.8670 C.ar  277  TRP277      0.0012
    138  CZ2      -27.2610  107.5880  168.3530 C.ar  277  TRP277      0.0191
    139  CZ3      -29.6500  107.9350  168.2250 C.ar  277  TRP277      0.0001
    140  CH2      -28.4910  107.6270  168.9530 C.ar  277  TRP277      0.0015
    141  N        -36.9310  109.2730  169.0180 N.3   301  TRP301     -0.1241
    142  CA       -35.8860  109.7400  168.0770 C.3   301  TRP301      0.1605
    143  C        -36.4560  110.1930  166.7320 C.2   301  TRP301      0.2264
    144  O        -36.5960  109.4110  165.7820 O.2   301  TRP301     -0.2867
    145  CB       -34.7740  108.7020  167.8690 C.3   301  TRP301      0.0550
    146  CG       -33.7580  108.7520  168.9730 C.ar  301  TRP301      0.0003
    147  CD1      -32.7140  109.6250  169.0840 C.ar  301  TRP301      0.0946
    148  CD2      -33.7090  107.9200  170.1420 C.ar  301  TRP301      0.0152
    149  NE1      -32.0140  109.3850  170.2440 N.ar  301  TRP301     -0.2442
    150  CE2      -32.6030  108.3430  170.9110 C.ar  301  TRP301      0.0810
    151  CE3      -34.4900  106.8590  170.6120 C.ar  301  TRP301      0.0012
    152  CZ2      -32.2590  107.7410  172.1210 C.ar  301  TRP301      0.0191
    153  CZ3      -34.1480  106.2620  171.8110 C.ar  301  TRP301      0.0001
    154  CH2      -33.0380  106.7020  172.5490 C.ar  301  TRP301      0.0015
    155  N        -36.7870  116.2140  172.3470 N.3   325  ARG325     -0.1245
    156  CA       -36.1240  117.4850  172.0570 C.3   325  ARG325      0.1563
    157  C        -37.0810  118.5490  171.5020 C.2   325  ARG325      0.2260
    158  O        -36.9180  119.7330  171.8020 O.2   325  ARG325     -0.2867
    159  CB       -34.9540  117.2630  171.0910 C.3   325  ARG325      0.0307
    160  CG       -33.7000  116.7500  171.8070 C.3   325  ARG325      0.0489
    161  CD       -32.6320  116.2100  170.8600 C.3   325  ARG325      0.2205
    162  NE       -33.1130  115.0290  170.1470 N.pl3 325  ARG325     -0.0865
    163  CZ       -32.4200  114.3940  169.2080 C.cat 325  ARG325      0.5346
    164  NH1      -31.2160  114.8300  168.8590 N.pl3 325  ARG325      0.1354
    165  NH2      -32.9380  113.3280  168.6050 N.pl3 325  ARG325      0.1354
@<TRIPOS>BOND
     1   130   129    2
     2   129   128    1
     3   127   128    1
     4   128   131    1
     5   131   132    1
     6   133   132   ar
     7   133   135   ar
     8   132   134   ar
     9   144   143    2
    10   135   136   ar
    11   134   137   ar
    12   134   136   ar
    13   143   142    1
    14   137   139   ar
    15   136   138   ar
    16   145   142    1
    17   145   146    1
    18   142   141    1
    19   139   140   ar
    20   138   140   ar
    21   165   163    1
    22   164   163    1
    23   146   147   ar
    24   146   148   ar
    25   147   149   ar
    26   163   162    2
    27   148   151   ar
    28   148   150   ar
    29   162   161    1
    30   149   150   ar
    31   151   153   ar
    32   161   160    1
    33   150   152   ar
    34   159   160    1
    35   159   156    1
    36   157   158    2
    37   157   156    1
    38   124   126   ar
    39   124   122   ar
    40   153   154   ar
    41   126   125   ar
    42   156   155    1
    43   152   154   ar
    44   122   121   ar
    45   125   123   ar
    46   121   123   ar
    47   121   120    1
    48   116   117    1
    49   117   120    1
    50   117   118    1
    51   115   113    1
    52   118   119    2
    53    69    71   ar
    54    69    68   ar
    55    71    72   ar
    56    92    90   ar
    57    92    91   ar
    58   113   112    2
    59   113   114    1
    60    90    88   ar
    61    63    64    1
    62   112   111    1
    63    68    67    1
    64    68    70   ar
    65    62    60   ar
    66    72    70   ar
    67    91    89   ar
    68    67    64    1
    69    88    89   ar
    70    88    87    1
    71    64    65    1
    72    84    83    1
    73    84    87    1
    74    84    85    1
    75    60    59    1
    76    60    61   ar
    77    51    50    2
    78   111   110    1
    79   110   109    1
    80    59    56    1
    81    85    86    2
    82    52    49    1
    83    52    53    1
    84    50    49    1
    85    65    66    2
    86     4     3    2
    87   107   106    1
    88   107   108    2
    89    49    48    1
    90    58    57    2
    91   106   109    1
    92   106   105    1
    93    56    57    1
    94    56    55    1
    95    53    54    1
    96     1     7    1
    97     1     2    1
    98     7     6    1
    99     3     2    1
   100   104   103    1
   101     6     5    1
   102    25    24    1
   103     2     5    1
   104    48    54    1
   105    81    82   ar
   106    81    79   ar
   107   102   103   ar
   108   102   100   ar
   109   103   101   ar
   110    11    10    2
   111    22    24   ar
   112    22    20   ar
   113    82    80   ar
   114    93    94    1
   115     8     9    1
   116    24    23   ar
   117    79    78   ar
   118    47    45   am
   119   100    98   ar
   120   101    99   ar
   121    20    19   ar
   122    10     9    1
   123    12     9    1
   124    12    13    1
   125    98    99   ar
   126    98    97    1
   127    80    78   ar
   128    23    21   ar
   129    45    46    2
   130    45    44    1
   131    78    77    1
   132    94    97    1
   133    94    95    1
   134    96    95    2
   135    38    36    1
   136    19    21   ar
   137    19    18    1
   138    75    74    1
   139    75    76    2
   140    74    77    1
   141    74    73    1
   142    37    35    1
   143    44    43    1
   144    18    15    1
   145    43    40    1
   146    36    35    1
   147    26    27    1
   148    30    27    1
   149    14    15    1
   150    35    32    1
   151    27    28    1
   152    15    16    1
   153    40    39    1
   154    40    41    1
   155    16    17    2
   156    32    33    1
   157    32    31    1
   158    34    33    2
   159    28    29    2
   160    41    42    2
