@<TRIPOS>MOLECULE
tmp/5cpnB00.pdb
 147 143 0 0 0
SMALL
GASTEIGER

@<TRIPOS>ATOM
      1  N         59.3380  178.1520  -47.8880 N.3    22  PRO22      -0.2116
      2  CA        58.9040  179.1570  -48.8520 C.3    22  PRO22       0.1372
      3  C         58.1170  178.5150  -49.9920 C.2    22  PRO22       0.2244
      4  O         58.5810  177.5190  -50.5680 O.2    22  PRO22      -0.2868
      5  CB        60.2370  179.7710  -49.3320 C.3    22  PRO22       0.0268
      6  CG        61.2690  178.7470  -49.0500 C.3    22  PRO22       0.0207
      7  CD        60.8060  178.0620  -47.7930 C.3    22  PRO22       0.0892
      8  N         56.0360  180.1620  -53.2200 N.3    24  CYS24      -0.1235
      9  CA        55.5280  181.1710  -54.1480 C.3    24  CYS24       0.1677
     10  C         54.0060  181.1090  -54.4040 C.2    24  CYS24       0.2270
     11  O         53.4490  180.0660  -54.7020 O.2    24  CYS24      -0.2867
     12  CB        56.2710  181.0330  -55.4810 C.3    24  CYS24       0.0956
     13  SG        57.9680  181.7720  -55.4720 S.3    24  CYS24      -0.0801
     14  N         52.4390  183.6530  -56.4240 N.3    26  TYR26      -0.1241
     15  CA        52.2640  184.2760  -57.7340 C.3    26  TYR26       0.1605
     16  C         51.0790  185.2480  -57.7630 C.2    26  TYR26       0.2264
     17  O         50.3850  185.3570  -58.7840 O.2    26  TYR26      -0.2867
     18  CB        52.0970  183.1960  -58.8160 C.3    26  TYR26       0.0534
     19  CG        53.1910  182.1540  -58.8030 C.ar   26  TYR26      -0.0201
     20  CD1       54.4050  182.3810  -59.4480 C.ar   26  TYR26      -0.0009
     21  CD2       53.0130  180.9510  -58.1320 C.ar   26  TYR26      -0.0009
     22  CE1       55.4100  181.4370  -59.4270 C.ar   26  TYR26       0.0417
     23  CE2       54.0020  180.0030  -58.1010 C.ar   26  TYR26       0.0417
     24  CZ        55.2170  180.2580  -58.7560 C.ar   26  TYR26       0.1957
     25  OH        56.2290  179.3410  -58.7430 O.3    26  TYR26      -0.2866
     26  N         59.8240  182.9610  -51.8610 N.3    56  ALA56      -0.1245
     27  CA        60.9150  183.6280  -52.5790 C.3    56  ALA56       0.1562
     28  C         60.5400  185.0440  -52.9560 C.2    56  ALA56       0.2260
     29  O         59.6550  185.2710  -53.7780 O.2    56  ALA56      -0.2867
     30  CB        61.2740  182.8650  -53.8110 C.3    56  ALA56       0.0290
     31  N         60.6520  185.4810  -60.6420 N.3    65  ILE65      -0.1245
     32  CA        60.3930  184.4020  -61.6050 C.3    65  ILE65       0.1561
     33  C         59.3060  184.8590  -62.5980 C.2    65  ILE65       0.2260
     34  O         59.4410  184.6900  -63.8160 O.2    65  ILE65      -0.2867
     35  CB        59.9730  183.1010  -60.8990 C.3    65  ILE65       0.0252
     36  CG1       60.9520  182.7830  -59.7690 C.3    65  ILE65       0.0019
     37  CG2       59.8680  181.9840  -61.8970 C.3    65  ILE65       0.0019
     38  CD1       60.4670  181.6980  -58.8510 C.3    65  ILE65       0.0001
     39  N         62.6400  184.1940  -47.3390 N.3    98  GLN98      -0.1245
     40  CA        63.6080  183.7810  -48.3310 C.3    98  GLN98       0.1566
     41  C         63.7710  184.9060  -49.3460 C.2    98  GLN98       0.2260
     42  O         62.7530  185.3090  -49.9700 O.2    98  GLN98      -0.2867
     43  CB        63.1230  182.5140  -49.0460 C.3    98  GLN98       0.0367
     44  CG        64.1440  181.9970  -50.0380 C.3    98  GLN98       0.0905
     45  CD        63.6400  180.8550  -50.8970 C.2    98  GLN98       0.2608
     46  OE1       62.7180  181.0170  -51.7060 O.2    98  GLN98      -0.2717
     47  NE2       64.2640  179.7020  -50.7480 N.am   98  GLN98      -0.0878
     48  N         52.6230  179.3750  -63.0580 N.3   111  PRO111     -0.2116
     49  CA        52.5730  177.9400  -63.3560 C.3   111  PRO111      0.1372
     50  C         51.2620  177.4760  -64.0240 C.2   111  PRO111      0.2244
     51  O         51.2890  176.5560  -64.8450 O.2   111  PRO111     -0.2868
     52  CB        52.7300  177.2880  -61.9700 C.3   111  PRO111      0.0268
     53  CG        53.4500  178.2910  -61.1450 C.3   111  PRO111      0.0207
     54  CD        53.0250  179.6400  -61.6590 C.3   111  PRO111      0.0892
     55  N         68.3360  182.2120  -51.0830 N.3   177  HIS177     -0.1241
     56  CA        67.8590  181.1760  -52.0190 C.3   177  HIS177      0.1621
     57  C         69.0050  180.8590  -52.9970 C.2   177  HIS177      0.2264
     58  O         69.1500  181.4990  -54.0450 O.2   177  HIS177     -0.2867
     59  CB        66.5950  181.6210  -52.7850 C.3   177  HIS177      0.0745
     60  CG        65.8860  180.5110  -53.4840 C.ar  177  HIS177      0.0817
     61  ND1       66.4150  179.2430  -53.5990 N.ar  177  HIS177     -0.2268
     62  CD2       64.6710  180.4710  -54.0870 C.ar  177  HIS177      0.1154
     63  CE1       65.5440  178.4660  -54.2290 C.ar  177  HIS177      0.1986
     64  NE2       64.4750  179.1850  -54.5290 N.ar  177  HIS177     -0.2212
     65  N         67.6830  175.4040  -56.4840 N.3   180  HIS180     -0.1241
     66  CA        66.6300  175.2200  -57.5030 C.3   180  HIS180      0.1621
     67  C         66.8960  175.8920  -58.8560 C.2   180  HIS180      0.2264
     68  O         65.9460  176.1610  -59.6180 O.2   180  HIS180     -0.2867
     69  CB        65.2760  175.6970  -56.9550 C.3   180  HIS180      0.0745
     70  CG        64.8750  175.0260  -55.6790 C.ar  180  HIS180      0.0817
     71  ND1       63.8140  175.4600  -54.9030 N.ar  180  HIS180     -0.2268
     72  CD2       65.3740  173.9320  -55.0530 C.ar  180  HIS180      0.1154
     73  CE1       63.6870  174.6630  -53.8540 C.ar  180  HIS180      0.1986
     74  NE2       64.6270  173.7300  -53.9180 N.ar  180  HIS180     -0.2212
     75  N         68.2660  178.7550  -59.7290 N.3   182  TYR182     -0.1241
     76  CA        68.1500  180.1920  -59.8580 C.3   182  TYR182      0.1605
     77  C         69.5680  180.7510  -59.7690 C.2   182  TYR182      0.2264
     78  O         70.5290  180.0010  -59.9720 O.2   182  TYR182     -0.2867
     79  CB        67.1810  180.7440  -58.8060 C.3   182  TYR182      0.0534
     80  CG        65.7780  180.1500  -58.9840 C.ar  182  TYR182     -0.0201
     81  CD1       65.0000  180.4450  -60.1140 C.ar  182  TYR182     -0.0009
     82  CD2       65.2450  179.2840  -58.0400 C.ar  182  TYR182     -0.0009
     83  CE1       63.7250  179.8970  -60.2780 C.ar  182  TYR182      0.0417
     84  CE2       63.9770  178.7230  -58.2000 C.ar  182  TYR182      0.0417
     85  CZ        63.2210  179.0300  -59.3190 C.ar  182  TYR182      0.1957
     86  OH        61.9650  178.4620  -59.4640 O.3   182  TYR182     -0.2866
     87  N         69.2590  178.0950  -48.6010 N.3   230  ARG230     -0.1245
     88  CA        68.8300  176.8350  -49.2320 C.3   230  ARG230      0.1563
     89  C         69.7660  176.5860  -50.3730 C.2   230  ARG230      0.2260
     90  O         70.0680  177.5100  -51.1210 O.2   230  ARG230     -0.2867
     91  CB        67.3780  176.8630  -49.7600 C.3   230  ARG230      0.0307
     92  CG        66.6390  175.6440  -49.2840 C.3   230  ARG230      0.0489
     93  CD        65.9710  174.7850  -50.2930 C.3   230  ARG230      0.2205
     94  NE        64.6150  175.2340  -50.4700 N.pl3 230  ARG230     -0.0865
     95  CZ        63.4640  174.5710  -50.2430 C.cat 230  ARG230      0.5346
     96  NH1       63.3110  173.3420  -49.7510 N.pl3 230  ARG230      0.1354
     97  NH2       62.3940  175.2260  -50.5310 N.pl3 230  ARG230      0.1354
     98  N         67.9830  171.4160  -59.5590 N.3   268  PHE268     -0.1241
     99  CA        67.0670  171.7970  -60.6600 C.3   268  PHE268      0.1605
    100  C         67.7840  172.7140  -61.6740 C.2   268  PHE268      0.2264
    101  O         67.1660  173.5900  -62.2820 O.2   268  PHE268     -0.2867
    102  CB        65.7880  172.5000  -60.1410 C.3   268  PHE268      0.0534
    103  CG        64.9240  171.6450  -59.2540 C.ar  268  PHE268     -0.0203
    104  CD1       64.6680  170.3250  -59.5630 C.ar  268  PHE268     -0.0042
    105  CD2       64.3730  172.1660  -58.0990 C.ar  268  PHE268     -0.0042
    106  CE1       63.8550  169.5490  -58.7360 C.ar  268  PHE268     -0.0003
    107  CE2       63.5600  171.3910  -57.2700 C.ar  268  PHE268     -0.0003
    108  CZ        63.2990  170.0940  -57.5900 C.ar  268  PHE268     -0.0000
    109  N         61.8300  160.9580  -57.1150 N.3   277  TRP277     -0.1241
    110  CA        60.7740  161.4360  -56.2390 C.3   277  TRP277      0.1605
    111  C         60.1390  160.3050  -55.4730 C.2   277  TRP277      0.2264
    112  O         59.8340  159.2600  -56.0390 O.2   277  TRP277     -0.2867
    113  CB        59.6920  162.1220  -57.0280 C.3   277  TRP277      0.0550
    114  CG        60.1320  163.1980  -57.9120 C.ar  277  TRP277      0.0003
    115  CD1       60.1640  163.1710  -59.2720 C.ar  277  TRP277      0.0946
    116  CD2       60.5760  164.5080  -57.5200 C.ar  277  TRP277      0.0152
    117  NE1       60.6080  164.3830  -59.7560 N.ar  277  TRP277     -0.2442
    118  CE2       60.8610  165.2190  -58.6980 C.ar  277  TRP277      0.0810
    119  CE3       60.7520  165.1430  -56.2870 C.ar  277  TRP277      0.0012
    120  CZ2       61.3110  166.5280  -58.6870 C.ar  277  TRP277      0.0191
    121  CZ3       61.2020  166.4460  -56.2750 C.ar  277  TRP277      0.0001
    122  CH2       61.4780  167.1280  -57.4700 C.ar  277  TRP277      0.0015
    123  N         60.2600  167.9320  -49.6360 N.3   301  TRP301     -0.1241
    124  CA        59.7340  166.8690  -50.4820 C.3   301  TRP301      0.1605
    125  C         59.4640  165.6160  -49.6940 C.2   301  TRP301      0.2264
    126  O         60.3580  164.8610  -49.2970 O.2   301  TRP301     -0.2867
    127  CB        60.6160  166.4950  -51.6700 C.3   301  TRP301      0.0550
    128  CG        59.7880  165.6090  -52.5980 C.ar  301  TRP301      0.0003
    129  CD1       59.6180  164.2530  -52.5030 C.ar  301  TRP301      0.0946
    130  CD2       58.9730  166.0340  -53.7050 C.ar  301  TRP301      0.0152
    131  NE1       58.7760  163.8120  -53.4890 N.ar  301  TRP301     -0.2442
    132  CE2       58.3630  164.8830  -54.2400 C.ar  301  TRP301      0.0810
    133  CE3       58.7160  167.2710  -54.3030 C.ar  301  TRP301      0.0012
    134  CZ2       57.5090  164.9310  -55.3480 C.ar  301  TRP301      0.0191
    135  CZ3       57.8690  167.3170  -55.4120 C.ar  301  TRP301      0.0001
    136  CH2       57.2730  166.1540  -55.9150 C.ar  301  TRP301      0.0015
    137  N         53.3300  171.4980  -49.3110 N.3   325  ARG325     -0.1245
    138  CA        52.0070  171.2900  -49.9540 C.3   325  ARG325      0.1563
    139  C         50.9180  170.8280  -48.9900 C.2   325  ARG325      0.2260
    140  O         49.7320  171.1110  -49.2180 O.2   325  ARG325     -0.2867
    141  CB        52.1450  170.3120  -51.1180 C.3   325  ARG325      0.0307
    142  CG        52.7390  171.0150  -52.3350 C.3   325  ARG325      0.0489
    143  CD        53.2430  170.0970  -53.4220 C.3   325  ARG325      0.2205
    144  NE        54.2920  169.2350  -52.9400 N.pl3 325  ARG325     -0.0865
    145  CZ        54.9710  168.3930  -53.7010 C.cat 325  ARG325      0.5346
    146  NH1       54.7020  168.3050  -55.0030 N.pl3 325  ARG325      0.1354
    147  NH2       55.9050  167.6290  -53.1350 N.pl3 325  ARG325      0.1354
@<TRIPOS>BOND
     1    51    50    2
     2    50    49    1
     3    34    33    2
     4    49    48    1
     5    49    52    1
     6    48    54    1
     7    33    32    1
     8   101   100    2
     9    52    53    1
    10    37    35    1
    11   100    99    1
    12    54    53    1
    13    32    35    1
    14    32    31    1
    15    35    36    1
    16    99   102    1
    17    99    98    1
    18    83    81   ar
    19    83    85   ar
    20   102   103    1
    21    81    80   ar
    22    78    77    2
    23    76    77    1
    24    76    75    1
    25    76    79    1
    26    36    38    1
    27   117   115   ar
    28   117   118   ar
    29    68    67    2
    30   104   103   ar
    31   104   106   ar
    32    86    85    1
    33    20    22   ar
    34    20    19   ar
    35    22    24   ar
    36    85    84   ar
    37   115   114   ar
    38   103   105   ar
    39    80    79    1
    40    80    82   ar
    41    67    66    1
    42    18    19    1
    43    18    15    1
    44    19    21   ar
    45    17    16    2
    46    24    25    1
    47    24    23   ar
    48   106   108   ar
    49   118   120   ar
    50   118   116   ar
    51   120   122   ar
    52    84    82   ar
    53    21    23   ar
    54   105   107   ar
    55   114   116   ar
    56   114   113    1
    57    16    15    1
    58    15    14    1
    59   108   107   ar
    60   116   119   ar
    61    66    69    1
    62    66    65    1
    63   122   121   ar
    64   109   110    1
    65   113   110    1
    66    69    70    1
    67   119   121   ar
    68   110   111    1
    69   112   111    2
    70   136   135   ar
    71   136   134   ar
    72    70    72   ar
    73    70    71   ar
    74    12    13    1
    75    12     9    1
    76   135   133   ar
    77   134   132   ar
    78    72    74   ar
    79   146   145    1
    80    71    73   ar
    81    11    10    2
    82    64    63   ar
    83    64    62   ar
    84    10     9    1
    85   133   130   ar
    86   132   130   ar
    87   132   131   ar
    88    63    61   ar
    89     9     8    1
    90    62    60   ar
    91    58    57    2
    92    74    73   ar
    93    30    27    1
    94    29    28    2
    95   130   128   ar
    96   145   147    1
    97   145   144    2
    98    61    60   ar
    99   131   129   ar
   100    60    59    1
   101   143   144    1
   102   143   142    1
   103    57    56    1
   104    28    27    1
   105    59    56    1
   106   128   129   ar
   107   128   127    1
   108    27    26    1
   109   142   141    1
   110    56    55    1
   111    46    45    2
   112   127   124    1
   113    90    89    2
   114   141   138    1
   115    45    47   am
   116    45    44    1
   117     4     3    2
   118    97    95    1
   119   124   125    1
   120   124   123    1
   121    94    93    1
   122    94    95    2
   123    89    88    1
   124    93    92    1
   125    95    96    1
   126    44    43    1
   127     3     2    1
   128    42    41    2
   129   138   137    1
   130   138   139    1
   131    91    92    1
   132    91    88    1
   133   125   126    2
   134    41    40    1
   135     5     6    1
   136     5     2    1
   137    88    87    1
   138   140   139    2
   139     6     7    1
   140    43    40    1
   141     2     1    1
   142    40    39    1
   143     1     7    1
