@<TRIPOS>MOLECULE
tmp/5cpoA00.pdb
 134 131 0 0 0
SMALL
GASTEIGER

@<TRIPOS>ATOM
      1  N        -19.1050   24.9240  -20.0120 N.3    22  PRO22      -0.2116
      2  CA       -20.0400   25.4100  -21.0250 C.3    22  PRO22       0.1372
      3  C        -21.1770   26.2220  -20.3880 C.2    22  PRO22       0.2244
      4  O        -21.7510   25.7800  -19.3940 O.2    22  PRO22      -0.2868
      5  CB       -20.5430   24.1030  -21.6930 C.3    22  PRO22       0.0268
      6  CG       -20.3570   23.0310  -20.6220 C.3    22  PRO22       0.0207
      7  CD       -19.0720   23.4360  -19.9470 C.3    22  PRO22       0.0892
      8  N        -24.4710   28.2260  -22.0500 N.3    24  CYS24      -0.1235
      9  CA       -25.3890   28.7470  -23.0750 C.3    24  CYS24       0.1677
     10  C        -25.6120   30.2380  -22.9440 C.2    24  CYS24       0.2270
     11  O        -25.8930   30.7330  -21.8470 O.2    24  CYS24      -0.2867
     12  CB       -26.7490   28.0660  -22.9810 C.3    24  CYS24       0.0956
     13  SG       -26.7510   26.3710  -23.5790 S.3    24  CYS24      -0.0801
     14  N        -27.6740   31.8140  -25.4570 N.3    26  TYR26      -0.1241
     15  CA       -28.9820   32.0160  -26.0950 C.3    26  TYR26       0.1605
     16  C        -29.0130   33.2330  -27.0460 C.2    26  TYR26       0.2264
     17  O        -30.0520   33.8790  -27.2130 O.2    26  TYR26      -0.2867
     18  CB       -30.0890   32.1470  -25.0360 C.3    26  TYR26       0.0534
     19  CG       -30.0680   31.0800  -23.9610 C.ar   26  TYR26      -0.0201
     20  CD1      -30.7440   29.8720  -24.1310 C.ar   26  TYR26      -0.0009
     21  CD2      -29.3790   31.2780  -22.7660 C.ar   26  TYR26      -0.0009
     22  CE1      -30.7240   28.8980  -23.1480 C.ar   26  TYR26       0.0417
     23  CE2      -29.3520   30.3090  -21.8030 C.ar   26  TYR26       0.0417
     24  CZ       -30.0320   29.1250  -21.9980 C.ar   26  TYR26       0.1957
     25  OH       -29.9840   28.1630  -21.0400 O.3    26  TYR26      -0.2866
     26  N        -23.1040   24.4690  -24.7690 N.3    56  ALA56      -0.1245
     27  CA       -23.8450   23.3990  -25.4340 C.3    56  ALA56       0.1562
     28  C        -24.1970   23.7890  -26.8710 C.2    56  ALA56       0.2260
     29  O        -24.9390   24.7510  -27.1190 O.2    56  ALA56      -0.2867
     30  CB       -25.1050   23.0530  -24.6600 C.3    56  ALA56       0.0290
     31  N        -31.7420   23.6860  -27.2560 N.3    65  ILE65      -0.1245
     32  CA       -32.6990   23.8900  -26.1640 C.3    65  ILE65       0.1561
     33  C        -33.7290   24.9290  -26.6180 C.2    65  ILE65       0.2260
     34  O        -34.9320   24.7460  -26.4280 O.2    65  ILE65      -0.2867
     35  CB       -32.0160   24.3560  -24.8400 C.3    65  ILE65       0.0252
     36  CG1      -30.9100   23.3990  -24.3970 C.3    65  ILE65       0.0019
     37  CG2      -33.0580   24.4990  -23.7110 C.3    65  ILE65       0.0019
     38  CD1      -29.9900   24.0040  -23.3430 C.3    65  ILE65       0.0001
     39  N        -18.5950   21.7960  -25.9920 N.3    98  GLN98      -0.1245
     40  CA       -19.5860   20.8100  -25.6090 C.3    98  GLN98       0.1566
     41  C        -20.6190   20.5990  -26.7260 C.2    98  GLN98       0.2260
     42  O        -21.3020   21.5600  -27.1300 O.2    98  GLN98      -0.2867
     43  CB       -20.2860   21.2440  -24.3240 C.3    98  GLN98       0.0367
     44  CG       -21.2430   20.1930  -23.7900 C.3    98  GLN98       0.0905
     45  CD       -22.1110   20.7120  -22.6690 C.2    98  GLN98       0.2608
     46  OE1      -22.8830   21.6650  -22.8530 O.2    98  GLN98      -0.2717
     47  NE2      -21.9940   20.0930  -21.4920 N.am   98  GLN98      -0.0878
     48  N        -36.1940   18.2190  -23.4440 N.3   105  LYS105     -0.1245
     49  CA       -36.1540   19.5800  -22.9080 C.3   105  LYS105      0.1561
     50  C        -35.9490   20.6130  -24.0110 C.2   105  LYS105      0.2260
     51  O        -35.8260   21.8000  -23.7170 O.2   105  LYS105     -0.2867
     52  CB       -35.0630   19.6970  -21.8350 C.3   105  LYS105      0.0271
     53  CG       -35.3060   18.7720  -20.6440 C.3   105  LYS105      0.0035
     54  CD       -34.1850   18.7760  -19.6070 C.3   105  LYS105      0.0206
     55  CE       -34.5300   19.6190  -18.3960 C.3   105  LYS105      0.1093
     56  NZ       -33.6350   19.3410  -17.2160 N.3   105  LYS105     -0.1314
     57  N        -34.2670   31.7110  -21.1750 N.3   111  PRO111     -0.2116
     58  CA       -34.6020   31.7530  -19.7430 C.3   111  PRO111      0.1372
     59  C        -35.2730   33.0560  -19.2910 C.2   111  PRO111      0.2244
     60  O        -36.1350   33.0280  -18.4190 O.2   111  PRO111     -0.2868
     61  CB       -33.2440   31.5860  -19.0600 C.3   111  PRO111      0.0268
     62  CG       -32.4430   30.7760  -20.0380 C.3   111  PRO111      0.0207
     63  CD       -32.8680   31.2970  -21.3990 C.3   111  PRO111      0.0892
     64  N        -22.2700   16.0180  -24.1720 N.3   177  HIS177     -0.1241
     65  CA       -23.2220   16.4500  -23.1540 C.3   177  HIS177      0.1621
     66  C        -24.2070   15.3280  -22.8120 C.2   177  HIS177      0.2264
     67  O        -25.2530   15.2080  -23.4370 O.2   177  HIS177     -0.2867
     68  CB       -23.9870   17.7010  -23.6070 C.3   177  HIS177      0.0745
     69  CG       -24.6800   18.4080  -22.4960 C.ar  177  HIS177      0.0817
     70  ND1      -24.7900   17.8730  -21.2240 N.ar  177  HIS177     -0.2268
     71  CD2      -25.2660   19.6320  -22.4410 C.ar  177  HIS177      0.1154
     72  CE1      -25.4220   18.7350  -20.4480 C.ar  177  HIS177      0.1986
     73  NE2      -25.7060   19.8150  -21.1570 N.ar  177  HIS177     -0.2212
     74  N        -27.7530   16.7320  -17.3310 N.3   180  HIS180     -0.1241
     75  CA       -28.7790   17.7680  -17.1680 C.3   180  HIS180      0.1621
     76  C        -30.1180   17.4580  -17.8210 C.2   180  HIS180      0.2264
     77  O        -30.8890   18.3660  -18.1360 O.2   180  HIS180     -0.2867
     78  CB       -28.2210   19.1000  -17.6940 C.3   180  HIS180      0.0745
     79  CG       -26.9790   19.5270  -16.9780 C.ar  180  HIS180      0.0817
     80  ND1      -26.1870   20.5700  -17.4070 N.ar  180  HIS180     -0.2268
     81  CD2      -26.3850   19.0420  -15.8570 C.ar  180  HIS180      0.1154
     82  CE1      -25.1640   20.7120  -16.5830 C.ar  180  HIS180      0.1986
     83  NE2      -25.2590   19.7870  -15.6340 N.ar  180  HIS180     -0.2212
     84  N        -31.0090   16.1580  -20.6810 N.3   182  TYR182     -0.1241
     85  CA       -31.0880   16.2140  -22.1260 C.3   182  TYR182      0.1605
     86  C        -30.9870   14.7810  -22.6710 C.2   182  TYR182      0.2264
     87  O        -31.1550   13.8320  -21.8970 O.2   182  TYR182     -0.2867
     88  CB       -30.0000   17.1490  -22.6640 C.3   182  TYR182      0.0534
     89  CG       -30.1500   18.5430  -22.0760 C.ar  182  TYR182     -0.0201
     90  CD1      -31.3310   19.2660  -22.2550 C.ar  182  TYR182     -0.0009
     91  CD2      -29.1520   19.1110  -21.2950 C.ar  182  TYR182     -0.0009
     92  CE1      -31.4940   20.5450  -21.7110 C.ar  182  TYR182      0.0417
     93  CE2      -29.3130   20.3970  -20.7390 C.ar  182  TYR182      0.0417
     94  CZ       -30.4880   21.0920  -20.9460 C.ar  182  TYR182      0.1957
     95  OH       -30.6240   22.3470  -20.3800 O.3   182  TYR182     -0.2866
     96  N        -30.7540   16.2530  -13.2240 N.3   268  PHE268     -0.1241
     97  CA       -31.8900   17.1080  -13.6040 C.3   268  PHE268      0.1605
     98  C        -32.8590   16.4170  -14.5670 C.2   268  PHE268      0.2264
     99  O        -33.4280   17.0520  -15.4420 O.2   268  PHE268     -0.2867
    100  CB       -31.4020   18.4290  -14.2410 C.3   268  PHE268      0.0534
    101  CG       -30.5110   19.2440  -13.3480 C.ar  268  PHE268     -0.0203
    102  CD1      -30.9720   19.7410  -12.1440 C.ar  268  PHE268     -0.0042
    103  CD2      -29.2100   19.5310  -13.7240 C.ar  268  PHE268     -0.0042
    104  CE1      -30.1440   20.4940  -11.3290 C.ar  268  PHE268     -0.0003
    105  CE2      -28.3860   20.2800  -12.9030 C.ar  268  PHE268     -0.0003
    106  CZ       -28.8510   20.7580  -11.7120 C.ar  268  PHE268     -0.0000
    107  N        -28.3920   22.3270   -2.8920 N.3   277  TRP277     -0.1241
    108  CA       -27.5360   23.4100   -3.3640 C.3   277  TRP277      0.1605
    109  C        -26.7160   23.9990   -2.2340 C.2   277  TRP277      0.2264
    110  O        -27.2420   24.2790   -1.1630 O.2   277  TRP277     -0.2867
    111  CB       -28.3790   24.5260   -3.9870 C.3   277  TRP277      0.0550
    112  CG       -29.2750   24.0830   -5.0640 C.ar  277  TRP277      0.0003
    113  CD1      -30.6310   23.9960   -5.0100 C.ar  277  TRP277      0.0946
    114  CD2      -28.8950   23.6760   -6.3770 C.ar  277  TRP277      0.0152
    115  NE1      -31.1250   23.5580   -6.2150 N.ar  277  TRP277     -0.2442
    116  CE2      -30.0770   23.3500   -7.0720 C.ar  277  TRP277      0.0810
    117  CE3      -27.6720   23.5550   -7.0390 C.ar  277  TRP277      0.0012
    118  CZ2      -30.0710   22.9180   -8.3870 C.ar  277  TRP277      0.0191
    119  CZ3      -27.6700   23.1160   -8.3440 C.ar  277  TRP277      0.0001
    120  CH2      -28.8610   22.8050   -9.0050 C.ar  277  TRP277      0.0015
    121  N        -20.3410   24.3090   -9.5360 N.3   301  TRP301     -0.1241
    122  CA       -21.3530   24.8690   -8.6140 C.3   301  TRP301      0.1605
    123  C        -20.7590   25.5330   -7.3570 C.2   301  TRP301      0.2264
    124  O        -20.4220   24.8780   -6.3650 O.2   301  TRP301     -0.2867
    125  CB       -22.4060   23.8630   -8.1540 C.3   301  TRP301      0.0550
    126  CG       -23.4570   24.6180   -7.3610 C.ar  301  TRP301      0.0003
    127  CD1      -23.4640   24.8510   -6.0060 C.ar  301  TRP301      0.0946
    128  CD2      -24.6080   25.3070   -7.8860 C.ar  301  TRP301      0.0152
    129  NE1      -24.5490   25.6120   -5.6620 N.ar  301  TRP301     -0.2442
    130  CE2      -25.2700   25.9040   -6.7920 C.ar  301  TRP301      0.0810
    131  CE3      -25.1510   25.4520   -9.1640 C.ar  301  TRP301      0.0012
    132  CZ2      -26.4470   26.6480   -6.9440 C.ar  301  TRP301      0.0191
    133  CZ3      -26.3250   26.1850   -9.3120 C.ar  301  TRP301      0.0001
    134  CH2      -26.9570   26.7720   -8.2070 C.ar  301  TRP301      0.0015
@<TRIPOS>BOND
     1    31    32    1
     2    17    16    2
     3    42    41    2
     4    29    28    2
     5    16    15    1
     6    28    27    1
     7    41    40    1
     8    33    34    2
     9    33    32    1
    10    32    35    1
    11    15    14    1
    12    15    18    1
    13    39    40    1
    14    40    43    1
    15    27    26    1
    16    27    30    1
    17    18    19    1
    18    35    36    1
    19    35    37    1
    20    36    38    1
    21    43    44    1
    22    64    65    1
    23    20    19   ar
    24    20    22   ar
    25    50    51    2
    26    50    49    1
    27    19    21   ar
    28    44    45    1
    29    68    65    1
    30    68    69    1
    31    13    12    1
    32    48    49    1
    33    67    66    2
    34    65    66    1
    35    22    24   ar
    36     9    12    1
    37     9    10    1
    38     9     8    1
    39    10    11    2
    40    49    52    1
    41    46    45    2
    42    21    23   ar
    43    86    85    1
    44    86    87    2
    45    45    47   am
    46    88    85    1
    47    88    89    1
    48    69    71   ar
    49    69    70   ar
    50    71    73   ar
    51    90    89   ar
    52    90    92   ar
    53    85    84    1
    54    89    91   ar
    55    24    23   ar
    56    24    25    1
    57    52    53    1
    58    92    94   ar
    59     5     2    1
    60     5     6    1
    61    63    57    1
    62    63    62    1
    63    91    93   ar
    64    70    72   ar
    65    57    58    1
    66    73    72   ar
    67     2     3    1
    68     2     1    1
    69    94    93   ar
    70    94    95    1
    71    53    54    1
    72     6     7    1
    73     3     4    2
    74    62    61    1
    75     1     7    1
    76    58    59    1
    77    58    61    1
    78    54    55    1
    79    59    60    2
    80    55    56    1
    81    77    76    2
    82    76    75    1
    83    78    75    1
    84    78    79    1
    85    80    79   ar
    86    80    82   ar
    87    74    75    1
    88    79    81   ar
    89    82    83   ar
    90    81    83   ar
    91    99    98    2
    92    98    97    1
    93   100    97    1
    94   100   101    1
    95   103   101   ar
    96   103   105   ar
    97    97    96    1
    98   101   102   ar
    99   105   106   ar
   100   102   104   ar
   101   106   104   ar
   102   121   122    1
   103   133   131   ar
   104   133   134   ar
   105   131   128   ar
   106   120   118   ar
   107   120   119   ar
   108   122   125    1
   109   122   123    1
   110   118   116   ar
   111   119   117   ar
   112   134   132   ar
   113   125   126    1
   114   128   126   ar
   115   128   130   ar
   116   126   127   ar
   117   123   124    2
   118   116   114   ar
   119   116   115   ar
   120   117   114   ar
   121   132   130   ar
   122   130   129   ar
   123   114   112   ar
   124   115   113   ar
   125   127   129   ar
   126   112   113   ar
   127   112   111    1
   128   111   108    1
   129   108   107    1
   130   108   109    1
   131   109   110    2
