@<TRIPOS>MOLECULE
tmp/5cppA01.pdb
 119 109 0 0 0
SMALL
GASTEIGER

@<TRIPOS>ATOM
      1  N         40.5620   38.0260   18.0710 N.3    78  PHE78      -0.1241
      2  CA        41.6610   37.7950   19.0350 C.3    78  PHE78       0.1605
      3  C         41.2550   36.6690   19.9870 C.2    78  PHE78       0.2264
      4  O         40.0850   36.4850   20.3200 O.2    78  PHE78      -0.2867
      5  CB        42.0730   39.0250   19.8370 C.3    78  PHE78       0.0534
      6  CG        42.8410   40.1120   19.1610 C.ar   78  PHE78      -0.0203
      7  CD1       43.6400   40.9270   20.0090 C.ar   78  PHE78      -0.0042
      8  CD2       42.8800   40.3170   17.7930 C.ar   78  PHE78      -0.0042
      9  CE1       44.3430   41.9730   19.5130 C.ar   78  PHE78      -0.0003
     10  CE2       43.7070   41.3540   17.2630 C.ar   78  PHE78      -0.0003
     11  CZ        44.3910   42.1820   18.1690 C.ar   78  PHE78      -0.0000
     12  N         37.1830   43.2220   21.6610 N.3    87  TYR87      -0.1241
     13  CA        37.6860   43.7360   20.3920 C.3    87  TYR87       0.1605
     14  C         36.5770   44.3740   19.5510 C.2    87  TYR87       0.2264
     15  O         35.7130   43.6870   19.0070 O.2    87  TYR87      -0.2867
     16  CB        38.5580   42.7830   19.6260 C.3    87  TYR87       0.0534
     17  CG        39.3400   43.2310   18.4240 C.ar   87  TYR87      -0.0201
     18  CD1       38.7350   43.4620   17.1860 C.ar   87  TYR87      -0.0009
     19  CD2       40.6970   43.5050   18.5440 C.ar   87  TYR87      -0.0009
     20  CE1       39.5100   43.8800   16.0810 C.ar   87  TYR87       0.0417
     21  CE2       41.4540   44.0190   17.4830 C.ar   87  TYR87       0.0417
     22  CZ        40.8410   44.1690   16.2720 C.ar   87  TYR87       0.1957
     23  OH        41.6210   44.6180   15.1990 O.3    87  TYR87      -0.2866
     24  N         37.4320   47.2690   17.1570 N.3    89  PHE89      -0.1241
     25  CA        38.0890   48.0390   16.1220 C.3    89  PHE89       0.1605
     26  C         37.4270   47.9620   14.7540 C.2    89  PHE89       0.2264
     27  O         36.8230   47.0030   14.3240 O.2    89  PHE89      -0.2867
     28  CB        39.5840   47.9210   16.0410 C.3    89  PHE89       0.0534
     29  CG        40.4090   48.0930   17.2560 C.ar   89  PHE89      -0.0203
     30  CD1       40.1720   49.1390   18.1450 C.ar   89  PHE89      -0.0042
     31  CD2       41.6010   47.3720   17.3860 C.ar   89  PHE89      -0.0042
     32  CE1       40.9690   49.3470   19.2810 C.ar   89  PHE89      -0.0003
     33  CE2       42.3790   47.4970   18.5480 C.ar   89  PHE89      -0.0003
     34  CZ        42.0710   48.5440   19.4500 C.ar   89  PHE89      -0.0000
     35  N         38.2990   46.1410   11.2560 N.3    92  THR92      -0.1274
     36  CA        38.7940   44.8060   11.5820 C.3    92  THR92       0.1548
     37  C         37.8240   43.8800   12.2210 C.3    92  THR92       0.2036
     38  O         37.7600   42.6450   11.8470 O.3    92  THR92      -0.2187
     39  CB        40.2460   44.7700   12.1290 C.3    92  THR92       0.1721
     40  OG1       40.3820   45.6810   13.2600 O.3    92  THR92      -0.2215
     41  CG2       41.4140   45.1100   11.1580 C.3    92  THR92       0.0371
     42  N         48.7160   43.3360   22.2220 N.3   176  THR176     -0.1218
     43  CA        49.3220   42.3580   21.3060 C.3   176  THR176      0.1862
     44  C         50.1470   41.2960   22.0460 C.2   176  THR176      0.2287
     45  O         50.2090   40.1310   21.6610 O.2   176  THR176     -0.2866
     46  CB        50.1580   43.0730   20.2120 C.3   176  THR176      0.1770
     47  OG1       51.0770   43.9940   20.9740 O.3   176  THR176     -0.2211
     48  CG2       49.3650   43.8920   19.2000 C.3   176  THR176      0.0375
     49  N         42.4390   51.3580   16.1080 N.3   235  LEU235     -0.1245
     50  CA        43.1710   50.4250   15.2350 C.3   235  LEU235      0.1561
     51  C         44.4090   51.0460   14.5890 C.2   235  LEU235      0.2260
     52  O         45.4850   50.4360   14.4150 O.2   235  LEU235     -0.2867
     53  CB        42.1640   49.8890   14.2070 C.3   235  LEU235      0.0270
     54  CG        42.7710   48.9700   13.1440 C.3   235  LEU235      0.0019
     55  CD1       43.2020   47.6290   13.8140 C.3   235  LEU235      0.0001
     56  CD2       41.7830   48.7130   12.0520 C.3   235  LEU235      0.0001
     57  N         47.3080   51.0190   16.9660 N.3   238  VAL238     -0.1231
     58  CA        47.9890   49.7240   17.1570 C.3   238  VAL238      0.1692
     59  C         48.8170   49.3910   15.9450 C.2   238  VAL238      0.2592
     60  O         49.9650   49.0070   16.0980 O.2   238  VAL238     -0.2718
     61  CB        46.9610   48.6030   17.5790 C.3   238  VAL238      0.0266
     62  CG1       47.7240   47.3420   17.9980 C.3   238  VAL238      0.0020
     63  CG2       46.1480   49.0240   18.7880 C.3   238  VAL238      0.0020
     64  N         48.2500   49.6780   14.7930 N.am  239  GLY239     -0.1957
     65  CA        48.9100   49.4560   13.4980 C.3   239  GLY239      0.1869
     66  C         50.1590   50.2290   13.3920 C.2   239  GLY239      0.2309
     67  O         51.2840   49.7610   13.2090 O.2   239  GLY239     -0.2863
     68  N         53.6460   47.6500   14.7810 N.3   243  THR243     -0.1218
     69  CA        53.8760   46.6970   13.6670 C.3   243  THR243      0.1862
     70  C         55.2640   46.7310   13.0620 C.2   243  THR243      0.2287
     71  O         56.1110   45.9480   13.3020 O.2   243  THR243     -0.2866
     72  CB        52.7190   46.7220   12.6300 C.3   243  THR243      0.1770
     73  OG1       52.7140   48.0690   12.0440 O.3   243  THR243     -0.2211
     74  CG2       51.3430   46.3860   13.0980 C.3   243  THR243      0.0375
     75  N         52.6390   38.3700   12.5840 N.3   286  VAL286     -0.1245
     76  CA        51.2950   38.5840   13.0390 C.3   286  VAL286      0.1561
     77  C         50.5200   37.2350   13.1040 C.2   286  VAL286      0.2260
     78  O         50.6360   36.5160   12.1370 O.2   286  VAL286     -0.2867
     79  CB        50.5010   39.5990   12.1050 C.3   286  VAL286      0.0252
     80  CG1       49.0220   39.6730   12.4860 C.3   286  VAL286      0.0019
     81  CG2       51.1490   40.9530   12.3200 C.3   286  VAL286      0.0019
     82  N         46.5030   36.4230   14.0380 N.3   288  ASP288     -0.1239
     83  CA        45.1380   36.5700   14.6740 C.3   288  ASP288      0.1674
     84  C         44.2360   35.4930   14.1080 C.2   288  ASP288      0.2266
     85  O         44.6960   34.4660   13.5290 O.2   288  ASP288     -0.2867
     86  CB        44.6820   38.0230   14.6900 C.3   288  ASP288      0.1410
     87  CG        44.2510   38.5930   13.4100 C.2   288  ASP288      0.3668
     88  OD1       44.2920   38.0010   12.3390 O.co2 288  ASP288     -0.2456
     89  OD2       43.4950   39.7050   13.4800 O.co2 288  ASP288     -0.2456
     90  N         48.9310   34.4080   10.1760 N.3   313  GLN313     -0.1245
     91  CA        49.4850   34.9640    8.9070 C.3   313  GLN313      0.1566
     92  C         50.9610   34.7240    8.7900 C.2   313  GLN313      0.2260
     93  O         51.4860   34.6570    7.6590 O.2   313  GLN313     -0.2867
     94  CB        49.2200   36.5570    8.8420 C.3   313  GLN313      0.0367
     95  CG        47.7610   36.8190    8.7210 C.3   313  GLN313      0.0905
     96  CD        46.9800   36.9550    9.9690 C.2   313  GLN313      0.2608
     97  OE1       47.4610   36.6840   11.0850 O.2   313  GLN313     -0.2717
     98  NE2       45.8230   37.7250    9.8110 N.am  313  GLN313     -0.0878
     99  N         45.8820   44.4450    4.6770 N.3   348  CYS348     -0.1235
    100  CA        46.4700   45.5700    5.3030 C.3   348  CYS348      0.1677
    101  C         46.5410   46.7990    4.3710 C.2   348  CYS348      0.2270
    102  O         47.2830   46.7820    3.3810 O.2   348  CYS348     -0.2867
    103  CB        47.9390   45.2690    5.6730 C.3   348  CYS348      0.0956
    104  SG        48.6800   46.5450    6.7190 S.3   348  CYS348     -0.0801
    105  N         49.9310   38.2030   19.5320 N.3   386  ILE386     -0.1231
    106  CA        49.2420   38.7360   18.3170 C.3   386  ILE386      0.1692
    107  C         50.2400   39.3560   17.3520 C.2   386  ILE386      0.2591
    108  O         50.0130   39.3070   16.1600 O.2   386  ILE386     -0.2718
    109  CB        48.0540   39.7070   18.6070 C.3   386  ILE386      0.0266
    110  CG1       47.0320   39.0070   19.6020 C.3   386  ILE386      0.0019
    111  CG2       47.3680   40.1620   17.2810 C.3   386  ILE386      0.0020
    112  CD1       45.8910   38.2240   18.9440 C.3   386  ILE386      0.0001
    113  N         51.2220   40.0510   17.8920 N.am  387  VAL387     -0.1980
    114  CA        52.3130   40.5720   16.9800 C.3   387  VAL387      0.1595
    115  C         53.5620   40.2120   17.7740 C.2   387  VAL387      0.2287
    116  O         53.5350   40.4400   18.9790 O.2   387  VAL387     -0.2864
    117  CB        52.1970   42.1160   16.7640 C.3   387  VAL387      0.0276
    118  CG1       53.4170   42.5610   15.9230 C.3   387  VAL387      0.0022
    119  CG2       50.8640   42.5120   16.1070 C.3   387  VAL387      0.0022
@<TRIPOS>BOND
     1   102   101    2
     2   101   100    1
     3    99   100    1
     4   100   103    1
     5   103   104    1
     6    93    92    2
     7    95    94    1
     8    95    96    1
     9    92    91    1
    10    94    91    1
    11    91    90    1
    12    98    96   am
    13    96    97    2
    14    41    39    1
    15    35    36    1
    16    36    39    1
    17    36    37    1
    18    38    37    1
    19    73    72    1
    20    56    54    1
    21    79    81    1
    22    79    80    1
    23    79    76    1
    24    39    40    1
    25    78    77    2
    26    88    87   ar
    27    75    76    1
    28    72    74    1
    29    72    69    1
    30    76    77    1
    31    70    71    2
    32    70    69    1
    33    54    55    1
    34    54    53    1
    35    67    66    2
    36    66    65    1
    37    87    89   ar
    38    87    86    1
    39    65    64    1
    40    85    84    2
    41    69    68    1
    42    82    83    1
    43    84    83    1
    44    53    50    1
    45    27    26    2
    46    52    51    2
    47    51    50    1
    48    83    86    1
    49    26    25    1
    50    64    59   am
    51    23    22    1
    52    50    49    1
    53   118   117    1
    54    59    60    2
    55    59    58    1
    56    28    25    1
    57    28    29    1
    58    20    22   ar
    59    20    18   ar
    60   119   117    1
    61    25    24    1
    62   108   107    2
    63    22    21   ar
    64   117   114    1
    65    57    58    1
    66   114   115    1
    67   114   113    1
    68    58    61    1
    69    18    17   ar
    70    29    31   ar
    71    29    30   ar
    72    10     8   ar
    73    10    11   ar
    74   111   109    1
    75   107   113   am
    76   107   106    1
    77    31    33   ar
    78    21    19   ar
    79    61    62    1
    80    61    63    1
    81   115   116    2
    82     8     6   ar
    83     1     2    1
    84    30    32   ar
    85    11     9   ar
    86   106   109    1
    87   106   105    1
    88    17    19   ar
    89    17    16    1
    90    33    34   ar
    91   109   110    1
    92   112   110    1
    93    15    14    2
    94     2     5    1
    95     2     3    1
    96     6     5    1
    97     6     7   ar
    98    48    46    1
    99    32    34   ar
   100     9     7   ar
   101    14    13    1
   102    16    13    1
   103     3     4    2
   104    46    47    1
   105    46    43    1
   106    13    12    1
   107    43    44    1
   108    43    42    1
   109    45    44    2
