@<TRIPOS>MOLECULE
tmp/5cprA01.pdb
 118 116 0 0 0
SMALL
GASTEIGER

@<TRIPOS>ATOM
      1  N         -2.7410  -14.6960   17.7590 N.3   127  GLY127     -0.1225
      2  CA        -2.0030  -13.8560   18.6850 C.3   127  GLY127      0.1811
      3  C         -0.5410  -14.2210   18.6590 C.2   127  GLY127      0.2280
      4  O         -0.1840  -15.3240   18.2510 O.2   127  GLY127     -0.2866
      5  N         -3.4360   -4.5170   29.4140 N.3   148  PHE148     -0.1227
      6  CA        -4.7280   -5.0890   29.0440 C.3   148  PHE148      0.1736
      7  C         -4.6130   -6.5500   28.5320 C.2   148  PHE148      0.2596
      8  O         -5.5950   -7.2850   28.6230 O.2   148  PHE148     -0.2718
      9  CB        -5.4310   -4.1960   28.0040 C.3   148  PHE148      0.0547
     10  CG        -4.5800   -3.8510   26.8050 C.ar  148  PHE148     -0.0202
     11  CD1       -4.5020   -4.7090   25.7190 C.ar  148  PHE148     -0.0042
     12  CD2       -3.8470   -2.6640   26.7690 C.ar  148  PHE148     -0.0042
     13  CE1       -3.6920   -4.4070   24.6290 C.ar  148  PHE148     -0.0003
     14  CE2       -3.0530   -2.3510   25.6700 C.ar  148  PHE148     -0.0003
     15  CZ        -2.9630   -3.2330   24.6120 C.ar  148  PHE148     -0.0000
     16  N         -3.4150   -6.9690   28.0190 N.am  149  SER149     -0.1938
     17  CA        -3.1920   -8.3190   27.4890 C.3   149  SER149      0.2055
     18  C         -1.8260   -8.9140   27.9440 C.2   149  SER149      0.2643
     19  O         -1.0480   -9.4390   27.1430 O.2   149  SER149     -0.2714
     20  CB        -3.3530   -8.3260   25.9650 C.3   149  SER149      0.2130
     21  OG        -3.4730   -9.6520   25.4720 O.3   149  SER149     -0.2179
     22  N         -1.5630   -8.8300   29.2540 N.am  150  VAL150     -0.1963
     23  CA        -0.3280   -9.2890   29.8910 C.3   150  VAL150      0.1727
     24  C         -0.6590  -10.1540   31.1070 C.2   150  VAL150      0.2616
     25  O         -1.5650   -9.8460   31.8680 O.2   150  VAL150     -0.2715
     26  CB         0.6200   -8.1020   30.3380 C.3   150  VAL150      0.0290
     27  CG1        1.9520   -8.6210   30.9030 C.3   150  VAL150      0.0023
     28  CG2        0.9130   -7.1430   29.2040 C.3   150  VAL150      0.0023
     29  N          0.1380  -11.1780   31.3270 N.am  151  MET151     -0.1977
     30  CA         0.0990  -11.9620   32.5440 C.3   151  MET151      0.1605
     31  C          1.5160  -12.1540   33.0800 C.2   151  MET151      0.2287
     32  O          2.4720  -12.1590   32.3170 O.2   151  MET151     -0.2864
     33  CB        -0.6270  -13.2870   32.3470 C.3   151  MET151      0.0413
     34  CG        -0.0590  -14.1580   31.2850 C.3   151  MET151      0.0598
     35  SD        -0.7090  -15.8230   31.5160 S.3   151  MET151     -0.1393
     36  CE         0.4510  -16.4570   32.8100 C.3   151  MET151      0.0692
     37  N          0.6000  -10.6700   24.9950 N.3   162  TRP162     -0.1241
     38  CA        -0.1040  -11.2580   23.8720 C.3   162  TRP162      0.1605
     39  C         -0.6970  -10.1730   23.0390 C.2   162  TRP162      0.2264
     40  O         -1.5090   -9.3720   23.5330 O.2   162  TRP162     -0.2867
     41  CB        -1.2050  -12.2130   24.3800 C.3   162  TRP162      0.0550
     42  CG        -0.6840  -13.5590   24.7710 C.ar  162  TRP162      0.0003
     43  CD1       -0.4510  -14.0120   26.0390 C.ar  162  TRP162      0.0946
     44  CD2       -0.3480  -14.6420   23.8870 C.ar  162  TRP162      0.0152
     45  NE1        0.0040  -15.3140   26.0000 N.ar  162  TRP162     -0.2442
     46  CE2        0.0770  -15.7240   24.6920 C.ar  162  TRP162      0.0810
     47  CE3       -0.3620  -14.8000   22.4890 C.ar  162  TRP162      0.0012
     48  CZ2        0.4850  -16.9400   24.1500 C.ar  162  TRP162      0.0191
     49  CZ3        0.0320  -16.0030   21.9500 C.ar  162  TRP162      0.0001
     50  CH2        0.4390  -17.0640   22.7730 C.ar  162  TRP162      0.0015
     51  N         -6.4770  -11.8830   18.1280 N.3   166  ALA166     -0.1231
     52  CA        -7.0200  -12.6380   19.2750 C.3   166  ALA166      0.1694
     53  C         -6.8630  -11.8920   20.6390 C.2   166  ALA166      0.2591
     54  O         -7.4320  -12.3270   21.6400 O.2   166  ALA166     -0.2718
     55  CB        -6.3630  -14.0140   19.3410 C.3   166  ALA166      0.0304
     56  N         -6.0650  -10.8040   20.6850 N.am  167  ALA167     -0.1980
     57  CA        -5.9170   -9.9990   21.9030 C.3   167  ALA167      0.1597
     58  C         -7.1530   -9.0800   22.0730 C.2   167  ALA167      0.2287
     59  O         -7.2730   -8.4100   23.0990 O.2   167  ALA167     -0.2864
     60  CB        -4.6370   -9.1890   21.8730 C.3   167  ALA167      0.0319
     61  N         -7.9060  -20.6060   24.0080 N.3   179  PHE179     -0.1227
     62  CA        -6.6930  -20.3420   23.2610 C.3   179  PHE179      0.1736
     63  C         -5.9390  -21.6380   23.0750 C.2   179  PHE179      0.2595
     64  O         -5.9480  -22.5070   23.9540 O.2   179  PHE179     -0.2718
     65  CB        -5.8160  -19.3410   23.9640 C.3   179  PHE179      0.0547
     66  CG        -6.4160  -17.9830   24.2300 C.ar  179  PHE179     -0.0202
     67  CD1       -6.6420  -17.0890   23.1850 C.ar  179  PHE179     -0.0042
     68  CD2       -6.6380  -17.5480   25.5390 C.ar  179  PHE179     -0.0042
     69  CE1       -7.1260  -15.8040   23.4390 C.ar  179  PHE179     -0.0003
     70  CE2       -7.1270  -16.2620   25.7920 C.ar  179  PHE179     -0.0003
     71  CZ        -7.3780  -15.4020   24.7410 C.ar  179  PHE179     -0.0000
     72  N         -5.3910  -21.8140   21.8890 N.am  180  VAL180     -0.1966
     73  CA        -4.6050  -23.0010   21.5640 C.3   180  VAL180      0.1727
     74  C         -3.2610  -22.6070   20.9310 C.2   180  VAL180      0.2616
     75  O         -3.2200  -21.7760   20.0220 O.2   180  VAL180     -0.2715
     76  CB        -5.3780  -24.0780   20.7260 C.3   180  VAL180      0.0290
     77  CG1       -6.4870  -24.7290   21.5460 C.3   180  VAL180      0.0023
     78  CG2       -5.9320  -23.5080   19.4250 C.3   180  VAL180      0.0023
     79  N         -2.1730  -23.2390   21.3760 N.am  181  SER181     -0.1950
     80  CA        -0.8470  -22.9720   20.8180 C.3   181  SER181      0.1924
     81  C         -0.7330  -23.4750   19.3570 C.2   181  SER181      0.2314
     82  O         -1.1450  -24.5990   19.0610 O.2   181  SER181     -0.2863
     83  CB         0.2080  -23.6520   21.6740 C.3   181  SER181      0.2116
     84  OG         1.4980  -23.3760   21.1540 O.3   181  SER181     -0.2180
     85  N         -0.4390  -18.4960   18.6850 N.3   187  ALA187     -0.1231
     86  CA        -1.6340  -19.1910   19.1070 C.3   187  ALA187      0.1694
     87  C         -2.8470  -18.6490   18.3650 C.2   187  ALA187      0.2592
     88  O         -2.8300  -17.5410   17.8360 O.2   187  ALA187     -0.2718
     89  CB        -1.8140  -19.0300   20.6080 C.3   187  ALA187      0.0304
     90  N         -3.8840  -19.4480   18.2960 N.am  188  CYS188     -0.1970
     91  CA        -5.1850  -19.0750   17.7560 C.3   188  CYS188      0.1712
     92  C         -6.2410  -19.5810   18.7530 C.2   188  CYS188      0.2296
     93  O         -5.8800  -20.0050   19.8660 O.2   188  CYS188     -0.2864
     94  CB        -5.4010  -19.6280   16.3430 C.3   188  CYS188      0.0983
     95  SG        -5.6180  -21.4270   16.2520 S.3   188  CYS188     -0.0798
     96  N         -9.6160  -16.4910   30.5820 N.3   205  TYR205     -0.1241
     97  CA        -8.2240  -16.0620   30.7520 C.3   205  TYR205      0.1605
     98  C         -7.5240  -16.8580   31.8260 C.2   205  TYR205      0.2264
     99  O         -6.3040  -16.9930   31.7860 O.2   205  TYR205     -0.2867
    100  CB        -8.1530  -14.5860   31.1690 C.3   205  TYR205      0.0534
    101  CG        -8.6050  -13.5720   30.1520 C.ar  205  TYR205     -0.0201
    102  CD1       -8.9260  -13.9500   28.8480 C.ar  205  TYR205     -0.0009
    103  CD2       -8.6340  -12.2220   30.4640 C.ar  205  TYR205     -0.0009
    104  CE1       -9.3100  -13.0090   27.9030 C.ar  205  TYR205      0.0417
    105  CE2       -9.0260  -11.2770   29.5340 C.ar  205  TYR205      0.0417
    106  CZ        -9.3830  -11.6730   28.2630 C.ar  205  TYR205      0.1957
    107  OH        -9.8330  -10.6980   27.4130 O.3   205  TYR205     -0.2866
    108  N         -7.7530  -12.9200   37.1430 N.3   209  PHE209     -0.1241
    109  CA        -7.4490  -11.8040   36.2550 C.3   209  PHE209      0.1605
    110  C         -8.1780  -10.5290   36.6480 C.2   209  PHE209      0.2264
    111  O         -7.6330   -9.4370   36.4440 O.2   209  PHE209     -0.2867
    112  CB        -7.6650  -12.1480   34.7710 C.3   209  PHE209      0.0534
    113  CG        -6.4360  -12.8050   34.1950 C.ar  209  PHE209     -0.0203
    114  CD1       -5.4140  -12.0410   33.6450 C.ar  209  PHE209     -0.0042
    115  CD2       -6.2510  -14.1800   34.2980 C.ar  209  PHE209     -0.0042
    116  CE1       -4.2420  -12.6480   33.1810 C.ar  209  PHE209     -0.0003
    117  CE2       -5.0900  -14.7880   33.8070 C.ar  209  PHE209     -0.0003
    118  CZ        -4.0940  -14.0220   33.2540 C.ar  209  PHE209     -0.0000
@<TRIPOS>BOND
     1    95    94    1
     2    94    91    1
     3    91    90    1
     4    91    92    1
     5     1     2    1
     6    88    87    2
     7    51    52    1
     8     4     3    2
     9    90    87   am
    10    87    86    1
    11     3     2    1
    12    85    86    1
    13    92    93    2
    14    82    81    2
    15    86    89    1
    16    52    55    1
    17    52    53    1
    18    81    80    1
    19    78    76    1
    20    75    74    2
    21    53    56   am
    22    53    54    2
    23    56    57    1
    24    76    77    1
    25    76    73    1
    26    80    79    1
    27    80    83    1
    28    74    79   am
    29    74    73    1
    30    84    83    1
    31    73    72    1
    32    60    57    1
    33    72    63   am
    34    57    58    1
    35    49    47   ar
    36    49    50   ar
    37    58    59    2
    38    47    44   ar
    39    50    48   ar
    40    39    40    2
    41    39    38    1
    42    63    62    1
    43    63    64    2
    44    67    69   ar
    45    67    66   ar
    46    62    65    1
    47    62    61    1
    48    69    71   ar
    49    38    41    1
    50    38    37    1
    51    44    46   ar
    52    44    42   ar
    53    65    66    1
    54    48    46   ar
    55    66    68   ar
    56    41    42    1
    57    15    13   ar
    58    15    14   ar
    59    13    11   ar
    60    46    45   ar
    61    71    70   ar
    62    42    43   ar
    63    21    20    1
    64    68    70   ar
    65    14    12   ar
    66    11    10   ar
    67    20    17    1
    68    45    43   ar
    69    12    10   ar
    70    10     9    1
    71    19    18    2
    72   107   106    1
    73    17    18    1
    74    17    16    1
    75   104   106   ar
    76   104   102   ar
    77    18    22   am
    78     9     6    1
    79    16     7   am
    80   106   105   ar
    81     7     8    2
    82     7     6    1
    83   102   101   ar
    84     6     5    1
    85    28    26    1
    86    22    23    1
    87   105   103   ar
    88    23    26    1
    89    23    24    1
    90   101   103   ar
    91   101   100    1
    92    26    27    1
    93    96    97    1
    94    97   100    1
    95    97    98    1
    96    24    29   am
    97    24    25    2
    98    34    35    1
    99    34    33    1
   100    29    30    1
   101    35    36    1
   102    99    98    2
   103    32    31    2
   104    33    30    1
   105    30    31    1
   106   116   118   ar
   107   116   114   ar
   108   118   117   ar
   109   114   113   ar
   110   117   115   ar
   111   113   115   ar
   112   113   112    1
   113   112   109    1
   114   109   110    1
   115   109   108    1
   116   111   110    2
