@<TRIPOS>MOLECULE
tmp/5cpsB02.pdb
 90 87 0 0 0
SMALL
GASTEIGER

@<TRIPOS>ATOM
      1  N          9.8390   45.8560   52.7430 N.3   267  VAL267     -0.1231
      2  CA         9.5870   44.5450   52.1740 C.3   267  VAL267      0.1678
      3  C          8.8510   43.6920   53.2110 C.2   267  VAL267      0.2434
      4  O          9.0570   43.8560   54.4150 O.2   267  VAL267     -0.2733
      5  CB        10.8760   43.7770   51.7650 C.3   267  VAL267      0.0265
      6  CG1       11.3840   44.2750   50.4140 C.3   267  VAL267      0.0020
      7  CG2       11.9520   43.8950   52.8420 C.3   267  VAL267      0.0020
      8  N          8.0060   42.7730   52.7440 N.am  268  PRO268     -0.2729
      9  CA         7.2370   41.9360   53.6850 C.3   268  PRO268      0.1401
     10  C          8.1040   40.8020   54.3020 C.2   268  PRO268      0.2269
     11  O          9.2260   40.5820   53.8510 O.2   268  PRO268     -0.2865
     12  CB         6.1390   41.3550   52.7880 C.3   268  PRO268      0.0296
     13  CG         6.7980   41.2300   51.4590 C.3   268  PRO268      0.0237
     14  CD         7.6860   42.4500   51.3420 C.3   268  PRO268      0.0939
     15  N         10.8650   44.2810   56.5190 N.3   272  GLN272     -0.1245
     16  CA        11.6290   45.4790   56.8590 C.3   272  GLN272      0.1566
     17  C         10.8360   46.7270   56.5050 C.2   272  GLN272      0.2260
     18  O         10.3110   46.8370   55.3940 O.2   272  GLN272     -0.2867
     19  CB        12.9520   45.5100   56.0890 C.3   272  GLN272      0.0367
     20  CG        13.9320   44.4070   56.4500 C.3   272  GLN272      0.0905
     21  CD        15.0850   44.3220   55.4670 C.2   272  GLN272      0.2608
     22  OE1       15.3290   45.2400   54.6810 O.2   272  GLN272     -0.2717
     23  NE2       15.7990   43.2130   55.5060 N.am  272  GLN272     -0.0878
     24  N         11.4930   50.3030   55.7250 N.3   274  TRP274     -0.1241
     25  CA        12.5300   51.2710   55.4270 C.3   274  TRP274      0.1605
     26  C         12.0210   52.6840   55.6230 C.2   274  TRP274      0.2264
     27  O         12.7380   53.5320   56.1440 O.2   274  TRP274     -0.2867
     28  CB        13.0600   51.1060   53.9990 C.3   274  TRP274      0.0550
     29  CG        13.5000   49.7350   53.6890 C.ar  274  TRP274      0.0003
     30  CD1       14.0190   48.8240   54.5560 C.ar  274  TRP274      0.0946
     31  CD2       13.4680   49.0960   52.4010 C.ar  274  TRP274      0.0152
     32  NE1       14.2930   47.6450   53.8910 N.ar  274  TRP274     -0.2442
     33  CE2       13.9740   47.8010   52.5650 C.ar  274  TRP274      0.0810
     34  CE3       13.0460   49.5000   51.1340 C.ar  274  TRP274      0.0012
     35  CZ2       14.0830   46.8950   51.4970 C.ar  274  TRP274      0.0191
     36  CZ3       13.1640   48.6070   50.0680 C.ar  274  TRP274      0.0001
     37  CH2       13.6790   47.3170   50.2640 C.ar  274  TRP274      0.0015
     38  N         17.6750   47.2330   45.0430 N.3   310  HIS310     -0.1241
     39  CA        16.2490   46.9040   45.0640 C.3   310  HIS310      0.1621
     40  C         15.6310   47.1920   43.6960 C.2   310  HIS310      0.2264
     41  O         14.5570   47.7630   43.5780 O.2   310  HIS310     -0.2867
     42  CB        15.5210   47.6200   46.1880 C.3   310  HIS310      0.0745
     43  CG        14.2320   46.9640   46.5790 C.ar  310  HIS310      0.0817
     44  ND1       14.1820   45.6990   47.1170 N.ar  310  HIS310     -0.2268
     45  CD2       12.9540   47.4070   46.5320 C.ar  310  HIS310      0.1154
     46  CE1       12.9290   45.3850   47.3880 C.ar  310  HIS310      0.1986
     47  NE2       12.1570   46.4030   47.0360 N.ar  310  HIS310     -0.2212
     48  N         20.5330   44.8460   41.3620 N.3   356  GLU356     -0.1245
     49  CA        20.5880   44.1070   42.6180 C.3   356  GLU356      0.1567
     50  C         19.2540   43.3750   42.7130 C.2   356  GLU356      0.2260
     51  O         18.1910   43.9880   42.8760 O.2   356  GLU356     -0.2867
     52  CB        20.8130   44.9910   43.8490 C.3   356  GLU356      0.0388
     53  CG        20.8460   44.2510   45.1770 C.3   356  GLU356      0.1160
     54  CD        19.4760   44.0370   45.8220 C.2   356  GLU356      0.3649
     55  OE1       18.7650   45.0260   46.1230 O.co2 356  GLU356     -0.2457
     56  OE2       19.1000   42.8560   46.0420 O.co2 356  GLU356     -0.2457
     57  N         18.7560   40.2440   44.6440 N.3   358  LEU358     -0.1231
     58  CA        18.9390   39.1860   45.6190 C.3   358  LEU358      0.1693
     59  C         17.6110   38.8490   46.3330 C.2   358  LEU358      0.2593
     60  O         16.6550   39.6370   46.3120 O.2   358  LEU358     -0.2718
     61  CB        19.9550   39.6220   46.6440 C.3   358  LEU358      0.0284
     62  CG        21.3400   39.9530   46.0620 C.3   358  LEU358      0.0019
     63  CD1       22.2190   40.5960   47.1130 C.3   358  LEU358      0.0001
     64  CD2       21.9630   38.6800   45.5390 C.3   358  LEU358      0.0001
     65  N         17.5540   37.6620   46.9200 N.am  359  GLY359     -0.1942
     66  CA        16.3970   37.2850   47.7260 C.3   359  GLY359      0.2014
     67  C         15.2770   36.7380   46.8880 C.2   359  GLY359      0.2638
     68  O         15.4300   36.4380   45.7010 O.2   359  GLY359     -0.2714
     69  N         14.1290   36.5500   47.5330 N.am  360  VAL360     -0.1977
     70  CA        12.9960   35.9530   46.8610 C.3   360  VAL360      0.1596
     71  C         12.4420   37.0210   45.9320 C.2   360  VAL360      0.2287
     72  O         11.9930   38.0760   46.3880 O.2   360  VAL360     -0.2864
     73  CB        11.9300   35.4720   47.8680 C.3   360  VAL360      0.0276
     74  CG1       10.7280   34.8800   47.1340 C.3   360  VAL360      0.0022
     75  CG2       12.5460   34.4440   48.8110 C.3   360  VAL360      0.0022
     76  N         27.2660   44.7440   52.8030 N.3   409  ASP409     -0.1239
     77  CA        26.2800   44.3650   53.8350 C.3   409  ASP409      0.1674
     78  C         26.6260   43.0190   54.5130 C.2   409  ASP409      0.2266
     79  O         26.0080   42.6540   55.5150 O.2   409  ASP409     -0.2867
     80  CB        24.9120   44.1910   53.2050 C.3   409  ASP409      0.1410
     81  CG        24.1890   45.5100   52.9620 C.2   409  ASP409      0.3668
     82  OD1       24.4790   46.5370   53.6160 O.co2 409  ASP409     -0.2456
     83  OD2       23.3050   45.4730   52.0930 O.co2 409  ASP409     -0.2456
     84  N         23.5950   45.1920   58.6700 N.3   475  PRO475     -0.2116
     85  CA        22.2620   45.7170   58.4570 C.3   475  PRO475      0.1372
     86  C         21.4320   45.7500   59.7280 C.2   475  PRO475      0.2244
     87  O         21.5650   44.8680   60.5750 O.2   475  PRO475     -0.2868
     88  CB        21.6690   44.7320   57.4660 C.3   475  PRO475      0.0268
     89  CG        22.8340   44.3120   56.6320 C.3   475  PRO475      0.0207
     90  CD        23.9980   44.2850   57.5940 C.3   475  PRO475      0.0892
@<TRIPOS>BOND
     1    48    49    1
     2    49    50    1
     3    49    52    1
     4    50    51    2
     5    41    40    2
     6    40    39    1
     7    52    53    1
     8    57    58    1
     9    38    39    1
    10    39    42    1
    11    53    54    1
    12    64    62    1
    13    58    59    1
    14    58    61    1
    15    68    67    2
    16    54    56   ar
    17    54    55   ar
    18    71    72    2
    19    71    70    1
    20    62    61    1
    21    62    63    1
    22    42    43    1
    23    60    59    2
    24    59    65   am
    25    45    43   ar
    26    45    47   ar
    27    43    44   ar
    28    70    69    1
    29    70    73    1
    30    67    69   am
    31    67    66    1
    32    65    66    1
    33    47    46   ar
    34    44    46   ar
    35    74    73    1
    36    73    75    1
    37    36    37   ar
    38    36    34   ar
    39    37    35   ar
    40     6     5    1
    41    34    31   ar
    42    14    13    1
    43    14     8    1
    44    13    12    1
    45    35    33   ar
    46     5     2    1
    47     5     7    1
    48    83    81   ar
    49     2     1    1
    50     2     3    1
    51    31    33   ar
    52    31    29   ar
    53    33    32   ar
    54     8     3   am
    55     8     9    1
    56    12     9    1
    57    76    77    1
    58    81    80    1
    59    81    82   ar
    60    80    77    1
    61     3     4    2
    62     9    10    1
    63    29    28    1
    64    29    30   ar
    65    77    78    1
    66    11    10    2
    67    32    30   ar
    68    28    25    1
    69    78    79    2
    70    22    21    2
    71    18    17    2
    72    25    26    1
    73    25    24    1
    74    21    23   am
    75    21    20    1
    76    26    27    2
    77    19    20    1
    78    19    16    1
    79    17    16    1
    80    15    16    1
    81    89    88    1
    82    89    90    1
    83    88    85    1
    84    90    84    1
    85    85    84    1
    86    85    86    1
    87    86    87    2
