@<TRIPOS>MOLECULE
tmp/5cpsB00.pdb
 67 66 0 0 0
SMALL
GASTEIGER

@<TRIPOS>ATOM
      1  N         17.5540   37.6620   46.9200 N.3   359  GLY359     -0.1210
      2  CA        16.3970   37.2850   47.7260 C.3   359  GLY359      0.1956
      3  C         15.2770   36.7380   46.8880 C.2   359  GLY359      0.2611
      4  O         15.4300   36.4380   45.7010 O.2   359  GLY359     -0.2717
      5  N         14.1290   36.5500   47.5330 N.am  360  VAL360     -0.1979
      6  CA        12.9960   35.9530   46.8610 C.3   360  VAL360      0.1595
      7  C         12.4420   37.0210   45.9320 C.2   360  VAL360      0.2287
      8  O         11.9930   38.0760   46.3880 O.2   360  VAL360     -0.2864
      9  CB        11.9300   35.4720   47.8680 C.3   360  VAL360      0.0276
     10  CG1       10.7280   34.8800   47.1340 C.3   360  VAL360      0.0022
     11  CG2       12.5460   34.4440   48.8110 C.3   360  VAL360      0.0022
     12  N         26.2510   33.2800   49.9860 N.3   382  PHE382     -0.1241
     13  CA        24.8940   32.7750   50.0590 C.3   382  PHE382      0.1605
     14  C         24.7290   31.3850   49.4130 C.2   382  PHE382      0.2264
     15  O         23.6290   30.8550   49.4030 O.2   382  PHE382     -0.2867
     16  CB        23.9060   33.7110   49.3600 C.3   382  PHE382      0.0534
     17  CG        23.7910   35.0920   49.9700 C.ar  382  PHE382     -0.0203
     18  CD1       23.9990   35.3210   51.3200 C.ar  382  PHE382     -0.0042
     19  CD2       23.4480   36.1580   49.1640 C.ar  382  PHE382     -0.0042
     20  CE1       23.8590   36.6120   51.8510 C.ar  382  PHE382     -0.0003
     21  CE2       23.3070   37.4220   49.6780 C.ar  382  PHE382     -0.0003
     22  CZ        23.5320   37.6610   51.0110 C.ar  382  PHE382     -0.0000
     23  N         23.7210   27.2860   51.6160 N.3   385  GLY385     -0.1210
     24  CA        22.4490   26.8460   52.1790 C.3   385  GLY385      0.1956
     25  C         21.5950   26.2010   51.0910 C.2   385  GLY385      0.2612
     26  O         21.7770   26.4400   49.8840 O.2   385  GLY385     -0.2717
     27  N         20.6650   25.3710   51.5200 N.am  386  GLY386     -0.1942
     28  CA        19.8120   24.6140   50.6090 C.3   386  GLY386      0.2014
     29  C         20.6320   23.6610   49.7530 C.2   386  GLY386      0.2639
     30  O         21.7360   23.2530   50.1310 O.2   386  GLY386     -0.2714
     31  N         20.0820   23.3140   48.5990 N.am  387  GLY387     -0.1954
     32  CA        20.6420   22.2570   47.7770 C.3   387  GLY387      0.1869
     33  C         21.3780   22.8250   46.5740 C.2   387  GLY387      0.2309
     34  O         21.7060   24.0090   46.5290 O.2   387  GLY387     -0.2863
     35  N         20.4890   23.5010   43.6240 N.3   389  ASP389     -0.1225
     36  CA        19.8040   24.5070   42.8200 C.3   389  ASP389      0.1805
     37  C         19.9710   25.9680   43.3340 C.2   389  ASP389      0.2598
     38  O         19.4610   26.9140   42.7430 O.2   389  ASP389     -0.2718
     39  CB        18.3180   24.1990   42.7710 C.3   389  ASP389      0.1424
     40  CG        17.6540   24.1630   44.1530 C.2   389  ASP389      0.3668
     41  OD1       16.4170   24.4180   44.1960 O.co2 389  ASP389     -0.2456
     42  OD2       18.3040   23.8120   45.1780 O.co2 389  ASP389     -0.2456
     43  N         20.6710   26.1630   44.4300 N.am  390  ASN390     -0.1961
     44  CA        20.9500   27.5170   44.8880 C.3   390  ASN390      0.1804
     45  C         21.6510   28.3250   43.7550 C.2   390  ASN390      0.2463
     46  O         22.7090   27.9200   43.2790 O.2   390  ASN390     -0.2730
     47  CB        21.8240   27.4040   46.1280 C.3   390  ASN390      0.1195
     48  CG        22.1400   28.7230   46.7620 C.2   390  ASN390      0.2630
     49  OD1       22.4060   29.7180   46.0830 O.2   390  ASN390     -0.2716
     50  ND2       22.1760   28.7250   48.0910 N.am  390  ASN390     -0.0877
     51  N         21.0790   29.4690   43.3300 N.am  391  PRO391     -0.2716
     52  CA        21.5980   30.2520   42.2010 C.3   391  PRO391      0.1536
     53  C         22.9520   30.8770   42.4130 C.2   391  PRO391      0.2598
     54  O         23.5740   31.3530   41.4550 O.2   391  PRO391     -0.2715
     55  CB        20.5240   31.3450   41.9920 C.3   391  PRO391      0.0310
     56  CG        19.8110   31.4270   43.2880 C.3   391  PRO391      0.0237
     57  CD        19.8590   30.0790   43.9000 C.3   391  PRO391      0.0939
     58  N         23.4140   30.9040   43.6570 N.am  392  HIS392     -0.1974
     59  CA        24.7080   31.4680   43.9890 C.3   392  HIS392      0.1656
     60  C         25.8370   30.4720   43.8420 C.2   392  HIS392      0.2291
     61  O         26.9900   30.8700   43.8400 O.2   392  HIS392     -0.2864
     62  CB        24.6730   32.0880   45.3920 C.3   392  HIS392      0.0771
     63  CG        23.6250   33.1170   45.5180 C.ar  392  HIS392      0.0820
     64  ND1       23.7350   34.3590   44.9290 N.ar  392  HIS392     -0.2267
     65  CD2       22.3970   33.0750   46.0820 C.ar  392  HIS392      0.1154
     66  CE1       22.6260   35.0410   45.1310 C.ar  392  HIS392      0.1986
     67  NE2       21.8080   34.2930   45.8510 N.ar  392  HIS392     -0.2212
@<TRIPOS>BOND
     1    54    53    2
     2    55    52    1
     3    55    56    1
     4    52    53    1
     5    52    51    1
     6    53    58   am
     7    38    37    2
     8    39    36    1
     9    39    40    1
    10    36    37    1
    11    36    35    1
    12    46    45    2
    13    56    57    1
    14    51    45   am
    15    51    57    1
    16    37    43   am
    17    58    59    1
    18    45    44    1
    19    61    60    2
    20    60    59    1
    21    59    62    1
    22    40    41   ar
    23    40    42   ar
    24    43    44    1
    25    44    47    1
    26    64    66   ar
    27    64    63   ar
    28    66    67   ar
    29    62    63    1
    30    63    65   ar
    31     4     3    2
    32    67    65   ar
    33     7     8    2
    34     7     6    1
    35    49    48    2
    36    47    48    1
    37    34    33    2
    38    33    32    1
    39    48    50   am
    40     6     5    1
    41     6     9    1
    42     3     5   am
    43     3     2    1
    44     1     2    1
    45    10     9    1
    46    32    31    1
    47     9    11    1
    48    31    29   am
    49    19    21   ar
    50    19    17   ar
    51    16    17    1
    52    16    13    1
    53    15    14    2
    54    14    13    1
    55    21    22   ar
    56    29    30    2
    57    29    28    1
    58    26    25    2
    59    17    18   ar
    60    12    13    1
    61    28    27    1
    62    22    20   ar
    63    25    27   am
    64    25    24    1
    65    18    20   ar
    66    23    24    1
