@<TRIPOS>MOLECULE
tmp/5cpsB04.pdb
 118 117 0 0 0
SMALL
GASTEIGER

@<TRIPOS>ATOM
      1  N         23.6760   55.2510   52.3520 N.3    77  TYR77      -0.1241
      2  CA        22.3400   54.8450   51.9690 C.3    77  TYR77       0.1605
      3  C         21.2680   55.6680   52.6660 C.2    77  TYR77       0.2264
      4  O         20.1080   55.3850   52.5180 O.2    77  TYR77      -0.2867
      5  CB        22.1330   53.3270   52.1840 C.3    77  TYR77       0.0534
      6  CG        23.0520   52.5380   51.2760 C.ar   77  TYR77      -0.0201
      7  CD1       22.6930   52.2510   49.9410 C.ar   77  TYR77      -0.0009
      8  CD2       24.2920   52.1220   51.7080 C.ar   77  TYR77      -0.0009
      9  CE1       23.5530   51.5460   49.1050 C.ar   77  TYR77       0.0417
     10  CE2       25.1440   51.4530   50.8710 C.ar   77  TYR77       0.0417
     11  CZ        24.7660   51.1480   49.5790 C.ar   77  TYR77       0.1957
     12  OH        25.6560   50.4980   48.7830 O.3    77  TYR77      -0.2866
     13  N         20.6190   53.7910   45.0700 N.3   236  PRO236     -0.2116
     14  CA        19.4370   53.1620   45.6970 C.3   236  PRO236      0.1372
     15  C         18.1820   53.5480   44.9620 C.2   236  PRO236      0.2244
     16  O         18.0440   54.6930   44.5350 O.2   236  PRO236     -0.2868
     17  CB        19.4490   53.6800   47.1400 C.3   236  PRO236      0.0268
     18  CG        20.7830   54.3510   47.2970 C.3   236  PRO236      0.0207
     19  CD        21.3650   54.6640   45.9870 C.3   236  PRO236      0.0892
     20  N         11.4930   50.3030   55.7250 N.3   274  TRP274     -0.1241
     21  CA        12.5300   51.2710   55.4270 C.3   274  TRP274      0.1605
     22  C         12.0210   52.6840   55.6230 C.2   274  TRP274      0.2264
     23  O         12.7380   53.5320   56.1440 O.2   274  TRP274     -0.2867
     24  CB        13.0600   51.1060   53.9990 C.3   274  TRP274      0.0550
     25  CG        13.5000   49.7350   53.6890 C.ar  274  TRP274      0.0003
     26  CD1       14.0190   48.8240   54.5560 C.ar  274  TRP274      0.0946
     27  CD2       13.4680   49.0960   52.4010 C.ar  274  TRP274      0.0152
     28  NE1       14.2930   47.6450   53.8910 N.ar  274  TRP274     -0.2442
     29  CE2       13.9740   47.8010   52.5650 C.ar  274  TRP274      0.0810
     30  CE3       13.0460   49.5000   51.1340 C.ar  274  TRP274      0.0012
     31  CZ2       14.0830   46.8950   51.4970 C.ar  274  TRP274      0.0191
     32  CZ3       13.1640   48.6070   50.0680 C.ar  274  TRP274      0.0001
     33  CH2       13.6790   47.3170   50.2640 C.ar  274  TRP274      0.0015
     34  N         25.0750   50.0760   39.7510 N.3   307  ARG307     -0.1245
     35  CA        24.1860   49.1410   40.4390 C.3   307  ARG307      0.1563
     36  C         22.9570   49.8880   40.9560 C.2   307  ARG307      0.2260
     37  O         23.1030   50.9710   41.4930 O.2   307  ARG307     -0.2867
     38  CB        24.9150   48.4780   41.6230 C.3   307  ARG307      0.0307
     39  CG        24.0690   47.6030   42.5790 C.3   307  ARG307      0.0489
     40  CD        24.8400   47.0710   43.8370 C.3   307  ARG307      0.2205
     41  NE        24.2050   47.3890   45.1210 N.pl3 307  ARG307     -0.0865
     42  CZ        24.1040   46.5970   46.2100 C.cat 307  ARG307      0.5346
     43  NH1       24.5960   45.3600   46.2560 N.pl3 307  ARG307      0.1354
     44  NH2       23.4490   47.0440   47.2940 N.pl3 307  ARG307      0.1354
     45  N         20.0910   49.4080   43.7100 N.3   309  ASP309     -0.1225
     46  CA        19.6340   48.5970   44.8300 C.3   309  ASP309      0.1805
     47  C         18.1400   48.4450   44.7960 C.2   309  ASP309      0.2597
     48  O         17.4200   49.4280   44.5700 O.2   309  ASP309     -0.2718
     49  CB        20.0570   49.2370   46.1460 C.3   309  ASP309      0.1424
     50  CG        21.5090   49.6320   46.1350 C.2   309  ASP309      0.3668
     51  OD1       22.3260   48.7000   45.9790 O.co2 309  ASP309     -0.2456
     52  OD2       21.8130   50.8470   46.1260 O.co2 309  ASP309     -0.2456
     53  N         17.6750   47.2330   45.0430 N.am  310  HIS310     -0.1975
     54  CA        16.2490   46.9040   45.0640 C.3   310  HIS310      0.1656
     55  C         15.6310   47.1920   43.6960 C.2   310  HIS310      0.2291
     56  O         14.5570   47.7630   43.5780 O.2   310  HIS310     -0.2864
     57  CB        15.5210   47.6200   46.1880 C.3   310  HIS310      0.0771
     58  CG        14.2320   46.9640   46.5790 C.ar  310  HIS310      0.0820
     59  ND1       14.1820   45.6990   47.1170 N.ar  310  HIS310     -0.2267
     60  CD2       12.9540   47.4070   46.5320 C.ar  310  HIS310      0.1154
     61  CE1       12.9290   45.3850   47.3880 C.ar  310  HIS310      0.1986
     62  NE2       12.1570   46.4030   47.0360 N.ar  310  HIS310     -0.2212
     63  N         20.5330   44.8460   41.3620 N.3   356  GLU356     -0.1245
     64  CA        20.5880   44.1070   42.6180 C.3   356  GLU356      0.1567
     65  C         19.2540   43.3750   42.7130 C.2   356  GLU356      0.2260
     66  O         18.1910   43.9880   42.8760 O.2   356  GLU356     -0.2867
     67  CB        20.8130   44.9910   43.8490 C.3   356  GLU356      0.0388
     68  CG        20.8460   44.2510   45.1770 C.3   356  GLU356      0.1160
     69  CD        19.4760   44.0370   45.8220 C.2   356  GLU356      0.3649
     70  OE1       18.7650   45.0260   46.1230 O.co2 356  GLU356     -0.2457
     71  OE2       19.1000   42.8560   46.0420 O.co2 356  GLU356     -0.2457
     72  N         29.1320   44.9460   50.7870 N.3   408  HIS408     -0.1226
     73  CA        29.3380   45.7800   51.9640 C.3   408  HIS408      0.1752
     74  C         28.3740   45.4320   53.0970 C.2   408  HIS408      0.2596
     75  O         28.6090   45.8540   54.2220 O.2   408  HIS408     -0.2718
     76  CB        29.1390   47.2580   51.5900 C.3   408  HIS408      0.0759
     77  CG        27.7550   47.5450   51.1210 C.ar  408  HIS408      0.0818
     78  ND1       27.3220   47.2130   49.8680 N.ar  408  HIS408     -0.2268
     79  CD2       26.6780   48.0390   51.7750 C.ar  408  HIS408      0.1154
     80  CE1       26.0450   47.5200   49.7510 C.ar  408  HIS408      0.1986
     81  NE2       25.6270   48.0020   50.8960 N.ar  408  HIS408     -0.2212
     82  N         27.2660   44.7440   52.8030 N.am  409  ASP409     -0.1974
     83  CA        26.2800   44.3650   53.8350 C.3   409  ASP409      0.1709
     84  C         26.6260   43.0190   54.5130 C.2   409  ASP409      0.2293
     85  O         26.0080   42.6540   55.5150 O.2   409  ASP409     -0.2864
     86  CB        24.9120   44.1910   53.2050 C.3   409  ASP409      0.1436
     87  CG        24.1890   45.5100   52.9620 C.2   409  ASP409      0.3671
     88  OD1       24.4790   46.5370   53.6160 O.co2 409  ASP409     -0.2456
     89  OD2       23.3050   45.4730   52.0930 O.co2 409  ASP409     -0.2456
     90  N         29.4310   47.1650   57.0510 N.3   473  ASN473     -0.1240
     91  CA        28.1080   47.4320   57.6260 C.3   473  ASN473      0.1653
     92  C         27.4340   46.1600   58.1130 C.2   473  ASN473      0.2266
     93  O         27.5650   45.1110   57.4760 O.2   473  ASN473     -0.2867
     94  CB        27.2210   48.0040   56.5200 C.3   473  ASN473      0.1155
     95  CG        25.8000   48.2430   56.9660 C.2   473  ASN473      0.2627
     96  OD1       25.5470   48.9000   57.9720 O.2   473  ASN473     -0.2716
     97  ND2       24.8570   47.7140   56.2000 N.am  473  ASN473     -0.0877
     98  N         23.5950   45.1920   58.6700 N.3   475  PRO475     -0.2116
     99  CA        22.2620   45.7170   58.4570 C.3   475  PRO475      0.1372
    100  C         21.4320   45.7500   59.7280 C.2   475  PRO475      0.2244
    101  O         21.5650   44.8680   60.5750 O.2   475  PRO475     -0.2868
    102  CB        21.6690   44.7320   57.4660 C.3   475  PRO475      0.0268
    103  CG        22.8340   44.3120   56.6320 C.3   475  PRO475      0.0207
    104  CD        23.9980   44.2850   57.5940 C.3   475  PRO475      0.0892
    105  N         30.2440   51.8290   58.4890 N.3   482  TRP482     -0.1241
    106  CA        30.7650   52.6800   57.4190 C.3   482  TRP482      0.1605
    107  C         32.1530   53.2720   57.7170 C.2   482  TRP482      0.2264
    108  O         32.6470   54.1230   56.9640 O.2   482  TRP482     -0.2867
    109  CB        29.7510   53.7950   57.0960 C.3   482  TRP482      0.0550
    110  CG        28.3360   53.2890   56.9760 C.ar  482  TRP482      0.0003
    111  CD1       27.2950   53.5670   57.8250 C.ar  482  TRP482      0.0946
    112  CD2       27.8210   52.4220   55.9850 C.ar  482  TRP482      0.0152
    113  NE1       26.1650   52.9180   57.3960 N.ar  482  TRP482     -0.2442
    114  CE2       26.4650   52.1920   56.2870 C.ar  482  TRP482      0.0810
    115  CE3       28.3820   51.7610   54.8750 C.ar  482  TRP482      0.0012
    116  CZ2       25.6380   51.3770   55.4790 C.ar  482  TRP482      0.0191
    117  CZ3       27.5640   50.9720   54.0810 C.ar  482  TRP482      0.0001
    118  CH2       26.2040   50.7600   54.4060 C.ar  482  TRP482      0.0015
@<TRIPOS>BOND
     1    34    35    1
     2    35    36    1
     3    35    38    1
     4    36    37    2
     5    63    64    1
     6    38    39    1
     7    39    40    1
     8    64    65    1
     9    64    67    1
    10    65    66    2
    11    56    55    2
    12    55    54    1
    13    45    46    1
    14    40    41    1
    15    67    68    1
    16    16    15    2
    17    48    47    2
    18    47    46    1
    19    47    53   am
    20    46    49    1
    21    15    14    1
    22    53    54    1
    23    54    57    1
    24    13    14    1
    25    13    19    1
    26    41    42    2
    27    68    69    1
    28    14    17    1
    29    69    71   ar
    30    69    70   ar
    31    51    50   ar
    32    19    18    1
    33    52    50   ar
    34    50    49    1
    35    57    58    1
    36    42    43    1
    37    42    44    1
    38    60    58   ar
    39    60    62   ar
    40    58    59   ar
    41    62    61   ar
    42    59    61   ar
    43    17    18    1
    44    12    11    1
    45     9    11   ar
    46     9     7   ar
    47    11    10   ar
    48    80    78   ar
    49    80    81   ar
    50    78    77   ar
    51     7     6   ar
    52    32    33   ar
    53    32    30   ar
    54    33    31   ar
    55    72    73    1
    56    10     8   ar
    57    81    79   ar
    58    77    76    1
    59    77    79   ar
    60    30    27   ar
    61     6     8   ar
    62     6     5    1
    63    31    29   ar
    64    76    73    1
    65    73    74    1
    66     2     5    1
    67     2     1    1
    68     2     3    1
    69    89    87   ar
    70    27    29   ar
    71    27    25   ar
    72     4     3    2
    73    29    28   ar
    74    82    74   am
    75    82    83    1
    76    87    86    1
    77    87    88   ar
    78    74    75    2
    79    86    83    1
    80    25    24    1
    81    25    26   ar
    82    83    84    1
    83    28    26   ar
    84    24    21    1
    85   117   118   ar
    86   117   115   ar
    87   118   116   ar
    88    84    85    2
    89   115   112   ar
    90    21    22    1
    91    21    20    1
    92   116   114   ar
    93    22    23    2
    94   112   114   ar
    95   112   110   ar
    96    97    95   am
    97   114   113   ar
    98    94    95    1
    99    94    91    1
   100   103   102    1
   101   103   104    1
   102   108   107    2
   103    95    96    2
   104   110   109    1
   105   110   111   ar
   106    90    91    1
   107   109   106    1
   108   113   111   ar
   109   106   107    1
   110   106   105    1
   111   102    99    1
   112    93    92    2
   113   104    98    1
   114    91    92    1
   115    99    98    1
   116    99   100    1
   117   100   101    2
