@<TRIPOS>MOLECULE
tmp/5cq7A00.pdb
 113 112 0 0 0
SMALL
GASTEIGER

@<TRIPOS>ATOM
      1  N         11.5220   29.7610   31.9260 N.3    32  TRP32      -0.1228
      2  CA        10.6240   30.5660   31.1370 C.3    32  TRP32       0.1722
      3  C         11.1650   31.9280   30.6460 C.2    32  TRP32       0.2437
      4  O         10.7130   32.3600   29.6160 O.2    32  TRP32      -0.2733
      5  CB         9.2090   30.7980   31.9590 C.3    32  TRP32       0.0563
      6  CG         9.4470   31.4710   33.3090 C.ar   32  TRP32       0.0003
      7  CD1        9.6320   30.7490   34.5030 C.ar   32  TRP32       0.0946
      8  CD2        9.5060   32.8690   33.6510 C.ar   32  TRP32       0.0152
      9  NE1        9.9180   31.6410   35.4990 N.ar   32  TRP32      -0.2442
     10  CE2        9.8820   32.9570   34.9950 C.ar   32  TRP32       0.0810
     11  CE3        9.3680   34.0870   32.9130 C.ar   32  TRP32       0.0012
     12  CZ2       10.0960   34.1920   35.6830 C.ar   32  TRP32       0.0191
     13  CZ3        9.5830   35.2870   33.5590 C.ar   32  TRP32       0.0001
     14  CH2        9.9380   35.3590   34.9530 C.ar   32  TRP32       0.0015
     15  N         12.1020   32.6070   31.2920 N.am   33  PRO33      -0.2718
     16  CA        12.5010   33.8750   30.6790 C.3    33  PRO33       0.1535
     17  C         13.4020   33.6870   29.4340 C.2    33  PRO33       0.2598
     18  O         13.7510   34.6970   28.7910 O.2    33  PRO33      -0.2715
     19  CB        13.3830   34.5690   31.7320 C.3    33  PRO33       0.0310
     20  CG        13.0480   33.8520   33.0870 C.3    33  PRO33       0.0237
     21  CD        12.6770   32.4100   32.6030 C.3    33  PRO33       0.0939
     22  N         13.8270   32.4280   29.2640 N.am   34  PHE34      -0.1974
     23  CA        14.9620   32.0700   28.3380 C.3    34  PHE34       0.1639
     24  C         14.4470   31.2010   27.1820 C.2    34  PHE34       0.2290
     25  O         15.2870   30.8730   26.3600 O.2    34  PHE34      -0.2864
     26  CB        16.1010   31.3230   29.0510 C.3    34  PHE34       0.0560
     27  CG        16.5480   32.0690   30.2650 C.ar   34  PHE34      -0.0200
     28  CD1       16.9620   33.4000   30.1600 C.ar   34  PHE34      -0.0042
     29  CD2       16.3400   31.5220   31.5380 C.ar   34  PHE34      -0.0042
     30  CE1       17.1590   34.2420   31.3590 C.ar   34  PHE34      -0.0003
     31  CE2       16.6830   32.3330   32.6910 C.ar   34  PHE34      -0.0003
     32  CZ        17.1020   33.7000   32.6310 C.ar   34  PHE34      -0.0000
     33  N         14.1070   37.4650   23.3390 N.3    38  VAL38      -0.1245
     34  CA        13.4030   38.6920   23.9270 C.3    38  VAL38       0.1561
     35  C         12.8230   39.5180   22.7930 C.2    38  VAL38       0.2260
     36  O         13.4900   39.5620   21.7170 O.2    38  VAL38      -0.2867
     37  CB        14.4090   39.5680   24.6270 C.3    38  VAL38       0.0252
     38  CG1       13.6880   40.9260   25.1990 C.3    38  VAL38       0.0019
     39  CG2       14.9330   38.8450   25.9390 C.3    38  VAL38       0.0019
     40  N          9.2750   45.1020   21.6340 N.3    42  LEU42      -0.1231
     41  CA         8.4630   45.5000   22.8080 C.3    42  LEU42       0.1693
     42  C          9.2520   45.8030   24.0060 C.2    42  LEU42       0.2592
     43  O          8.6710   46.0950   25.0100 O.2    42  LEU42      -0.2718
     44  CB         7.5170   44.3970   23.3800 C.3    42  LEU42       0.0284
     45  CG         6.5760   44.1580   22.1000 C.3    42  LEU42       0.0019
     46  CD1        5.7060   43.1170   22.3540 C.3    42  LEU42       0.0001
     47  CD2        5.8260   45.4450   21.3420 C.3    42  LEU42       0.0001
     48  N         10.5680   45.6150   23.9990 N.am   43  VAL43      -0.1966
     49  CA        11.2890   45.7240   25.2970 C.3    43  VAL43       0.1712
     50  C         12.2860   46.8410   25.0700 C.2    43  VAL43       0.2458
     51  O         13.3800   46.7160   24.4870 O.2    43  VAL43      -0.2730
     52  CB        12.0210   44.4840   25.6970 C.3    43  VAL43       0.0289
     53  CG1       12.8000   44.7090   27.0570 C.3    43  VAL43       0.0023
     54  CG2       11.0080   43.3080   25.9500 C.3    43  VAL43       0.0023
     55  N         11.8220   48.0810   25.4930 N.am   44  PRO44      -0.2727
     56  CA        12.7440   49.3010   25.4530 C.3    44  PRO44       0.1402
     57  C         14.2210   48.9800   25.9600 C.2    44  PRO44       0.2269
     58  O         14.3490   48.3550   26.9680 O.2    44  PRO44      -0.2865
     59  CB        11.9850   50.3690   26.4830 C.3    44  PRO44       0.0296
     60  CG        10.7130   49.7720   26.9800 C.3    44  PRO44       0.0237
     61  CD        10.6960   48.2360   26.5400 C.3    44  PRO44       0.0939
     62  N         16.5000   46.9460   25.0060 N.3    46  TYR46      -0.1241
     63  CA        17.1660   45.5690   24.7940 C.3    46  TYR46       0.1605
     64  C         18.0130   45.5490   23.5620 C.2    46  TYR46       0.2264
     65  O         19.1720   45.1430   23.6090 O.2    46  TYR46      -0.2867
     66  CB        16.0870   44.4300   24.7040 C.3    46  TYR46       0.0534
     67  CG        16.7010   43.1450   25.2730 C.ar   46  TYR46      -0.0201
     68  CD1       16.9050   42.9430   26.6550 C.ar   46  TYR46      -0.0009
     69  CD2       17.2590   42.2800   24.3760 C.ar   46  TYR46      -0.0009
     70  CE1       17.5280   41.7180   27.0790 C.ar   46  TYR46       0.0417
     71  CE2       17.9250   40.9780   24.8480 C.ar   46  TYR46       0.0417
     72  CZ        18.0490   40.7970   26.1300 C.ar   46  TYR46       0.1957
     73  OH        18.7660   39.5950   26.6360 O.3    46  TYR46      -0.2866
     74  N         23.4600   33.4530   27.1860 N.3    81  VAL81      -0.1245
     75  CA        22.0330   33.7340   27.5500 C.3    81  VAL81       0.1561
     76  C         22.1260   34.3050   29.0490 C.2    81  VAL81       0.2260
     77  O         21.4150   35.2580   29.4470 O.2    81  VAL81      -0.2867
     78  CB        21.3600   32.4210   27.6730 C.3    81  VAL81       0.0252
     79  CG1       19.7580   32.6520   28.3100 C.3    81  VAL81       0.0019
     80  CG2       21.0110   31.8890   26.1410 C.3    81  VAL81       0.0019
     81  N         21.4450   38.0660   30.5480 N.3    85  CYS85      -0.1235
     82  CA        20.2900   38.2400   31.5770 C.3    85  CYS85       0.1677
     83  C         20.8920   39.0740   32.8140 C.2    85  CYS85       0.2270
     84  O         20.2080   39.9690   33.2520 O.2    85  CYS85      -0.2867
     85  CB        20.0080   36.8860   32.1670 C.3    85  CYS85       0.0956
     86  SG        18.7070   36.8360   33.5140 S.3    85  CYS85      -0.0801
     87  N         21.0020   42.8770   31.8610 N.3    88  PHE88      -0.1227
     88  CA        19.7920   43.6070   31.8120 C.3    88  PHE88       0.1736
     89  C         18.9460   43.5570   33.0540 C.2    88  PHE88       0.2595
     90  O         17.9480   44.3290   33.0340 O.2    88  PHE88      -0.2718
     91  CB        18.9300   43.1060   30.5940 C.3    88  PHE88       0.0547
     92  CG        17.9870   44.1410   30.0570 C.ar   88  PHE88      -0.0202
     93  CD1       18.5300   45.1480   29.2120 C.ar   88  PHE88      -0.0042
     94  CD2       16.5780   44.0510   30.2440 C.ar   88  PHE88      -0.0042
     95  CE1       17.6760   46.0850   28.5630 C.ar   88  PHE88      -0.0003
     96  CE2       15.7330   45.0760   29.6190 C.ar   88  PHE88      -0.0003
     97  CZ        16.3300   45.9680   28.7390 C.ar   88  PHE88      -0.0000
     98  N         19.1160   42.6390   34.0100 N.am   89  ASN89      -0.1974
     99  CA        18.1010   42.4470   35.0090 C.3    89  ASN89       0.1688
    100  C         18.7530   42.6470   36.3530 C.2    89  ASN89       0.2292
    101  O         19.8950   42.1340   36.5210 O.2    89  ASN89      -0.2864
    102  CB        17.5540   41.0560   34.9690 C.3    89  ASN89       0.1181
    103  CG        16.7110   40.8620   33.7470 C.2    89  ASN89       0.2629
    104  OD1       15.4510   41.0470   33.7490 O.2    89  ASN89      -0.2716
    105  ND2       17.3810   40.3670   32.6450 N.am   89  ASN89      -0.0877
    106  N         13.4680   37.4990   37.2620 N.3    95  ILE95      -0.1245
    107  CA        14.2100   36.9850   36.0640 C.3    95  ILE95       0.1561
    108  C         15.7660   36.9660   36.4070 C.2    95  ILE95       0.2260
    109  O         16.4390   35.9800   36.0410 O.2    95  ILE95      -0.2867
    110  CB        13.9800   37.9210   34.8730 C.3    95  ILE95       0.0252
    111  CG1       12.5450   37.6730   34.3520 C.3    95  ILE95       0.0019
    112  CG2       14.9380   37.6590   33.6940 C.3    95  ILE95       0.0019
    113  CD1       12.0890   38.7450   33.2360 C.3    95  ILE95       0.0001
@<TRIPOS>BOND
     1    47    45    1
     2    40    41    1
     3    36    35    2
     4    45    46    1
     5    45    44    1
     6    35    34    1
     7    41    44    1
     8    41    42    1
     9    33    34    1
    10    64    65    2
    11    64    63    1
    12    34    37    1
    13    48    42   am
    14    48    49    1
    15    42    43    2
    16    69    71   ar
    17    69    67   ar
    18    51    50    2
    19    37    38    1
    20    37    39    1
    21    66    63    1
    22    66    67    1
    23    63    62    1
    24    71    72   ar
    25    50    49    1
    26    50    55   am
    27    67    68   ar
    28    49    52    1
    29    56    55    1
    30    56    57    1
    31    56    59    1
    32    55    61    1
    33    52    54    1
    34    52    53    1
    35    57    58    2
    36    72    73    1
    37    72    70   ar
    38    80    78    1
    39    25    24    2
    40    59    60    1
    41    61    60    1
    42    68    70   ar
    43    24    23    1
    44    74    75    1
    45    75    78    1
    46    75    76    1
    47    78    79    1
    48    23    26    1
    49    23    22    1
    50    95    97   ar
    51    95    93   ar
    52    97    96   ar
    53    18    17    2
    54    76    77    2
    55    26    27    1
    56    93    92   ar
    57    22    17   am
    58    17    16    1
    59     4     3    2
    60    96    94   ar
    61    92    94   ar
    62    92    91    1
    63    28    27   ar
    64    28    30   ar
    65    27    29   ar
    66    81    82    1
    67    91    88    1
    68     3     2    1
    69     3    15   am
    70    16    15    1
    71    16    19    1
    72     2     1    1
    73     2     5    1
    74    15    21    1
    75    30    32   ar
    76    29    31   ar
    77    82    85    1
    78    82    83    1
    79    19    20    1
    80    88    87    1
    81    88    89    1
    82     5     6    1
    83    85    86    1
    84    21    20    1
    85    32    31   ar
    86   105   103   am
    87    83    84    2
    88    11    13   ar
    89    11     8   ar
    90    90    89    2
    91    89    98   am
    92   113   111    1
    93     6     8   ar
    94     6     7   ar
    95    13    14   ar
    96     8    10   ar
    97   112   110    1
    98   103   104    2
    99   103   102    1
   100    98    99    1
   101   111   110    1
   102     7     9   ar
   103   110   107    1
   104    14    12   ar
   105   102    99    1
   106    10     9   ar
   107    10    12   ar
   108    99   100    1
   109   109   108    2
   110   107   108    1
   111   107   106    1
   112   100   101    2
