@<TRIPOS>MOLECULE
tmp/5cq8A00.pdb
 91 90 0 0 0
SMALL
GASTEIGER

@<TRIPOS>ATOM
      1  N         11.6690   30.5660   32.3500 N.3    32  TRP32      -0.1228
      2  CA        10.7170   31.3830   31.5830 C.3    32  TRP32       0.1722
      3  C         11.2520   32.7030   30.9840 C.2    32  TRP32       0.2437
      4  O         10.7860   33.0930   29.9010 O.2    32  TRP32      -0.2733
      5  CB         9.4670   31.6830   32.4310 C.3    32  TRP32       0.0563
      6  CG         9.7390   32.3690   33.7180 C.ar   32  TRP32       0.0003
      7  CD1        9.9620   31.7820   34.9280 C.ar   32  TRP32       0.0946
      8  CD2        9.8220   33.7810   33.9350 C.ar   32  TRP32       0.0152
      9  NE1       10.1780   32.7410   35.8860 N.ar   32  TRP32      -0.2442
     10  CE2       10.1040   33.9770   35.3020 C.ar   32  TRP32       0.0810
     11  CE3        9.6960   34.9010   33.1000 C.ar   32  TRP32       0.0012
     12  CZ2       10.2600   35.2460   35.8590 C.ar   32  TRP32       0.0191
     13  CZ3        9.8490   36.1660   33.6570 C.ar   32  TRP32       0.0001
     14  CH2       10.1250   36.3260   35.0220 C.ar   32  TRP32       0.0015
     15  N         12.2380   33.3780   31.6280 N.am   33  PRO33      -0.2718
     16  CA        12.7320   34.5780   30.9410 C.3    33  PRO33       0.1535
     17  C         13.5830   34.2640   29.7020 C.2    33  PRO33       0.2598
     18  O         13.8280   35.1920   28.9340 O.2    33  PRO33      -0.2715
     19  CB        13.6020   35.2740   32.0090 C.3    33  PRO33       0.0310
     20  CG        13.2420   34.6200   33.3230 C.3    33  PRO33       0.0237
     21  CD        12.9090   33.2060   32.9290 C.3    33  PRO33       0.0939
     22  N         13.9980   33.0040   29.5210 N.am   34  PHE34      -0.1974
     23  CA        15.0330   32.6340   28.5410 C.3    34  PHE34       0.1639
     24  C         14.5640   31.7150   27.4060 C.2    34  PHE34       0.2290
     25  O         15.3800   31.3320   26.5520 O.2    34  PHE34      -0.2864
     26  CB        16.2230   31.9740   29.2740 C.3    34  PHE34       0.0560
     27  CG        16.6240   32.7130   30.5290 C.ar   34  PHE34      -0.0200
     28  CD1       17.1780   34.0040   30.4470 C.ar   34  PHE34      -0.0042
     29  CD2       16.4220   32.1510   31.7980 C.ar   34  PHE34      -0.0042
     30  CE1       17.5130   34.7300   31.6000 C.ar   34  PHE34      -0.0003
     31  CE2       16.7750   32.8750   32.9640 C.ar   34  PHE34      -0.0003
     32  CZ        17.3150   34.1650   32.8610 C.ar   34  PHE34      -0.0000
     33  N         14.2120   37.9120   23.4690 N.3    38  VAL38      -0.1245
     34  CA        13.6370   39.1490   23.9880 C.3    38  VAL38       0.1561
     35  C         13.0440   39.9620   22.8360 C.2    38  VAL38       0.2260
     36  O         13.6700   40.1080   21.7840 O.2    38  VAL38      -0.2867
     37  CB        14.6940   39.9840   24.7360 C.3    38  VAL38       0.0252
     38  CG1       14.1470   41.3720   25.0850 C.3    38  VAL38       0.0019
     39  CG2       15.1890   39.2360   25.9880 C.3    38  VAL38       0.0019
     40  N         10.8440   45.9230   24.3720 N.3    43  VAL43      -0.1245
     41  CA        11.6430   46.0740   25.5770 C.3    43  VAL43       0.1561
     42  C         12.6650   47.1950   25.4060 C.2    43  VAL43       0.2260
     43  O         13.6550   47.0420   24.6800 O.2    43  VAL43      -0.2867
     44  CB        12.3610   44.7600   25.9490 C.3    43  VAL43       0.0252
     45  CG1       13.2260   44.9570   27.1840 C.3    43  VAL43       0.0019
     46  CG2       11.3380   43.6380   26.1760 C.3    43  VAL43       0.0019
     47  N         16.9990   47.2190   25.1720 N.3    46  TYR46      -0.1241
     48  CA        17.6430   45.9150   24.9490 C.3    46  TYR46       0.1605
     49  C         18.4870   45.8650   23.6710 C.2    46  TYR46       0.2264
     50  O         19.6260   45.3740   23.6870 O.2    46  TYR46      -0.2867
     51  CB        16.6090   44.7740   24.9260 C.3    46  TYR46       0.0534
     52  CG        17.2480   43.4690   25.3550 C.ar   46  TYR46      -0.0201
     53  CD1       17.3370   43.1280   26.6990 C.ar   46  TYR46      -0.0009
     54  CD2       17.8010   42.6070   24.4220 C.ar   46  TYR46      -0.0009
     55  CE1       17.9560   41.9450   27.1040 C.ar   46  TYR46       0.0417
     56  CE2       18.4150   41.4180   24.8100 C.ar   46  TYR46       0.0417
     57  CZ        18.4950   41.0980   26.1500 C.ar   46  TYR46       0.1957
     58  OH        19.1140   39.9280   26.5430 O.3    46  TYR46      -0.2866
     59  N         21.8340   38.4280   30.7580 N.3    85  CYS85      -0.1235
     60  CA        20.8920   38.6220   31.8580 C.3    85  CYS85       0.1677
     61  C         21.5050   39.4740   32.9770 C.2    85  CYS85       0.2270
     62  O         20.8420   40.3620   33.5110 O.2    85  CYS85      -0.2867
     63  CB        20.4170   37.2700   32.4130 C.3    85  CYS85       0.0956
     64  SG        19.1360   37.3510   33.7070 S.3    85  CYS85      -0.0801
     65  N         21.7400   43.2630   32.0760 N.3    88  PHE88      -0.1227
     66  CA        20.4920   44.0080   31.9150 C.3    88  PHE88       0.1736
     67  C         19.5980   44.0260   33.1550 C.2    88  PHE88       0.2595
     68  O         18.7050   44.8770   33.2690 O.2    88  PHE88      -0.2718
     69  CB        19.6960   43.4340   30.7350 C.3    88  PHE88       0.0547
     70  CG        18.6830   44.3900   30.1530 C.ar   88  PHE88      -0.0202
     71  CD1       19.0770   45.4100   29.2920 C.ar   88  PHE88      -0.0042
     72  CD2       17.3320   44.2520   30.4410 C.ar   88  PHE88      -0.0042
     73  CE1       18.1330   46.2910   28.7430 C.ar   88  PHE88      -0.0003
     74  CE2       16.3860   45.1180   29.8940 C.ar   88  PHE88      -0.0003
     75  CZ        16.7890   46.1430   29.0460 C.ar   88  PHE88      -0.0000
     76  N         19.8240   43.1020   34.0810 N.am   89  ASN89      -0.1974
     77  CA        18.9400   42.9530   35.2360 C.3    89  ASN89       0.1688
     78  C         19.6680   43.0880   36.5820 C.2    89  ASN89       0.2292
     79  O         20.8110   42.6430   36.7280 O.2    89  ASN89      -0.2864
     80  CB        18.2190   41.5990   35.1840 C.3    89  ASN89       0.1181
     81  CG        17.3700   41.4290   33.9310 C.2    89  ASN89       0.2629
     82  OD1       16.2130   41.8460   33.8900 O.2    89  ASN89      -0.2716
     83  ND2       17.9350   40.7880   32.9130 N.am   89  ASN89      -0.0877
     84  N         13.9520   38.2830   37.3430 N.3    95  ILE95      -0.1245
     85  CA        14.7020   37.8070   36.1810 C.3    95  ILE95       0.1561
     86  C         16.1790   37.6390   36.5360 C.2    95  ILE95       0.2260
     87  O         16.8090   36.6390   36.1590 O.2    95  ILE95      -0.2867
     88  CB        14.5340   38.7580   34.9780 C.3    95  ILE95       0.0252
     89  CG1       13.0790   38.7200   34.4890 C.3    95  ILE95       0.0019
     90  CG2       15.4920   38.3790   33.8510 C.3    95  ILE95       0.0019
     91  CD1       12.7670   39.6920   33.3720 C.3    95  ILE95       0.0001
@<TRIPOS>BOND
     1    36    35    2
     2    35    34    1
     3    33    34    1
     4    49    50    2
     5    49    48    1
     6    34    37    1
     7    40    41    1
     8    54    56   ar
     9    54    52   ar
    10    43    42    2
    11    37    38    1
    12    37    39    1
    13    56    57   ar
    14    51    48    1
    15    51    52    1
    16    48    47    1
    17    52    53   ar
    18    42    41    1
    19    41    44    1
    20    44    46    1
    21    44    45    1
    22    57    58    1
    23    57    55   ar
    24    25    24    2
    25    53    55   ar
    26    24    23    1
    27    23    26    1
    28    23    22    1
    29    73    75   ar
    30    73    71   ar
    31    18    17    2
    32    75    74   ar
    33    26    27    1
    34    71    70   ar
    35    22    17   am
    36    17    16    1
    37    74    72   ar
    38     4     3    2
    39    70    72   ar
    40    70    69    1
    41    28    27   ar
    42    28    30   ar
    43    27    29   ar
    44    69    66    1
    45    59    60    1
    46    16    15    1
    47    16    19    1
    48     3     2    1
    49     3    15   am
    50     2     1    1
    51     2     5    1
    52    30    32   ar
    53    15    21    1
    54    29    31   ar
    55    60    63    1
    56    60    61    1
    57    66    65    1
    58    66    67    1
    59    19    20    1
    60    63    64    1
    61     5     6    1
    62    32    31   ar
    63    83    81   am
    64    21    20    1
    65    61    62    2
    66    11    13   ar
    67    11     8   ar
    68    67    68    2
    69    67    76   am
    70    91    89    1
    71    13    14   ar
    72     6     8   ar
    73     6     7   ar
    74    90    88    1
    75    82    81    2
    76    81    80    1
    77     8    10   ar
    78    76    77    1
    79    89    88    1
    80     7     9   ar
    81    88    85    1
    82    14    12   ar
    83    80    77    1
    84    77    78    1
    85    10    12   ar
    86    10     9   ar
    87    87    86    2
    88    85    86    1
    89    85    84    1
    90    78    79    2
