@<TRIPOS>MOLECULE
tmp/5cqeA00.pdb
 85 82 0 0 0
SMALL
GASTEIGER

@<TRIPOS>ATOM
      1  N         45.4680   22.3260   43.6450 N.3     4  LEU4       -0.1231
      2  CA        46.2310   21.1660   44.1060 C.3     4  LEU4        0.1693
      3  C         47.4900   21.0350   43.3240 C.2     4  LEU4        0.2591
      4  O         48.5300   20.6660   43.8340 O.2     4  LEU4       -0.2718
      5  CB        45.5170   19.8610   43.7170 C.3     4  LEU4        0.0284
      6  CG        44.4960   19.0870   44.5370 C.3     4  LEU4        0.0019
      7  CD1       43.7930   18.0390   43.6850 C.3     4  LEU4        0.0001
      8  CD2       45.2870   18.4380   45.6520 C.3     4  LEU4        0.0001
      9  N         47.3140   21.2760   42.0400 N.am    5  LEU5       -0.1980
     10  CA        48.3150   21.0210   41.0510 C.3     5  LEU5        0.1596
     11  C         49.5140   22.0020   41.1260 C.2     5  LEU5        0.2287
     12  O         50.6530   21.6040   40.9390 O.2     5  LEU5       -0.2864
     13  CB        47.6140   20.9700   39.7020 C.3     5  LEU5        0.0297
     14  CG        46.4880   19.8920   39.6440 C.3     5  LEU5        0.0022
     15  CD1       45.6870   19.9680   38.3510 C.3     5  LEU5        0.0001
     16  CD2       47.0400   18.4760   39.8080 C.3     5  LEU5        0.0001
     17  N         50.6340   17.6720   31.6370 N.3    32  VAL32      -0.1231
     18  CA        49.7850   16.6220   32.1740 C.3    32  VAL32       0.1692
     19  C         48.6330   17.2080   32.9940 C.2    32  VAL32       0.2592
     20  O         47.4760   16.8600   32.7770 O.2    32  VAL32      -0.2718
     21  CB        50.5750   15.6230   33.0250 C.3    32  VAL32       0.0266
     22  CG1       49.6080   14.7140   33.7660 C.3    32  VAL32       0.0020
     23  CG2       51.5110   14.8290   32.1260 C.3    32  VAL32       0.0020
     24  N         48.9310   18.1430   33.8900 N.am   33  PHE33      -0.1976
     25  CA        47.8710   18.7870   34.6840 C.3    33  PHE33       0.1639
     26  C         46.7950   19.3900   33.8290 C.2    33  PHE33       0.2290
     27  O         45.6080   19.2850   34.1660 O.2    33  PHE33      -0.2864
     28  CB        48.4130   19.8970   35.5820 C.3    33  PHE33       0.0560
     29  CG        49.3930   19.4270   36.6030 C.ar   33  PHE33      -0.0200
     30  CD1       49.4570   18.0840   36.9740 C.ar   33  PHE33      -0.0042
     31  CD2       50.1870   20.3530   37.2730 C.ar   33  PHE33      -0.0042
     32  CE1       50.3390   17.6570   37.9380 C.ar   33  PHE33      -0.0003
     33  CE2       51.0530   19.9280   38.2650 C.ar   33  PHE33      -0.0003
     34  CZ        51.1280   18.5780   38.5980 C.ar   33  PHE33      -0.0000
     35  N         45.8250   18.4410   30.8910 N.3    35  GLY35      -0.1225
     36  CA        45.1970   17.4860   30.0110 C.3    35  GLY35       0.1811
     37  C         45.7610   17.4580   28.6110 C.2    35  GLY35       0.2280
     38  O         45.1020   16.9520   27.7080 O.2    35  GLY35      -0.2866
     39  N         49.2910    8.9810   38.6150 N.3    67  LEU67      -0.1231
     40  CA        48.0840    9.4850   39.2430 C.3    67  LEU67       0.1693
     41  C         47.3880   10.5440   38.4100 C.2    67  LEU67       0.2593
     42  O         46.1990   10.7220   38.5060 O.2    67  LEU67      -0.2718
     43  CB        48.5100   10.1640   40.5360 C.3    67  LEU67       0.0284
     44  CG        47.6640   10.1770   41.7760 C.3    67  LEU67       0.0019
     45  CD1       47.5540    8.7470   42.2670 C.3    67  LEU67       0.0001
     46  CD2       48.3780   11.0540   42.8130 C.3    67  LEU67       0.0001
     47  N         48.1230   11.3190   37.6280 N.am   68  THR68      -0.1939
     48  CA        47.4760   12.4360   36.9770 C.3    68  THR68       0.2028
     49  C         47.0470   12.1860   35.5510 C.2    68  THR68       0.2642
     50  O         46.2340   12.9310   35.0750 O.2    68  THR68      -0.2714
     51  CB        48.3580   13.7060   36.9990 C.3    68  THR68       0.1808
     52  OG1       49.6230   13.4020   36.4490 O.3    68  THR68      -0.2208
     53  CG2       48.6030   14.1880   38.3910 C.3    68  THR68       0.0379
     54  N         47.5880   11.2000   34.8430 N.am   69  VAL69      -0.1963
     55  CA        47.1350   11.0290   33.4570 C.3    69  VAL69       0.1712
     56  C         45.7120   10.4440   33.5010 C.2    69  VAL69       0.2458
     57  O         45.4050    9.6640   34.4030 O.2    69  VAL69      -0.2730
     58  CB        48.0340   10.1340   32.5940 C.3    69  VAL69       0.0289
     59  CG1       49.4290   10.7500   32.4320 C.3    69  VAL69       0.0023
     60  CG2       48.0690    8.7320   33.1640 C.3    69  VAL69       0.0023
     61  N         44.8380   10.8360   32.5520 N.am   70  PRO70      -0.2727
     62  CA        43.4440   10.3420   32.5630 C.3    70  PRO70       0.1402
     63  C         43.3390    8.8230   32.5960 C.2    70  PRO70       0.2269
     64  O         42.5280    8.2750   33.3350 O.2    70  PRO70      -0.2865
     65  CB        42.8510   10.9000   31.2600 C.3    70  PRO70       0.0296
     66  CG        43.6680   12.1080   30.9640 C.3    70  PRO70       0.0237
     67  CD        45.0640   11.7980   31.4590 C.3    70  PRO70       0.0939
     68  N         42.4960   10.5910   45.2900 N.3   140  THR140     -0.1218
     69  CA        43.5620   11.3280   44.5880 C.3   140  THR140      0.1862
     70  C         44.1080   12.5000   45.3860 C.2   140  THR140      0.2287
     71  O         45.3300   12.7280   45.4360 O.2   140  THR140     -0.2866
     72  CB        43.0560   11.8190   43.2160 C.3   140  THR140      0.1770
     73  OG1       42.6240   10.6720   42.4980 O.3   140  THR140     -0.2211
     74  CG2       44.1580   12.5210   42.4400 C.3   140  THR140      0.0375
     75  N         48.0090   13.0390   46.7300 N.3   144  PHE144     -0.1241
     76  CA        48.7850   14.2550   46.5140 C.3   144  PHE144      0.1605
     77  C         49.3160   14.8210   47.8160 C.2   144  PHE144      0.2264
     78  O         50.4320   15.3550   47.8660 O.2   144  PHE144     -0.2867
     79  CB        47.9850   15.3550   45.8150 C.3   144  PHE144      0.0534
     80  CG        47.7320   15.1000   44.3580 C.ar  144  PHE144     -0.0203
     81  CD1       48.7210   14.6300   43.5310 C.ar  144  PHE144     -0.0042
     82  CD2       46.5290   15.4570   43.8050 C.ar  144  PHE144     -0.0042
     83  CE1       48.4730   14.4280   42.1790 C.ar  144  PHE144     -0.0003
     84  CE2       46.2680   15.2660   42.4570 C.ar  144  PHE144     -0.0003
     85  CZ        47.2370   14.7440   41.6480 C.ar  144  PHE144     -0.0000
@<TRIPOS>BOND
     1    38    37    2
     2    37    36    1
     3    36    35    1
     4    66    65    1
     5    66    67    1
     6    65    62    1
     7    67    61    1
     8    17    18    1
     9    23    21    1
    10    18    19    1
    11    18    21    1
    12    59    58    1
    13    61    62    1
    14    61    56   am
    15    62    63    1
    16    58    60    1
    17    58    55    1
    18    63    64    2
    19    20    19    2
    20    19    24   am
    21    21    22    1
    22    55    56    1
    23    55    54    1
    24    56    57    2
    25    26    27    2
    26    26    25    1
    27    24    25    1
    28    25    28    1
    29    54    49   am
    30    50    49    2
    31    49    48    1
    32    28    29    1
    33    52    51    1
    34    29    30   ar
    35    29    31   ar
    36    30    32   ar
    37    48    51    1
    38    48    47    1
    39    51    53    1
    40    31    33   ar
    41    47    41   am
    42    32    34   ar
    43    33    34   ar
    44    15    14    1
    45    41    42    2
    46    41    40    1
    47    39    40    1
    48    40    43    1
    49    14    13    1
    50    14    16    1
    51    13    10    1
    52    43    44    1
    53    12    11    2
    54    10    11    1
    55    10     9    1
    56    85    83   ar
    57    85    84   ar
    58    44    45    1
    59    44    46    1
    60     9     3   am
    61    83    81   ar
    62    74    72    1
    63    84    82   ar
    64    73    72    1
    65    72    69    1
    66     3     4    2
    67     3     2    1
    68    81    80   ar
    69     1     2    1
    70     7     6    1
    71     5     2    1
    72     5     6    1
    73    82    80   ar
    74    80    79    1
    75     6     8    1
    76    69    68    1
    77    69    70    1
    78    70    71    2
    79    79    76    1
    80    76    75    1
    81    76    77    1
    82    77    78    2
