@<TRIPOS>MOLECULE
tmp/5cqgB00.pdb
 126 122 0 0 0
SMALL
GASTEIGER

@<TRIPOS>ATOM
      1  N          5.6530   33.0330  -23.2690 N.3   478  PHE478     -0.1241
      2  CA         6.9610   32.5660  -22.8370 C.3   478  PHE478      0.1605
      3  C          7.3840   33.2830  -21.5760 C.2   478  PHE478      0.2264
      4  O          7.8540   32.6680  -20.6290 O.2   478  PHE478     -0.2867
      5  CB         8.0200   32.8010  -23.9280 C.3   478  PHE478      0.0534
      6  CG         9.4080   32.3740  -23.5270 C.ar  478  PHE478     -0.0203
      7  CD1        9.8300   31.0700  -23.7290 C.ar  478  PHE478     -0.0042
      8  CD2       10.2750   33.2720  -22.9110 C.ar  478  PHE478     -0.0042
      9  CE1       11.0970   30.6700  -23.3510 C.ar  478  PHE478     -0.0003
     10  CE2       11.5440   32.8760  -22.5120 C.ar  478  PHE478     -0.0003
     11  CZ        11.9570   31.5730  -22.7360 C.ar  478  PHE478     -0.0000
     12  N          7.8920   31.9360  -17.7710 N.3   482  MET482     -0.1230
     13  CA         9.1610   32.1670  -17.0750 C.3   482  MET482      0.1702
     14  C          8.9050   32.6030  -15.6540 C.2   482  MET482      0.2592
     15  O          9.6120   32.1840  -14.7540 O.2   482  MET482     -0.2718
     16  CB        10.0210   33.2380  -17.7690 C.3   482  MET482      0.0401
     17  CG        10.6900   32.8150  -19.0620 C.3   482  MET482      0.0596
     18  SD        11.6160   31.2960  -18.8660 S.3   482  MET482     -0.1393
     19  CE        10.4200   30.1830  -19.5860 C.3   482  MET482      0.0692
     20  N          7.9100   33.4740  -15.4620 N.am  483  MET483     -0.1979
     21  CA         7.6190   34.0130  -14.1320 C.3   483  MET483      0.1605
     22  C          7.1210   32.8820  -13.2390 C.2   483  MET483      0.2287
     23  O          7.5480   32.7430  -12.0940 O.2   483  MET483     -0.2864
     24  CB         6.6090   35.1550  -14.2010 C.3   483  MET483      0.0413
     25  CG         7.1230   36.4250  -14.8880 C.3   483  MET483      0.0598
     26  SD         8.7380   37.0030  -14.2930 S.3   483  MET483     -0.1393
     27  CE         9.7730   36.5710  -15.6940 C.3   483  MET483      0.0692
     28  N          9.9370   30.7050  -12.1030 N.3   486  ARG486     -0.1245
     29  CA        10.6170   31.3420  -10.9900 C.3   486  ARG486      0.1563
     30  C          9.8460   31.2260   -9.6610 C.2   486  ARG486      0.2260
     31  O         10.4360   30.8850   -8.6390 O.2   486  ARG486     -0.2867
     32  CB        10.8740   32.8100  -11.3130 C.3   486  ARG486      0.0307
     33  CG        11.6160   33.5680  -10.2300 C.3   486  ARG486      0.0489
     34  CD        13.0440   33.0620  -10.0910 C.3   486  ARG486      0.2205
     35  NE        13.7820   33.7620   -9.0460 N.pl3 486  ARG486     -0.0865
     36  CZ        15.0860   33.6220   -8.8320 C.cat 486  ARG486      0.5346
     37  NH1       15.8120   32.8110   -9.5970 N.pl3 486  ARG486      0.1354
     38  NH2       15.6730   34.3010   -7.8550 N.pl3 486  ARG486      0.1354
     39  N         15.7410   29.2050  -10.4000 N.3   492  ASN492     -0.1240
     40  CA        17.1460   29.6820  -10.2120 C.3   492  ASN492      0.1653
     41  C         18.0690   29.5220  -11.4360 C.2   492  ASN492      0.2266
     42  O         18.6680   30.5050  -11.8830 O.2   492  ASN492     -0.2867
     43  CB        17.8330   29.0630   -8.9710 C.3   492  ASN492      0.1155
     44  CG        17.0350   29.2490   -7.6910 C.2   492  ASN492      0.2627
     45  OD1       16.2800   30.2190   -7.5390 O.2   492  ASN492     -0.2716
     46  ND2       17.1990   28.3100   -6.7540 N.am  492  ASN492     -0.0877
     47  N         18.3470   28.8320  -15.2740 N.3   494  PHE494     -0.1227
     48  CA        17.4910   28.8540  -16.4630 C.3   494  PHE494      0.1736
     49  C         18.1470   28.3240  -17.7590 C.2   494  PHE494      0.2596
     50  O         17.6030   28.4930  -18.8470 O.2   494  PHE494     -0.2718
     51  CB        16.8830   30.2460  -16.6630 C.3   494  PHE494      0.0547
     52  CG        15.8480   30.6040  -15.6280 C.ar  494  PHE494     -0.0202
     53  CD1       14.5030   30.2970  -15.8340 C.ar  494  PHE494     -0.0042
     54  CD2       16.2190   31.2300  -14.4370 C.ar  494  PHE494     -0.0042
     55  CE1       13.5480   30.6150  -14.8780 C.ar  494  PHE494     -0.0003
     56  CE2       15.2700   31.5410  -13.4770 C.ar  494  PHE494     -0.0003
     57  CZ        13.9320   31.2350  -13.6960 C.ar  494  PHE494     -0.0000
     58  N         19.2810   27.6470  -17.6170 N.am  495  GLY495     -0.1957
     59  CA        20.0350   27.1280  -18.7490 C.3   495  GLY495      0.1869
     60  C         19.2240   26.3300  -19.7600 C.2   495  GLY495      0.2309
     61  O         19.3280   26.5780  -20.9780 O.2   495  GLY495     -0.2863
     62  N         16.3530   26.4890  -20.6690 N.3   497  ILE497     -0.1231
     63  CA        15.4200   27.3110  -21.4410 C.3   497  ILE497      0.1692
     64  C         15.8930   27.5480  -22.8880 C.2   497  ILE497      0.2592
     65  O         15.0790   27.5860  -23.8280 O.2   497  ILE497     -0.2718
     66  CB        15.1280   28.6340  -20.7060 C.3   497  ILE497      0.0266
     67  CG1       13.9290   28.4530  -19.7910 C.3   497  ILE497      0.0019
     68  CG2       14.9320   29.8060  -21.6650 C.3   497  ILE497      0.0020
     69  CD1       14.3040   27.8600  -18.4610 C.3   497  ILE497      0.0001
     70  N         17.2080   27.6610  -23.0680 N.am  498  TRP498     -0.1976
     71  CA        17.7690   27.9460  -24.3860 C.3   498  TRP498      0.1640
     72  C         17.3020   26.9640  -25.4320 C.2   498  TRP498      0.2290
     73  O         16.8200   27.3550  -26.4800 O.2   498  TRP498     -0.2864
     74  CB        19.2910   27.9630  -24.3370 C.3   498  TRP498      0.0576
     75  CG        19.8780   28.2490  -25.6890 C.ar  498  TRP498      0.0006
     76  CD1       20.7820   27.4760  -26.3980 C.ar  498  TRP498      0.0946
     77  CD2       19.5530   29.3810  -26.5690 C.ar  498  TRP498      0.0152
     78  NE1       21.0420   28.0450  -27.6260 N.ar  498  TRP498     -0.2442
     79  CE2       20.3250   29.1940  -27.7810 C.ar  498  TRP498      0.0810
     80  CE3       18.7190   30.5010  -26.4620 C.ar  498  TRP498      0.0012
     81  CZ2       20.2710   30.1050  -28.8420 C.ar  498  TRP498      0.0191
     82  CZ3       18.6610   31.4020  -27.5330 C.ar  498  TRP498      0.0001
     83  CH2       19.4200   31.2060  -28.6960 C.ar  498  TRP498      0.0015
     84  N         16.6050   41.0390  -16.2850 N.3   550  ILE550     -0.1231
     85  CA        16.4350   39.5990  -16.1700 C.3   550  ILE550      0.1692
     86  C         16.9870   38.8640  -17.4250 C.2   550  ILE550      0.2592
     87  O         17.7460   37.9150  -17.3050 O.2   550  ILE550     -0.2718
     88  CB        14.9400   39.2490  -15.8670 C.3   550  ILE550      0.0266
     89  CG1       14.6710   39.3890  -14.3580 C.3   550  ILE550      0.0019
     90  CG2       14.5840   37.8560  -16.3400 C.3   550  ILE550      0.0020
     91  CD1       13.2530   39.7640  -13.9710 C.3   550  ILE550      0.0001
     92  N         16.6530   39.3640  -18.6160 N.am  551  TYR551     -0.1976
     93  CA        16.8600   38.5960  -19.8500 C.3   551  TYR551      0.1639
     94  C         18.1160   38.9900  -20.6690 C.2   551  TYR551      0.2290
     95  O         18.3780   38.4070  -21.7340 O.2   551  TYR551     -0.2864
     96  CB        15.6340   38.7110  -20.7330 C.3   551  TYR551      0.0560
     97  CG        14.3810   38.0110  -20.2390 C.ar  551  TYR551     -0.0198
     98  CD1       14.4010   36.6740  -19.8370 C.ar  551  TYR551     -0.0009
     99  CD2       13.1650   38.6580  -20.2810 C.ar  551  TYR551     -0.0009
    100  CE1       13.2460   36.0330  -19.4240 C.ar  551  TYR551      0.0417
    101  CE2       12.0130   38.0230  -19.8970 C.ar  551  TYR551      0.0417
    102  CZ        12.0590   36.7090  -19.4720 C.ar  551  TYR551      0.1957
    103  OH        10.8930   36.0930  -19.1110 O.3   551  TYR551     -0.2866
    104  N         21.3090   38.2230  -20.7050 N.3   553  GLY553     -0.1210
    105  CA        22.1500   37.1400  -21.2180 C.3   553  GLY553      0.1956
    106  C         21.4800   36.3600  -22.3310 C.2   553  GLY553      0.2611
    107  O         22.1490   35.8800  -23.2500 O.2   553  GLY553     -0.2717
    108  N         20.1570   36.2270  -22.2480 N.am  554  LEU554     -0.1979
    109  CA        19.3930   35.5020  -23.2600 C.3   554  LEU554      0.1596
    110  C         19.3100   36.3520  -24.5450 C.2   554  LEU554      0.2287
    111  O         19.5070   35.8460  -25.6380 O.2   554  LEU554     -0.2864
    112  CB        18.0020   35.1550  -22.7280 C.3   554  LEU554      0.0297
    113  CG        17.0180   34.4180  -23.6410 C.3   554  LEU554      0.0022
    114  CD1       17.6260   33.1070  -24.1580 C.3   554  LEU554      0.0001
    115  CD2       15.7090   34.1440  -22.9080 C.3   554  LEU554      0.0001
    116  N         22.7310   36.1930  -26.2100 N.3   557  ARG557     -0.1245
    117  CA        22.8530   34.9250  -26.9080 C.3   557  ARG557      0.1563
    118  C         22.0770   34.9330  -28.2450 C.2   557  ARG557      0.2260
    119  O         22.6060   34.5540  -29.2650 O.2   557  ARG557     -0.2867
    120  CB        22.4340   33.7450  -26.0190 C.3   557  ARG557      0.0307
    121  CG        22.5890   32.4100  -26.7260 C.3   557  ARG557      0.0489
    122  CD        22.3450   31.2350  -25.8040 C.3   557  ARG557      0.2205
    123  NE        23.3500   31.1210  -24.7560 N.pl3 557  ARG557     -0.0865
    124  CZ        23.4120   30.1120  -23.8910 C.cat 557  ARG557      0.5346
    125  NH1       22.5240   29.1180  -23.9520 N.pl3 557  ARG557      0.1354
    126  NH2       24.3540   30.1010  -22.9550 N.pl3 557  ARG557      0.1354
@<TRIPOS>BOND
     1   119   118    2
     2    81    83   ar
     3    81    79   ar
     4    83    82   ar
     5   118   117    1
     6    79    78   ar
     7    79    77   ar
     8    78    76   ar
     9    82    80   ar
    10   117   116    1
    11   117   120    1
    12   121   120    1
    13   121   122    1
    14    77    80   ar
    15    77    75   ar
    16    73    72    2
    17    76    75   ar
    18   122   123    1
    19    75    74    1
    20   111   110    2
    21    72    71    1
    22   123   124    2
    23   110   109    1
    24    71    74    1
    25    71    70    1
    26   114   113    1
    27   125   124    1
    28     5     6    1
    29     5     2    1
    30   124   126    1
    31    65    64    2
    32     7     6   ar
    33     7     9   ar
    34   113   115    1
    35   113   112    1
    36     6     8   ar
    37     9    11   ar
    38     1     2    1
    39   109   112    1
    40   109   108    1
    41   107   106    2
    42    70    64   am
    43     8    10   ar
    44    64    63    1
    45     2     3    1
    46    11    10   ar
    47   106   108   am
    48   106   105    1
    49    95    94    2
    50    68    66    1
    51     3     4    2
    52    63    66    1
    53    63    62    1
    54   105   104    1
    55    61    60    2
    56    96    97    1
    57    96    93    1
    58    66    67    1
    59    94    93    1
    60    99    97   ar
    61    99   101   ar
    62    97    98   ar
    63   101   102   ar
    64    93    92    1
    65    98   100   ar
    66    67    69    1
    67    60    59    1
    68    19    18    1
    69   102   100   ar
    70   102   103    1
    71    17    18    1
    72    17    16    1
    73    50    49    2
    74    59    58    1
    75    92    86   am
    76    12    13    1
    77    16    13    1
    78    49    58   am
    79    49    48    1
    80    86    87    2
    81    86    85    1
    82    13    14    1
    83    51    48    1
    84    51    52    1
    85    48    47    1
    86    90    88    1
    87    84    85    1
    88    85    88    1
    89    88    89    1
    90    53    52   ar
    91    53    55   ar
    92    27    26    1
    93    14    20   am
    94    14    15    2
    95    52    54   ar
    96    20    21    1
    97    25    26    1
    98    25    24    1
    99    55    57   ar
   100    54    56   ar
   101    89    91    1
   102    24    21    1
   103    21    22    1
   104    57    56   ar
   105    22    23    2
   106    28    29    1
   107    42    41    2
   108    41    40    1
   109    32    29    1
   110    32    33    1
   111    29    30    1
   112    39    40    1
   113    33    34    1
   114    40    43    1
   115    34    35    1
   116    30    31    2
   117    37    36    1
   118    35    36    2
   119    43    44    1
   120    36    38    1
   121    44    45    2
   122    44    46   am
