@<TRIPOS>MOLECULE
tmp/5cqjA00.pdb
 188 178 0 0 0
SMALL
GASTEIGER

@<TRIPOS>ATOM
      1  N         -2.2920    1.5750    2.2650 N.3    13  MET13      -0.1245
      2  CA        -2.3710    1.6880    0.8020 C.3    13  MET13       0.1570
      3  C         -2.2990    3.1210    0.2960 C.2    13  MET13       0.2261
      4  O         -3.2990    3.6910   -0.1090 O.2    13  MET13      -0.2867
      5  CB        -3.6730    1.0590    0.2830 C.3    13  MET13       0.0387
      6  CG        -3.9050   -0.4010    0.6730 C.3    13  MET13       0.0595
      7  SD        -5.5740   -0.9620    0.2320 S.3    13  MET13      -0.1393
      8  CE        -6.5500    0.3080    1.0210 C.3    13  MET13       0.0692
      9  N         -2.6580    6.7140   -4.2430 N.3    16  ASN16      -0.1240
     10  CA        -3.6800    6.7900   -5.2990 C.3    16  ASN16       0.1653
     11  C         -3.7570    8.1720   -5.9280 C.2    16  ASN16       0.2266
     12  O         -3.8960    8.3120   -7.1520 O.2    16  ASN16      -0.2867
     13  CB        -5.0640    6.4250   -4.7740 C.3    16  ASN16       0.1155
     14  CG        -5.1760    4.9790   -4.3600 C.2    16  ASN16       0.2627
     15  OD1       -4.3330    4.1550   -4.7020 O.2    16  ASN16      -0.2716
     16  ND2       -6.2520    4.6540   -3.6420 N.am   16  ASN16      -0.0877
     17  N         -8.4020    6.3530   -7.4410 N.3    31  HIS31      -0.1241
     18  CA        -9.2040    5.5220   -6.5630 C.3    31  HIS31       0.1621
     19  C         -9.6840    4.2840   -7.3020 C.2    31  HIS31       0.2264
     20  O         -9.6820    3.1900   -6.7550 O.2    31  HIS31      -0.2867
     21  CB       -10.3770    6.3320   -6.0000 C.3    31  HIS31       0.0745
     22  CG        -9.9630    7.3270   -4.9600 C.ar   31  HIS31       0.0817
     23  ND1       -8.8430    7.1530   -4.1700 N.ar   31  HIS31      -0.2268
     24  CD2      -10.4950    8.5200   -4.6010 C.ar   31  HIS31       0.1154
     25  CE1       -8.7100    8.1880   -3.3600 C.ar   31  HIS31       0.1986
     26  NE2       -9.7010    9.0310   -3.5990 N.ar   31  HIS31      -0.2212
     27  N         -6.7970    2.0600   -7.6610 N.3    34  GLY34      -0.1210
     28  CA        -6.4780    1.5600   -6.3380 C.3    34  GLY34       0.1956
     29  C         -7.3480    0.3890   -5.9490 C.2    34  GLY34       0.2611
     30  O         -6.8710   -0.5600   -5.3190 O.2    34  GLY34      -0.2717
     31  N         -8.6250    0.4660   -6.3150 N.am   35  ALA35      -0.1979
     32  CA        -9.5800   -0.6150   -6.0680 C.3    35  ALA35       0.1597
     33  C         -9.1400   -1.8740   -6.7940 C.2    35  ALA35       0.2287
     34  O         -9.2240   -2.9840   -6.2670 O.2    35  ALA35      -0.2864
     35  CB       -10.9680   -0.2050   -6.5110 C.3    35  ALA35       0.0319
     36  N         -6.4240   -3.3690   -4.9440 N.3    38  VAL38      -0.1231
     37  CA        -6.9180   -4.1000   -3.7730 C.3    38  VAL38       0.1692
     38  C         -7.2940   -5.5170   -4.1660 C.2    38  VAL38       0.2591
     39  O         -6.8550   -6.4710   -3.5360 O.2    38  VAL38      -0.2718
     40  CB        -8.1470   -3.4340   -3.1140 C.3    38  VAL38       0.0266
     41  CG1       -8.8100   -4.4010   -2.1420 C.3    38  VAL38       0.0020
     42  CG2       -7.7540   -2.1640   -2.3830 C.3    38  VAL38       0.0020
     43  N         -8.0950   -5.6460   -5.2180 N.am   39  ARG39      -0.1980
     44  CA        -8.5360   -6.9640   -5.6790 C.3    39  ARG39       0.1597
     45  C         -7.3570   -7.8780   -5.9590 C.2    39  ARG39       0.2287
     46  O         -7.3590   -9.0490   -5.5880 O.2    39  ARG39      -0.2864
     47  CB        -9.3760   -6.8430   -6.9450 C.3    39  ARG39       0.0334
     48  CG       -10.7910   -6.3660   -6.7540 C.3    39  ARG39       0.0492
     49  CD       -11.6040   -6.7420   -7.9940 C.3    39  ARG39       0.2205
     50  NE       -13.0370   -6.8270   -7.7240 N.pl3  39  ARG39      -0.0865
     51  CZ       -13.9320   -7.3400   -8.5630 C.cat  39  ARG39       0.5346
     52  NH1      -13.5470   -7.8240   -9.7360 N.pl3  39  ARG39       0.1354
     53  NH2      -15.2150   -7.3750   -8.2270 N.pl3  39  ARG39       0.1354
     54  N         -6.3670   -3.9980    5.6100 N.3    55  LEU55      -0.1245
     55  CA        -6.1460   -2.8730    4.7160 C.3    55  LEU55       0.1561
     56  C         -6.6490   -1.5870    5.3320 C.2    55  LEU55       0.2260
     57  O         -7.7710   -1.5200    5.8470 O.2    55  LEU55      -0.2867
     58  CB        -6.8200   -3.1210    3.3560 C.3    55  LEU55       0.0270
     59  CG        -6.3930   -4.3960    2.6090 C.3    55  LEU55       0.0019
     60  CD1       -7.2200   -4.5740    1.3490 C.3    55  LEU55       0.0001
     61  CD2       -4.8930   -4.3470    2.2670 C.3    55  LEU55       0.0001
     62  N         -7.3850    2.1640    4.2550 N.3    57  ALA57      -0.1245
     63  CA        -7.6210    3.1480    3.2080 C.3    57  ALA57       0.1562
     64  C         -7.0740    4.5250    3.5990 C.2    57  ALA57       0.2260
     65  O         -7.7370    5.2760    4.3180 O.2    57  ALA57      -0.2867
     66  CB        -9.1060    3.2370    2.9050 C.3    57  ALA57       0.0290
     67  N        -17.2890    6.8850   -0.0250 N.3    60  LEU60      -0.1231
     68  CA       -16.9730    6.1170   -1.2300 C.3    60  LEU60       0.1693
     69  C        -16.8790    4.6320   -0.8930 C.2    60  LEU60       0.2592
     70  O        -16.9540    3.7690   -1.7670 O.2    60  LEU60      -0.2718
     71  CB       -15.6620    6.6040   -1.8480 C.3    60  LEU60       0.0284
     72  CG       -15.6920    7.9820   -2.5080 C.3    60  LEU60       0.0019
     73  CD1      -14.2880    8.3480   -2.9260 C.3    60  LEU60       0.0001
     74  CD2      -16.5910    8.0110   -3.7170 C.3    60  LEU60       0.0001
     75  N        -16.6990    4.3630    0.3980 N.am   61  PHE61      -0.1976
     76  CA       -16.6480    3.0170    0.9610 C.3    61  PHE61       0.1639
     77  C        -17.9590    2.2820    0.7400 C.2    61  PHE61       0.2290
     78  O        -17.9990    1.0570    0.6710 O.2    61  PHE61      -0.2864
     79  CB       -16.3280    3.1160    2.4530 C.3    61  PHE61       0.0560
     80  CG       -16.5110    1.8410    3.2140 C.ar   61  PHE61      -0.0200
     81  CD1      -15.7850    0.7120    2.8900 C.ar   61  PHE61      -0.0042
     82  CD2      -17.3680    1.7920    4.2950 C.ar   61  PHE61      -0.0042
     83  CE1      -15.9360   -0.4530    3.6090 C.ar   61  PHE61      -0.0003
     84  CE2      -17.5230    0.6320    5.0250 C.ar   61  PHE61      -0.0003
     85  CZ       -16.8060   -0.4940    4.6800 C.ar   61  PHE61      -0.0000
     86  N        -19.9800    2.3490   -2.0100 N.3    63  TRP63      -0.1227
     87  CA       -20.0080    1.7240   -3.3330 C.3    63  TRP63       0.1737
     88  C        -19.2420    0.4110   -3.3260 C.2    63  TRP63       0.2595
     89  O        -19.7150   -0.6070   -3.8280 O.2    63  TRP63      -0.2718
     90  CB       -19.4140    2.6630   -4.3910 C.3    63  TRP63       0.0564
     91  CG       -19.4040    2.1870   -5.7740 C.ar   63  TRP63       0.0003
     92  CD1      -18.3640    1.5250   -6.4190 C.ar   63  TRP63       0.0946
     93  CD2      -20.4080    2.3460   -6.7790 C.ar   63  TRP63       0.0152
     94  NE1      -18.6530    1.2680   -7.6930 N.ar   63  TRP63      -0.2442
     95  CE2      -19.9610    1.7460   -7.9440 C.ar   63  TRP63       0.0810
     96  CE3      -21.6680    2.9180   -6.7290 C.ar   63  TRP63       0.0012
     97  CZ2      -20.6880    1.7080   -9.1220 C.ar   63  TRP63       0.0191
     98  CZ3      -22.4440    2.8600   -7.9120 C.ar   63  TRP63       0.0001
     99  CH2      -21.9560    2.2650   -9.0780 C.ar   63  TRP63       0.0015
    100  N        -18.0490    0.4610   -2.7470 N.am   64  ALA64      -0.1966
    101  CA       -17.1640   -0.6880   -2.6620 C.3    64  ALA64       0.1728
    102  C        -17.8460   -1.8740   -2.0040 C.2    64  ALA64       0.2616
    103  O        -17.9340   -2.9620   -2.5730 O.2    64  ALA64      -0.2715
    104  CB       -15.9330   -0.3150   -1.8960 C.3    64  ALA64       0.0334
    105  N        -18.3270   -1.6330   -0.7940 N.am   65  LEU65      -0.1977
    106  CA       -19.0100   -2.6350    0.0000 C.3    65  LEU65       0.1596
    107  C        -20.0810   -3.3570   -0.8070 C.2    65  LEU65       0.2287
    108  O        -20.2590   -4.5610   -0.6930 O.2    65  LEU65      -0.2864
    109  CB       -19.6220   -1.9710    1.2260 C.3    65  LEU65       0.0297
    110  CG       -20.1750   -2.9020    2.2820 C.3    65  LEU65       0.0022
    111  CD1      -19.1230   -3.9160    2.6470 C.3    65  LEU65       0.0001
    112  CD2      -20.5670   -2.0740    3.4800 C.3    65  LEU65       0.0001
    113  N        -20.4960   -3.7740   -4.4220 N.3    67  SER67      -0.1202
    114  CA       -20.0560   -4.5880   -5.5580 C.3    67  SER67       0.2020
    115  C        -19.0420   -5.6850   -5.2300 C.2    67  SER67       0.2619
    116  O        -19.0780   -6.7820   -5.8000 O.2    67  SER67      -0.2717
    117  CB       -19.4540   -3.6720   -6.6190 C.3    67  SER67       0.2103
    118  OG       -18.4450   -2.8450   -6.0560 O.3    67  SER67      -0.2182
    119  N        -18.1340   -5.3810   -4.3120 N.am   68  GLU68      -0.1965
    120  CA       -16.9980   -6.2490   -4.0510 C.3    68  GLU68       0.1733
    121  C        -17.3590   -7.4850   -3.2260 C.2    68  GLU68       0.2616
    122  O        -16.7160   -8.5250   -3.3450 O.2    68  GLU68      -0.2715
    123  CB       -15.9010   -5.4550   -3.3390 C.3    68  GLU68       0.0429
    124  CG       -14.5240   -6.0660   -3.4500 C.3    68  GLU68       0.1163
    125  CD       -14.0680   -6.1930   -4.8920 C.2    68  GLU68       0.3649
    126  OE1      -14.3520   -5.2650   -5.6890 O.co2  68  GLU68      -0.2457
    127  OE2      -13.4350   -7.2240   -5.2230 O.co2  68  GLU68      -0.2457
    128  N        -18.3860   -7.3640   -2.3930 N.am   69  VAL69      -0.1977
    129  CA       -18.7070   -8.3980   -1.4090 C.3    69  VAL69       0.1596
    130  C        -19.0370   -9.7390   -2.0490 C.2    69  VAL69       0.2287
    131  O        -18.6220  -10.7930   -1.5640 O.2    69  VAL69      -0.2864
    132  CB       -19.8800   -7.9510   -0.5020 C.3    69  VAL69       0.0276
    133  CG1      -20.7460   -9.1320   -0.0820 C.3    69  VAL69       0.0022
    134  CG2      -19.3370   -7.2550    0.7170 C.3    69  VAL69       0.0022
    135  N        -15.8490  -11.2680   -3.2400 N.3    72  LEU72      -0.1245
    136  CA       -15.1490  -11.7820   -2.0570 C.3    72  LEU72       0.1561
    137  C        -15.7120  -13.1200   -1.5920 C.2    72  LEU72       0.2260
    138  O        -14.9590  -14.0550   -1.3300 O.2    72  LEU72      -0.2867
    139  CB       -15.2300  -10.7880   -0.9030 C.3    72  LEU72       0.0270
    140  CG       -14.4010   -9.5090   -1.0310 C.3    72  LEU72       0.0019
    141  CD1      -14.6590   -8.6330    0.1670 C.3    72  LEU72       0.0001
    142  CD2      -12.9180   -9.8240   -1.1620 C.3    72  LEU72       0.0001
    143  N        -15.0130  -11.4590    5.2570 N.3    79  LEU79      -0.1245
    144  CA       -14.8970  -10.0020    5.3470 C.3    79  LEU79       0.1561
    145  C        -15.2000   -9.4820    6.7440 C.2    79  LEU79       0.2260
    146  O        -16.2130   -9.8460    7.3260 O.2    79  LEU79      -0.2867
    147  CB       -15.8410   -9.3420    4.3410 C.3    79  LEU79       0.0270
    148  CG       -15.7980   -7.8150    4.2770 C.3    79  LEU79       0.0019
    149  CD1      -14.4230   -7.3110    3.8380 C.3    79  LEU79       0.0001
    150  CD2      -16.8880   -7.2680    3.3720 C.3    79  LEU79       0.0001
    151  N        -15.1350   -5.6280    9.0040 N.3    81  ILE81      -0.1245
    152  CA       -14.8230   -4.2030    9.0730 C.3    81  ILE81       0.1561
    153  C        -14.3710   -3.8140   10.4700 C.2    81  ILE81       0.2260
    154  O        -15.1130   -3.9900   11.4280 O.2    81  ILE81      -0.2867
    155  CB       -16.0300   -3.3250    8.6980 C.3    81  ILE81       0.0252
    156  CG1      -16.5470   -3.6940    7.3090 C.3    81  ILE81       0.0019
    157  CG2      -15.6650   -1.8520    8.7720 C.3    81  ILE81       0.0019
    158  CD1      -15.5380   -3.5520    6.2300 C.3    81  ILE81       0.0001
    159  N        -10.2210  -11.0100    5.4320 N.3   111  LEU111     -0.1245
    160  CA        -9.8940   -9.6790    4.9740 C.3   111  LEU111      0.1561
    161  C        -10.4950   -8.6660    5.9120 C.2   111  LEU111      0.2260
    162  O        -11.7170   -8.5900    6.0520 O.2   111  LEU111     -0.2867
    163  CB       -10.4110   -9.4630    3.5530 C.3   111  LEU111      0.0270
    164  CG       -10.2930   -8.0670    2.9600 C.3   111  LEU111      0.0019
    165  CD1       -8.8110   -7.6270    2.8730 C.3   111  LEU111      0.0001
    166  CD2      -10.9290   -8.0780    1.5880 C.3   111  LEU111      0.0001
    167  N        -11.0680   -4.8280    6.6960 N.3   113  ILE113     -0.1245
    168  CA       -11.0610   -3.5150    6.0740 C.3   113  ILE113      0.1561
    169  C        -11.2360   -2.4470    7.1400 C.2   113  ILE113      0.2260
    170  O        -12.2820   -2.3860    7.7790 O.2   113  ILE113     -0.2867
    171  CB       -12.1730   -3.3690    5.0200 C.3   113  ILE113      0.0252
    172  CG1      -12.0340   -4.4280    3.9150 C.3   113  ILE113      0.0019
    173  CG2      -12.1860   -1.9380    4.4570 C.3   113  ILE113      0.0019
    174  CD1      -10.6860   -4.4910    3.2410 C.3   113  ILE113      0.0001
    175  N          0.3290    2.9350   -4.5400 N.3   193  TRP193     -0.1241
    176  CA        -0.5920    1.8040   -4.3560 C.3   193  TRP193      0.1605
    177  C         -1.2040    1.2290   -5.6580 C.2   193  TRP193      0.2264
    178  O         -1.2600    0.0070   -5.8160 O.2   193  TRP193     -0.2867
    179  CB        -1.7350    2.1630   -3.3740 C.3   193  TRP193      0.0550
    180  CG        -2.6980    1.0130   -3.2490 C.ar  193  TRP193      0.0003
    181  CD1       -4.0220    0.9740   -3.6500 C.ar  193  TRP193      0.0946
    182  CD2       -2.3960   -0.2870   -2.7490 C.ar  193  TRP193      0.0152
    183  NE1       -4.5480   -0.2740   -3.4130 N.ar  193  TRP193     -0.2442
    184  CE2       -3.5720   -1.0640   -2.8550 C.ar  193  TRP193      0.0810
    185  CE3       -1.2430   -0.8760   -2.2200 C.ar  193  TRP193      0.0012
    186  CZ2       -3.6200   -2.3910   -2.4570 C.ar  193  TRP193      0.0191
    187  CZ3       -1.2980   -2.1970   -1.8260 C.ar  193  TRP193      0.0001
    188  CH2       -2.4810   -2.9410   -1.9520 C.ar  193  TRP193      0.0015
@<TRIPOS>BOND
     1    52    51    1
     2    97    99   ar
     3    97    95   ar
     4    99    98   ar
     5    51    53    1
     6    51    50    2
     7    49    50    1
     8    49    48    1
     9    95    94   ar
    10    95    93   ar
    11    98    96   ar
    12    94    92   ar
    13    27    28    1
    14    17    18    1
    15    19    20    2
    16    19    18    1
    17    12    11    2
    18    47    48    1
    19    47    44    1
    20    33    34    2
    21    33    32    1
    22    93    96   ar
    23    93    91   ar
    24   117   118    1
    25   117   114    1
    26    18    21    1
    27    35    32    1
    28    92    91   ar
    29    28    29    1
    30    31    32    1
    31    31    29   am
    32    21    22    1
    33    45    44    1
    34    45    46    2
    35    29    30    2
    36    11    10    1
    37   178   177    2
    38   116   115    2
    39    91    90    1
    40   126   125   ar
    41    44    43    1
    42   177   176    1
    43   114   115    1
    44   114   113    1
    45    10    13    1
    46    10     9    1
    47   115   119   am
    48   127   125   ar
    49    43    38   am
    50    22    24   ar
    51    22    23   ar
    52    36    37    1
    53   125   124    1
    54    13    14    1
    55    15    14    2
    56    24    26   ar
    57   175   176    1
    58    90    87    1
    59    14    16   am
    60   176   179    1
    61   119   120    1
    62    23    25   ar
    63    38    37    1
    64    38    39    2
    65   120   123    1
    66   120   121    1
    67    89    88    2
    68    37    40    1
    69    74    72    1
    70   181   183   ar
    71   181   180   ar
    72    26    25   ar
    73   124   123    1
    74   183   184   ar
    75   179   180    1
    76   122   121    2
    77    87    88    1
    78    87    86    1
    79    88   100   am
    80   180   182   ar
    81   135   136    1
    82   121   128   am
    83    40    42    1
    84    40    41    1
    85    73    72    1
    86   184   182   ar
    87   184   186   ar
    88   182   185   ar
    89   100   101    1
    90   101   102    1
    91   101   104    1
    92   103   102    2
    93    72    71    1
    94   186   188   ar
    95   128   129    1
    96   185   187   ar
    97   136   137    1
    98   136   139    1
    99   130   131    2
   100   130   129    1
   101   102   105   am
   102   188   187   ar
   103    71    68    1
   104    70    69    2
   105   137   138    2
   106   129   132    1
   107    68    69    1
   108    68    67    1
   109   142   140    1
   110   140   139    1
   111   140   141    1
   112    69    75   am
   113   107   108    2
   114   107   106    1
   115   105   106    1
   116   132   133    1
   117   132   134    1
   118     4     3    2
   119   106   109    1
   120     7     6    1
   121     7     8    1
   122     5     6    1
   123     5     2    1
   124     3     2    1
   125    75    76    1
   126    78    77    2
   127    77    76    1
   128     2     1    1
   129    76    79    1
   130   109   110    1
   131    60    59    1
   132   166   164    1
   133    61    59    1
   134   110   111    1
   135   110   112    1
   136    79    80    1
   137    59    58    1
   138   165   164    1
   139    81    80   ar
   140    81    83   ar
   141    66    63    1
   142   164   163    1
   143    63    64    1
   144    63    62    1
   145    80    82   ar
   146   174   172    1
   147    58    55    1
   148   150   148    1
   149   163   160    1
   150    64    65    2
   151    83    85   ar
   152   149   148    1
   153   172   171    1
   154   148   147    1
   155    82    84   ar
   156   147   144    1
   157   173   171    1
   158    85    84   ar
   159    55    56    1
   160    55    54    1
   161   160   159    1
   162   160   161    1
   163   171   168    1
   164   143   144    1
   165    56    57    2
   166   144   145    1
   167   161   162    2
   168   168   167    1
   169   168   169    1
   170   158   156    1
   171   145   146    2
   172   169   170    2
   173   156   155    1
   174   155   157    1
   175   155   152    1
   176   151   152    1
   177   152   153    1
   178   153   154    2
