@<TRIPOS>MOLECULE
tmp/5cqtA00.pdb
 117 114 0 0 0
SMALL
GASTEIGER

@<TRIPOS>ATOM
      1  N         12.5320    3.6590    0.3760 N.3    46  TRP46      -0.1228
      2  CA        12.9100    5.0260    0.6920 C.3    46  TRP46       0.1722
      3  C         11.9500    5.8250    1.5760 C.2    46  TRP46       0.2437
      4  O         12.4050    6.5670    2.4460 O.2    46  TRP46      -0.2733
      5  CB        13.2990    5.8320   -0.5640 C.3    46  TRP46       0.0563
      6  CG        12.1960    6.0600   -1.5050 C.ar   46  TRP46       0.0003
      7  CD1       11.8740    5.2950   -2.5900 C.ar   46  TRP46       0.0946
      8  CD2       11.2630    7.1220   -1.4710 C.ar   46  TRP46       0.0152
      9  NE1       10.7890    5.8170   -3.2280 N.ar   46  TRP46      -0.2442
     10  CE2       10.3870    6.9440   -2.5700 C.ar   46  TRP46       0.0810
     11  CE3       11.0480    8.1990   -0.6130 C.ar   46  TRP46       0.0012
     12  CZ2        9.3120    7.8110   -2.8180 C.ar   46  TRP46       0.0191
     13  CZ3        9.9890    9.0850   -0.8790 C.ar   46  TRP46       0.0001
     14  CH2        9.1470    8.8840   -1.9840 C.ar   46  TRP46       0.0015
     15  N         10.6210    5.6480    1.4240 N.am   47  PRO47      -0.2718
     16  CA         9.7730    6.4360    2.3090 C.3    47  PRO47       0.1535
     17  C          9.8590    6.0780    3.7770 C.2    47  PRO47       0.2598
     18  O          9.3910    6.8460    4.6050 O.2    47  PRO47      -0.2715
     19  CB         8.3510    6.1180    1.8130 C.3    47  PRO47       0.0310
     20  CG         8.5370    5.6390    0.3870 C.3    47  PRO47       0.0237
     21  CD         9.8040    4.8400    0.4860 C.3    47  PRO47       0.0939
     22  N         10.4150    4.8990    4.0660 N.am   48  PHE48      -0.1974
     23  CA        10.5130    4.3160    5.4110 C.3    48  PHE48       0.1639
     24  C         11.9170    4.4330    6.0020 C.2    48  PHE48       0.2290
     25  O         12.1550    3.9250    7.0990 O.2    48  PHE48      -0.2864
     26  CB        10.1200    2.8440    5.3200 C.3    48  PHE48       0.0560
     27  CG         8.7870    2.6230    4.7070 C.ar   48  PHE48      -0.0200
     28  CD1        8.6450    2.4850    3.3220 C.ar   48  PHE48      -0.0042
     29  CD2        7.6450    2.6580    5.5080 C.ar   48  PHE48      -0.0042
     30  CE1        7.3950    2.3070    2.7650 C.ar   48  PHE48      -0.0003
     31  CE2        6.3960    2.4750    4.9410 C.ar   48  PHE48      -0.0003
     32  CZ         6.2800    2.3310    3.5790 C.ar   48  PHE48      -0.0000
     33  N          9.1430   10.2860    9.6280 N.3    52  VAL52      -0.1245
     34  CA         8.1970   11.1370    8.9330 C.3    52  VAL52       0.1561
     35  C          8.3880   12.6040    9.3680 C.2    52  VAL52       0.2260
     36  O          8.3740   12.9120   10.5620 O.2    52  VAL52      -0.2867
     37  CB         6.7440   10.6960    9.2470 C.3    52  VAL52       0.0252
     38  CG1        5.7290   11.7800    8.8790 C.3    52  VAL52       0.0019
     39  CG2        6.4310    9.3580    8.5590 C.3    52  VAL52       0.0019
     40  N          6.2530   16.7470    4.5730 N.3    57  LEU57      -0.1245
     41  CA         5.3890   15.8510    3.8160 C.3    57  LEU57       0.1561
     42  C          3.9200   16.2840    3.7980 C.2    57  LEU57       0.2260
     43  O          3.1090   15.6160    3.1390 O.2    57  LEU57      -0.2867
     44  CB         5.4940   14.4260    4.3570 C.3    57  LEU57       0.0270
     45  CG         6.8480   13.7270    4.3390 C.3    57  LEU57       0.0019
     46  CD1        6.6850   12.3370    4.8890 C.3    57  LEU57       0.0001
     47  CD2        7.4230   13.6780    2.9550 C.3    57  LEU57       0.0001
     48  N          1.6660   16.2450    6.1860 N.3    59  LEU59      -0.1245
     49  CA         0.8750   15.2930    6.9730 C.3    59  LEU59       0.1561
     50  C          0.7490   15.8920    8.4020 C.2    59  LEU59       0.2260
     51  O          1.2890   15.3410    9.3590 O.2    59  LEU59      -0.2867
     52  CB         1.5650   13.9250    6.9960 C.3    59  LEU59       0.0270
     53  CG         1.9970   13.3210    5.6460 C.3    59  LEU59       0.0019
     54  CD1        2.7820   12.0400    5.8740 C.3    59  LEU59       0.0001
     55  CD2        0.8290   13.0590    4.7230 C.3    59  LEU59       0.0001
     56  N          0.0780   13.8650   11.5960 N.3    62  TYR62      -0.1241
     57  CA         0.7040   12.5520   11.6480 C.3    62  TYR62       0.1605
     58  C          0.9720   12.1280   13.0900 C.2    62  TYR62       0.2264
     59  O          0.6120   11.0110   13.4750 O.2    62  TYR62      -0.2867
     60  CB         2.0170   12.5390   10.8480 C.3    62  TYR62       0.0534
     61  CG         2.5820   11.1480   10.7250 C.ar   62  TYR62      -0.0201
     62  CD1        2.0960   10.2460    9.7700 C.ar   62  TYR62      -0.0009
     63  CD2        3.5370   10.7050   11.5990 C.ar   62  TYR62      -0.0009
     64  CE1        2.6150    8.9460    9.6850 C.ar   62  TYR62       0.0417
     65  CE2        4.0460    9.4290   11.5280 C.ar   62  TYR62       0.0417
     66  CZ         3.5790    8.5480   10.5840 C.ar   62  TYR62       0.1957
     67  OH         4.1130    7.2770   10.5470 O.3    62  TYR62      -0.2866
     68  N          2.0110    2.9050    9.1880 N.3   101  CYS101     -0.1235
     69  CA         1.6530    3.2870    7.8450 C.3   101  CYS101      0.1677
     70  C          0.1870    2.9410    7.5580 C.2   101  CYS101      0.2270
     71  O         -0.5520    3.7540    6.9810 O.2   101  CYS101     -0.2867
     72  CB         2.6050    2.6300    6.8440 C.3   101  CYS101      0.0956
     73  SG         2.3690    3.1420    5.1540 S.3   101  CYS101     -0.0801
     74  N         -2.2340    5.3400    9.6500 N.3   104  TYR104     -0.1227
     75  CA        -2.3340    6.7340    9.2340 C.3   104  TYR104      0.1736
     76  C         -3.0100    6.8710    7.8720 C.2   104  TYR104      0.2595
     77  O         -3.8430    7.7820    7.6420 O.2   104  TYR104     -0.2718
     78  CB        -0.9650    7.4380    9.2160 C.3   104  TYR104      0.0548
     79  CG        -1.1130    8.8840    8.8640 C.ar  104  TYR104     -0.0200
     80  CD1       -1.6310    9.7980    9.7900 C.ar  104  TYR104     -0.0009
     81  CD2       -0.8290    9.3330    7.5850 C.ar  104  TYR104     -0.0009
     82  CE1       -1.8390   11.1240    9.4460 C.ar  104  TYR104      0.0417
     83  CE2       -1.0180   10.6610    7.2460 C.ar  104  TYR104      0.0417
     84  CZ        -1.5240   11.5460    8.1800 C.ar  104  TYR104      0.1957
     85  OH        -1.7220   12.8530    7.8190 O.3   104  TYR104     -0.2866
     86  N         -2.6750    5.9670    6.9630 N.am  105  ASN105     -0.1974
     87  CA        -3.0630    6.0830    5.5750 C.3   105  ASN105      0.1688
     88  C         -4.2770    5.2620    5.2550 C.2   105  ASN105      0.2292
     89  O         -4.7190    4.4650    6.0640 O.2   105  ASN105     -0.2864
     90  CB        -1.8790    5.7090    4.6800 C.3   105  ASN105      0.1181
     91  CG        -0.7060    6.6300    4.9020 C.2   105  ASN105      0.2629
     92  OD1       -0.7410    7.7990    4.4700 O.2   105  ASN105     -0.2716
     93  ND2        0.2920    6.1660    5.6580 N.am  105  ASN105     -0.0877
     94  N         -1.0440    4.5660   -2.3320 N.3   110  ASP110     -0.1225
     95  CA         0.2410    4.1140   -2.8740 C.3   110  ASP110      0.1805
     96  C          1.2200    3.7430   -1.7380 C.2   110  ASP110      0.2597
     97  O          1.8840    2.7080   -1.7890 O.2   110  ASP110     -0.2718
     98  CB         0.9190    5.1750   -3.7420 C.3   110  ASP110      0.1424
     99  CG         0.1620    5.4860   -5.0470 C.2   110  ASP110      0.3668
    100  OD1       -0.7750    4.7350   -5.4140 O.co2 110  ASP110     -0.2456
    101  OD2        0.5450    6.5050   -5.7220 O.co2 110  ASP110     -0.2456
    102  N          1.3250    4.5890   -0.7240 N.am  111  ILE111     -0.1980
    103  CA         2.2860    4.3230    0.3620 C.3   111  ILE111      0.1595
    104  C          1.9950    2.9760    1.0690 C.2   111  ILE111      0.2287
    105  O          2.9030    2.3090    1.5730 O.2   111  ILE111     -0.2864
    106  CB         2.3640    5.5030    1.3640 C.3   111  ILE111      0.0276
    107  CG1        3.5820    5.4110    2.2980 C.3   111  ILE111      0.0022
    108  CG2        1.1070    5.5670    2.2180 C.3   111  ILE111      0.0022
    109  CD1        4.8920    5.6580    1.6230 C.3   111  ILE111      0.0001
    110  N          3.3180    0.1370   -0.9220 N.3   114  MET114     -0.1245
    111  CA         4.7710    0.0540   -0.7140 C.3   114  MET114      0.1570
    112  C          5.0820   -0.6250    0.6140 C.2   114  MET114      0.2261
    113  O          5.9190   -1.5280    0.7010 O.2   114  MET114     -0.2867
    114  CB         5.3730    1.4440   -0.7830 C.3   114  MET114      0.0387
    115  CG         5.2690    2.0860   -2.1710 C.3   114  MET114      0.0595
    116  SD         5.8010    3.8000   -2.2520 S.3   114  MET114     -0.1393
    117  CE         7.5820    3.6020   -2.4160 C.3   114  MET114      0.0692
@<TRIPOS>BOND
     1   101    99   ar
     2   100    99   ar
     3    99    98    1
     4    98    95    1
     5     9     7   ar
     6     9    10   ar
     7    95    94    1
     8    95    96    1
     9    12    10   ar
    10    12    14   ar
    11     7     6   ar
    12    10     8   ar
    13   117   116    1
    14   116   115    1
    15   115   114    1
    16    14    13   ar
    17    97    96    2
    18    96   102   am
    19     6     8   ar
    20     6     5    1
    21     8    11   ar
    22   110   111    1
    23    13    11   ar
    24   114   111    1
    25   102   103    1
    26   111   112    1
    27     5     2    1
    28   103   104    1
    29   103   106    1
    30     1     2    1
    31    20    21    1
    32    20    19    1
    33    21    15    1
    34   112   113    2
    35     2     3    1
    36   104   105    2
    37   106   108    1
    38   106   107    1
    39    15     3   am
    40    15    16    1
    41     3     4    2
    42   109   107    1
    43    19    16    1
    44    16    17    1
    45    30    28   ar
    46    30    32   ar
    47    47    45    1
    48    43    42    2
    49    28    27   ar
    50    32    31   ar
    51    17    22   am
    52    17    18    2
    53    42    41    1
    54    41    44    1
    55    41    40    1
    56    22    23    1
    57    45    44    1
    58    45    46    1
    59    92    91    2
    60    90    91    1
    61    90    87    1
    62    27    26    1
    63    27    29   ar
    64    55    53    1
    65    91    93   am
    66    31    29   ar
    67    73    72    1
    68    88    87    1
    69    88    89    2
    70    26    23    1
    71    23    24    1
    72    87    86    1
    73    53    54    1
    74    53    52    1
    75    24    25    2
    76    48    49    1
    77    72    69    1
    78    86    76   am
    79    49    52    1
    80    49    50    1
    81    71    70    2
    82    83    81   ar
    83    83    84   ar
    84    70    69    1
    85    81    79   ar
    86    77    76    2
    87    85    84    1
    88    69    68    1
    89    76    75    1
    90    84    82   ar
    91    50    51    2
    92    39    37    1
    93    79    78    1
    94    79    80   ar
    95    38    37    1
    96    34    37    1
    97    34    35    1
    98    34    33    1
    99    78    75    1
   100    75    74    1
   101    35    36    2
   102    82    80   ar
   103    64    62   ar
   104    64    66   ar
   105    62    61   ar
   106    67    66    1
   107    66    65   ar
   108    61    60    1
   109    61    63   ar
   110    60    57    1
   111    65    63   ar
   112    56    57    1
   113    57    58    1
   114    58    59    2
