@<TRIPOS>MOLECULE
tmp/5cquA00.pdb
 162 153 0 0 0
SMALL
GASTEIGER

@<TRIPOS>ATOM
      1  N         10.8380    0.5680  -11.1990 N.3    44  LEU44      -0.1231
      2  CA         9.4260    0.8880  -11.3910 C.3    44  LEU44       0.1693
      3  C          8.5880    0.5810  -10.1530 C.2    44  LEU44       0.2593
      4  O          7.5800    1.2410   -9.9010 O.2    44  LEU44      -0.2718
      5  CB         8.8650    0.1310  -12.5970 C.3    44  LEU44       0.0284
      6  CG         9.3620    0.5980  -13.9670 C.3    44  LEU44       0.0019
      7  CD1        8.6470   -0.1420  -15.0830 C.3    44  LEU44       0.0001
      8  CD2        9.1830    2.1010  -14.1180 C.3    44  LEU44       0.0001
      9  N          9.0040   -0.4190   -9.3840 N.am   45  GLY45      -0.1942
     10  CA         8.2900   -0.7810   -8.1740 C.3    45  GLY45       0.2014
     11  C          8.6560   -2.1490   -7.6350 C.2    45  GLY45       0.2639
     12  O          9.3600   -2.9200   -8.2880 O.2    45  GLY45      -0.2714
     13  N          8.1750   -2.4480   -6.4330 N.am   46  ARG46      -0.1963
     14  CA         8.4360   -3.7350   -5.8020 C.3    46  ARG46       0.1729
     15  C          7.1380   -4.4800   -5.5090 C.2    46  ARG46       0.2617
     16  O          6.1840   -3.9060   -4.9850 O.2    46  ARG46      -0.2715
     17  CB         9.2410   -3.5490   -4.5120 C.3    46  ARG46       0.0348
     18  CG         9.4940   -4.8430   -3.7490 C.3    46  ARG46       0.0492
     19  CD        10.7900   -4.7820   -2.9520 C.3    46  ARG46       0.2205
     20  NE        10.7030   -3.9080   -1.7870 N.pl3  46  ARG46      -0.0865
     21  CZ        11.7530   -3.5270   -1.0640 C.cat  46  ARG46       0.5346
     22  NH1       12.9710   -3.9340   -1.3950 N.pl3  46  ARG46       0.1354
     23  NH2       11.5870   -2.7340   -0.0150 N.pl3  46  ARG46       0.1354
     24  N          7.1080   -5.7610   -5.8600 N.am   47  GLY47      -0.1940
     25  CA         5.9670   -6.6050   -5.5650 C.3    47  GLY47       0.2014
     26  C          6.2700   -7.5260   -4.4010 C.2    47  GLY47       0.2639
     27  O          7.3250   -7.4200   -3.7740 O.2    47  GLY47      -0.2714
     28  N          5.3470   -8.4340   -4.1080 N.am   48  LYS48      -0.1963
     29  CA         5.5430   -9.3780   -3.0170 C.3    48  LYS48       0.1728
     30  C          6.3570  -10.5730   -3.4980 C.2    48  LYS48       0.2616
     31  O          6.8550  -11.3620   -2.6960 O.2    48  LYS48      -0.2715
     32  CB         4.1960   -9.8330   -2.4500 C.3    48  LYS48       0.0311
     33  CG         4.2740  -10.3780   -1.0320 C.3    48  LYS48       0.0038
     34  CD         2.9080  -10.3770   -0.3640 C.3    48  LYS48       0.0206
     35  CE         3.0200  -10.6860    1.1200 C.3    48  LYS48       0.1093
     36  NZ         1.7070  -10.5650    1.8140 N.3    48  LYS48      -0.1314
     37  N          6.5020  -10.6890   -4.8140 N.am   49  TYR49      -0.1960
     38  CA         7.2350  -11.7990   -5.4110 C.3    49  TYR49       0.1771
     39  C          8.4590  -11.3400   -6.1980 C.2    49  TYR49       0.2620
     40  O          9.3380  -12.1450   -6.5070 O.2    49  TYR49      -0.2715
     41  CB         6.3170  -12.6120   -6.3270 C.3    49  TYR49       0.0574
     42  CG         5.3290  -13.4910   -5.5960 C.ar   49  TYR49      -0.0198
     43  CD1        5.5730  -13.9140   -4.2960 C.ar   49  TYR49      -0.0009
     44  CD2        4.1520  -13.9010   -6.2090 C.ar   49  TYR49      -0.0009
     45  CE1        4.6720  -14.7200   -3.6260 C.ar   49  TYR49       0.0417
     46  CE2        3.2450  -14.7070   -5.5470 C.ar   49  TYR49       0.0417
     47  CZ         3.5090  -15.1130   -4.2560 C.ar   49  TYR49       0.1957
     48  OH         2.6090  -15.9160   -3.5930 O.3    49  TYR49      -0.2866
     49  N          8.5200  -10.0520   -6.5230 N.am   50  SER50      -0.1950
     50  CA         9.5980   -9.5540   -7.3710 C.3    50  SER50       0.1924
     51  C          9.7970   -8.0430   -7.2990 C.2    50  SER50       0.2314
     52  O          9.0310   -7.3280   -6.6550 O.2    50  SER50      -0.2863
     53  CB         9.3350   -9.9520   -8.8250 C.3    50  SER50       0.2116
     54  OG         8.1720   -9.3100   -9.3170 O.3    50  SER50      -0.2180
     55  N         10.3450   -4.8000  -10.0670 N.3    52  VAL52      -0.1245
     56  CA        10.1950   -4.4660  -11.4780 C.3    52  VAL52       0.1561
     57  C         11.0360   -3.2490  -11.8540 C.2    52  VAL52       0.2260
     58  O         10.9530   -2.2010  -11.2150 O.2    52  VAL52      -0.2867
     59  CB         8.7210   -4.2020  -11.8350 C.3    52  VAL52       0.0252
     60  CG1        8.5740   -3.9290  -13.3220 C.3    52  VAL52       0.0019
     61  CG2        7.8630   -5.3860  -11.4210 C.3    52  VAL52       0.0019
     62  N         11.3740   -3.9930  -20.0210 N.3    65  VAL65      -0.1245
     63  CA        10.9930   -4.0140  -18.6140 C.3    65  VAL65       0.1561
     64  C         11.5130   -5.2870  -17.9570 C.2    65  VAL65       0.2260
     65  O         11.2350   -6.3910  -18.4250 O.2    65  VAL65      -0.2867
     66  CB         9.4650   -3.9320  -18.4340 C.3    65  VAL65       0.0252
     67  CG1        9.0990   -4.0560  -16.9660 C.3    65  VAL65       0.0019
     68  CG2        8.9290   -2.6320  -19.0130 C.3    65  VAL65       0.0019
     69  N         11.8810   -7.9100  -14.7520 N.3    67  LYS67      -0.1245
     70  CA        11.1960   -8.4030  -13.5660 C.3    67  LYS67       0.1561
     71  C         12.1080   -9.3390  -12.7750 C.2    67  LYS67       0.2260
     72  O         12.1780  -10.5360  -13.0530 O.2    67  LYS67      -0.2867
     73  CB         9.9000   -9.1120  -13.9660 C.3    67  LYS67       0.0271
     74  CG         8.9560   -9.4370  -12.8220 C.3    67  LYS67       0.0035
     75  CD         7.5340   -9.6100  -13.3450 C.3    67  LYS67       0.0206
     76  CE         6.5890  -10.1430  -12.2790 C.3    67  LYS67       0.1093
     77  NZ         6.8380  -11.5820  -11.9900 N.3    67  LYS67      -0.1314
     78  N          1.3570  -10.1980  -22.9640 N.3    94  ILE94      -0.1245
     79  CA         2.6720   -9.5940  -22.7770 C.3    94  ILE94       0.1561
     80  C          3.7600  -10.5300  -23.3110 C.2    94  ILE94       0.2260
     81  O          3.7030  -11.7460  -23.1210 O.2    94  ILE94      -0.2867
     82  CB         2.9350   -9.2460  -21.2890 C.3    94  ILE94       0.0252
     83  CG1        4.2160   -8.4200  -21.1450 C.3    94  ILE94       0.0019
     84  CG2        2.9760  -10.4980  -20.4180 C.3    94  ILE94       0.0019
     85  CD1        4.1130   -7.0290  -21.7280 C.3    94  ILE94       0.0001
     86  N         10.6140   -8.2990  -20.3640 N.3   112  PHE112     -0.1227
     87  CA         9.3840   -8.1560  -21.1360 C.3   112  PHE112      0.1736
     88  C          9.4480   -6.9880  -22.1130 C.2   112  PHE112      0.2595
     89  O         10.2450   -6.0650  -21.9390 O.2   112  PHE112     -0.2718
     90  CB         8.1870   -7.9700  -20.2030 C.3   112  PHE112      0.0547
     91  CG         7.9790   -9.1070  -19.2470 C.ar  112  PHE112     -0.0202
     92  CD1        7.2560  -10.2260  -19.6290 C.ar  112  PHE112     -0.0042
     93  CD2        8.4980   -9.0550  -17.9640 C.ar  112  PHE112     -0.0042
     94  CE1        7.0600  -11.2730  -18.7510 C.ar  112  PHE112     -0.0003
     95  CE2        8.3040  -10.0980  -17.0810 C.ar  112  PHE112     -0.0003
     96  CZ         7.5850  -11.2100  -17.4750 C.ar  112  PHE112     -0.0000
     97  N          8.6040   -7.0370  -23.1400 N.am  113  GLU113     -0.1979
     98  CA         8.4500   -5.9150  -24.0580 C.3   113  GLU113      0.1602
     99  C          7.9600   -4.6960  -23.2900 C.2   113  GLU113      0.2287
    100  O          7.1420   -4.8170  -22.3790 O.2   113  GLU113     -0.2864
    101  CB         7.4750   -6.2570  -25.1870 C.3   113  GLU113      0.0415
    102  CG         6.1030   -6.7040  -24.7050 C.3   113  GLU113      0.1163
    103  CD         5.0430   -6.6370  -25.7880 C.2   113  GLU113      0.3649
    104  OE1        5.0350   -5.6510  -26.5530 O.co2 113  GLU113     -0.2457
    105  OE2        4.2150   -7.5690  -25.8720 O.co2 113  GLU113     -0.2457
    106  N          5.9680   -1.2390  -22.4610 N.3   115  VAL115     -0.1245
    107  CA         4.6860   -0.6150  -22.7620 C.3   115  VAL115      0.1561
    108  C          4.6060    0.7630  -22.1160 C.2   115  VAL115      0.2260
    109  O          4.6960    0.8900  -20.8950 O.2   115  VAL115     -0.2867
    110  CB         3.4990   -1.4740  -22.2760 C.3   115  VAL115      0.0252
    111  CG1        2.1890   -0.7280  -22.4750 C.3   115  VAL115      0.0019
    112  CG2        3.4700   -2.8060  -23.0040 C.3   115  VAL115      0.0019
    113  N          2.9250    2.8270  -20.4500 N.3   117  ASN117     -0.1240
    114  CA         1.6840    2.6930  -19.6970 C.3   117  ASN117      0.1653
    115  C          1.3370    3.9050  -18.8410 C.2   117  ASN117      0.2266
    116  O          2.2120    4.5410  -18.2510 O.2   117  ASN117     -0.2867
    117  CB         1.7540    1.4440  -18.8110 C.3   117  ASN117      0.1155
    118  CG         0.5820    1.3400  -17.8510 C.2   117  ASN117      0.2627
    119  OD1       -0.5080    0.9100  -18.2280 O.2   117  ASN117     -0.2716
    120  ND2        0.8040    1.7300  -16.6010 N.am  117  ASN117     -0.0877
    121  N         -0.9380    4.8360  -15.4980 N.3   119  ASP119     -0.1239
    122  CA        -1.5680    4.1840  -14.3550 C.3   119  ASP119      0.1674
    123  C         -3.0830    4.3600  -14.4090 C.2   119  ASP119      0.2266
    124  O         -3.5770    5.3780  -14.8930 O.2   119  ASP119     -0.2867
    125  CB        -1.0110    4.7390  -13.0430 C.3   119  ASP119      0.1410
    126  CG        -1.3410    3.8600  -11.8520 C.2   119  ASP119      0.3668
    127  OD1       -0.6140    2.8700  -11.6240 O.co2 119  ASP119     -0.2456
    128  OD2       -2.3240    4.1580  -11.1430 O.co2 119  ASP119     -0.2456
    129  N         -4.2760   -3.3920  -12.2880 N.3   159  HIS159     -0.1241
    130  CA        -2.8230   -3.3030  -12.1640 C.3   159  HIS159      0.1621
    131  C         -2.1080   -4.2620  -13.1090 C.2   159  HIS159      0.2264
    132  O         -0.9780   -4.0060  -13.5230 O.2   159  HIS159     -0.2867
    133  CB        -2.3890   -3.5800  -10.7230 C.3   159  HIS159      0.0745
    134  CG        -2.5400   -2.4050   -9.8080 C.ar  159  HIS159      0.0817
    135  ND1       -2.9340   -2.5300   -8.4940 N.ar  159  HIS159     -0.2268
    136  CD2       -2.3400   -1.0820  -10.0160 C.ar  159  HIS159      0.1154
    137  CE1       -2.9760   -1.3350   -7.9330 C.ar  159  HIS159      0.1986
    138  NE2       -2.6180   -0.4390   -8.8340 N.ar  159  HIS159     -0.2212
    139  N         -1.7410   -3.4440  -18.6980 N.3   162  MET162     -0.1245
    140  CA        -0.9890   -2.3000  -19.1970 C.3   162  MET162      0.1570
    141  C         -1.6780   -1.7070  -20.4170 C.2   162  MET162      0.2261
    142  O         -2.0940   -2.4340  -21.3170 O.2   162  MET162     -0.2867
    143  CB         0.4460   -2.7020  -19.5460 C.3   162  MET162      0.0387
    144  CG         1.2730   -3.2050  -18.3690 C.3   162  MET162      0.0595
    145  SD         1.7030   -1.9310  -17.1620 S.3   162  MET162     -0.1393
    146  CE         0.4340   -2.1680  -15.9180 C.3   162  MET162      0.0692
    147  N         -0.5450   -8.5890  -18.2730 N.3   173  ILE173     -0.1231
    148  CA         0.7500   -8.9560  -17.7050 C.3   173  ILE173      0.1692
    149  C          0.6340   -9.7530  -16.4090 C.2   173  ILE173      0.2592
    150  O         -0.4680  -10.0900  -15.9720 O.2   173  ILE173     -0.2718
    151  CB         1.6100   -7.7060  -17.4260 C.3   173  ILE173      0.0266
    152  CG1        0.9820   -6.8640  -16.3130 C.3   173  ILE173      0.0019
    153  CG2        1.7840   -6.8800  -18.6910 C.3   173  ILE173      0.0020
    154  CD1        1.8840   -5.7630  -15.7990 C.3   173  ILE173      0.0001
    155  N          1.7900  -10.0450  -15.8120 N.am  174  ASP174     -0.1974
    156  CA         1.8880  -10.7350  -14.5250 C.3   174  ASP174      0.1709
    157  C          1.1890  -12.0900  -14.5180 C.2   174  ASP174      0.2293
    158  O          0.1070  -12.2420  -13.9490 O.2   174  ASP174     -0.2864
    159  CB         1.3250   -9.8560  -13.4050 C.3   174  ASP174      0.1436
    160  CG         2.3150   -8.8070  -12.9350 C.2   174  ASP174      0.3671
    161  OD1        3.2810   -8.5260  -13.6750 O.co2 174  ASP174     -0.2456
    162  OD2        2.1260   -8.2630  -11.8270 O.co2 174  ASP174     -0.2456
@<TRIPOS>BOND
     1   104   103   ar
     2   105   103   ar
     3   103   102    1
     4   101   102    1
     5   101    98    1
     6    98    99    1
     7    98    97    1
     8    80    81    2
     9    80    79    1
    10    99   100    2
    11    97    88   am
    12   112   110    1
    13    78    79    1
    14    79    82    1
    15   107   106    1
    16   107   110    1
    17   107   108    1
    18   111   110    1
    19   108   109    2
    20    88    89    2
    21    88    87    1
    22    85    83    1
    23   142   141    2
    24    82    83    1
    25    82    84    1
    26    87    86    1
    27    87    90    1
    28   113   114    1
    29   141   140    1
    30    90    91    1
    31    62    63    1
    32   114   115    1
    33   114   117    1
    34    92    91   ar
    35    92    94   ar
    36   143   140    1
    37   143   144    1
    38    91    93   ar
    39   140   139    1
    40    68    66    1
    41   115   116    2
    42   117   118    1
    43    94    96   ar
    44   153   151    1
    45    63    66    1
    46    63    64    1
    47    66    67    1
    48    65    64    2
    49   144   145    1
    50   147   148    1
    51   119   118    2
    52    93    95   ar
    53   118   120   am
    54   148   151    1
    55   148   149    1
    56    96    95   ar
    57   151   152    1
    58   145   146    1
    59   149   150    2
    60   149   155   am
    61   152   154    1
    62   155   156    1
    63   121   122    1
    64     7     6    1
    65   124   123    2
    66    69    70    1
    67   156   157    1
    68   156   159    1
    69   157   158    2
    70   123   122    1
    71   122   125    1
    72     8     6    1
    73     6     5    1
    74    73    70    1
    75    73    74    1
    76   161   160   ar
    77    70    71    1
    78   132   131    2
    79   159   160    1
    80    75    74    1
    81    75    76    1
    82    60    59    1
    83   131   130    1
    84    72    71    2
    85   125   126    1
    86   160   162   ar
    87     5     2    1
    88   129   130    1
    89    76    77    1
    90   130   133    1
    91    57    56    1
    92    57    58    2
    93   126   127   ar
    94   126   128   ar
    95    59    56    1
    96    59    61    1
    97    56    55    1
    98     2     1    1
    99     2     3    1
   100   133   134    1
   101     3     4    2
   102     3     9   am
   103   136   134   ar
   104   136   138   ar
   105   134   135   ar
   106     9    10    1
   107    54    53    1
   108   138   137   ar
   109    53    50    1
   110   135   137   ar
   111    12    11    2
   112    10    11    1
   113    11    13   am
   114    50    51    1
   115    50    49    1
   116    51    52    2
   117    49    39   am
   118    40    39    2
   119    13    14    1
   120    41    42    1
   121    41    38    1
   122    44    42   ar
   123    44    46   ar
   124    39    38    1
   125    24    25    1
   126    24    15   am
   127    14    15    1
   128    14    17    1
   129    42    43   ar
   130    25    26    1
   131    46    47   ar
   132    15    16    2
   133    38    37    1
   134    37    30   am
   135    17    18    1
   136    26    28   am
   137    26    27    2
   138    43    45   ar
   139    47    45   ar
   140    47    48    1
   141    28    29    1
   142    18    19    1
   143    30    29    1
   144    30    31    2
   145    29    32    1
   146    19    20    1
   147    32    33    1
   148    20    21    2
   149    22    21    1
   150    21    23    1
   151    33    34    1
   152    34    35    1
   153    35    36    1
