@<TRIPOS>MOLECULE
tmp/5cqwB00.pdb
 140 129 0 0 0
SMALL
GASTEIGER

@<TRIPOS>ATOM
      1  N         49.7170   -8.7450   92.4720 N.3    44  LEU44      -0.1231
      2  CA        48.5840   -7.8770   92.1750 C.3    44  LEU44       0.1693
      3  C         49.0430   -6.4860   91.7680 C.2    44  LEU44       0.2593
      4  O         48.2380   -5.6610   91.3380 O.2    44  LEU44      -0.2718
      5  CB        47.6440   -7.7860   93.3760 C.3    44  LEU44       0.0284
      6  CG        46.8690   -9.0600   93.7000 C.3    44  LEU44       0.0019
      7  CD1       45.8300   -8.7910   94.7720 C.3    44  LEU44       0.0001
      8  CD2       46.2200   -9.6210   92.4450 C.3    44  LEU44       0.0001
      9  N         50.3390   -6.2270   91.9100 N.am   45  GLY45      -0.1942
     10  CA        50.9060   -4.9590   91.4900 C.3    45  GLY45       0.2014
     11  C         51.9190   -4.3980   92.4650 C.2    45  GLY45       0.2638
     12  O         51.8850   -4.7040   93.6550 O.2    45  GLY45      -0.2714
     13  N         52.8350   -3.5830   91.9540 N.am   46  ARG46      -0.1977
     14  CA        53.7980   -2.8950   92.8040 C.3    46  ARG46       0.1597
     15  C         53.1410   -1.6780   93.4340 C.2    46  ARG46       0.2287
     16  O         52.1150   -1.1980   92.9540 O.2    46  ARG46      -0.2864
     17  CB        55.0380   -2.4840   92.0090 C.3    46  ARG46       0.0334
     18  CG        56.0500   -3.6010   91.8150 C.3    46  ARG46       0.0492
     19  CD        57.1690   -3.1890   90.8700 C.3    46  ARG46       0.2205
     20  NE        56.7070   -3.0870   89.4870 N.pl3  46  ARG46      -0.0865
     21  CZ        56.3810   -1.9470   88.8840 C.cat  46  ARG46       0.5346
     22  NH1       56.4680   -0.7970   89.5390 N.pl3  46  ARG46       0.1354
     23  NH2       55.9710   -1.9570   87.6230 N.pl3  46  ARG46       0.1354
     24  N         52.1750   -6.0160   96.4340 N.3    52  VAL52      -0.1245
     25  CA        50.9250   -6.6780   96.7860 C.3    52  VAL52       0.1561
     26  C         50.7570   -8.0020   96.0500 C.2    52  VAL52       0.2260
     27  O         50.9510   -8.0780   94.8380 O.2    52  VAL52      -0.2867
     28  CB        49.7210   -5.7720   96.4860 C.3    52  VAL52       0.0252
     29  CG1       48.4260   -6.4540   96.8860 C.3    52  VAL52       0.0019
     30  CG2       49.8760   -4.4460   97.2100 C.3    52  VAL52       0.0019
     31  N         45.0660  -11.5600  100.6640 N.3    65  VAL65      -0.1245
     32  CA        45.9450  -10.6040  100.0040 C.3    65  VAL65       0.1561
     33  C         47.1340  -10.2820  100.9040 C.2    65  VAL65       0.2260
     34  O         46.9660   -9.7700  102.0100 O.2    65  VAL65      -0.2867
     35  CB        45.1950   -9.3080   99.6360 C.3    65  VAL65       0.0252
     36  CG1       46.1620   -8.2560   99.1180 C.3    65  VAL65       0.0019
     37  CG2       44.1210   -9.5980   98.6020 C.3    65  VAL65       0.0019
     38  N         50.4530   -8.1600  101.6540 N.3    67  LYS67      -0.1245
     39  CA        51.1010   -6.8960  101.3370 C.3    67  LYS67       0.1561
     40  C         52.4910   -6.8680  101.9680 C.2    67  LYS67       0.2260
     41  O         52.6530   -6.4980  103.1310 O.2    67  LYS67      -0.2867
     42  CB        50.2340   -5.7300  101.8240 C.3    67  LYS67       0.0271
     43  CG        50.6360   -4.3610  101.3210 C.3    67  LYS67       0.0035
     44  CD        49.4950   -3.3650  101.5260 C.3    67  LYS67       0.0206
     45  CE        50.0010   -1.9550  101.7970 C.3    67  LYS67       0.1093
     46  NZ        50.5050   -1.7950  103.1920 N.3    67  LYS67      -0.1314
     47  N         38.8350   -2.2300  105.7700 N.3    94  ILE94      -0.1245
     48  CA        39.5210   -3.4580  105.3820 C.3    94  ILE94       0.1561
     49  C         39.8980   -4.2540  106.6300 C.2    94  ILE94       0.2260
     50  O         40.2050   -3.6810  107.6750 O.2    94  ILE94      -0.2867
     51  CB        40.7820   -3.1610  104.5300 C.3    94  ILE94       0.0252
     52  CG1       41.2640   -4.4230  103.8100 C.3    94  ILE94       0.0019
     53  CG2       41.8850   -2.5300  105.3680 C.3    94  ILE94       0.0019
     54  CD1       40.3460   -4.8760  102.6950 C.3    94  ILE94       0.0001
     55  N         45.6110   -9.4300  104.4430 N.3   112  PHE112     -0.1227
     56  CA        44.2710   -8.8600  104.4900 C.3   112  PHE112      0.1736
     57  C         43.2220   -9.8030  103.9250 C.2   112  PHE112      0.2595
     58  O         43.5390  -10.7420  103.1940 O.2   112  PHE112     -0.2718
     59  CB        44.2220   -7.5430  103.7170 C.3   112  PHE112      0.0547
     60  CG        45.0440   -6.4540  104.3240 C.ar  112  PHE112     -0.0202
     61  CD1       44.4900   -5.5870  105.2480 C.ar  112  PHE112     -0.0042
     62  CD2       46.3710   -6.2900  103.9680 C.ar  112  PHE112     -0.0042
     63  CE1       45.2450   -4.5760  105.8090 C.ar  112  PHE112     -0.0003
     64  CE2       47.1310   -5.2800  104.5230 C.ar  112  PHE112     -0.0003
     65  CZ        46.5690   -4.4220  105.4450 C.ar  112  PHE112     -0.0000
     66  N         41.9660   -9.5280  104.2660 N.am  113  GLU113     -0.1979
     67  CA        40.8270  -10.2040  103.6610 C.3   113  GLU113      0.1602
     68  C         40.8050   -9.9110  102.1690 C.2   113  GLU113      0.2287
     69  O         41.3010   -8.8740  101.7350 O.2   113  GLU113     -0.2864
     70  CB        39.5240   -9.7380  104.3050 C.3   113  GLU113      0.0415
     71  CG        39.2800   -8.2460  104.1280 C.3   113  GLU113      0.1163
     72  CD        37.8610   -7.8380  104.4560 C.2   113  GLU113      0.3649
     73  OE1       37.6470   -6.6550  104.7940 O.co2 113  GLU113     -0.2457
     74  OE2       36.9580   -8.6950  104.3590 O.co2 113  GLU113     -0.2457
     75  N         39.1350   -8.9510   98.5090 N.3   115  VAL115     -0.1245
     76  CA        38.0280   -8.2160   97.9110 C.3   115  VAL115      0.1561
     77  C         38.0870   -8.3180   96.3900 C.2   115  VAL115      0.2260
     78  O         39.1250   -8.0560   95.7860 O.2   115  VAL115     -0.2867
     79  CB        38.0370   -6.7300   98.3240 C.3   115  VAL115      0.0252
     80  CG1       36.9200   -5.9700   97.6140 C.3   115  VAL115      0.0019
     81  CG2       37.9120   -6.5930   99.8350 C.3   115  VAL115      0.0019
     82  N         37.9820   -6.6950   93.5670 N.3   117  ASN117     -0.1240
     83  CA        38.0210   -5.2880   93.1850 C.3   117  ASN117      0.1653
     84  C         38.1010   -5.0400   91.6810 C.2   117  ASN117      0.2266
     85  O         38.8270   -5.7260   90.9600 O.2   117  ASN117     -0.2867
     86  CB        39.1990   -4.5910   93.8680 C.3   117  ASN117      0.1155
     87  CG        39.4720   -3.2110   93.2930 C.2   117  ASN117      0.2627
     88  OD1       38.7320   -2.2580   93.5490 O.2   117  ASN117     -0.2716
     89  ND2       40.5390   -3.0980   92.5100 N.am  117  ASN117     -0.0877
     90  N         39.1430   -1.9830   89.0730 N.3   119  ASP119     -0.1239
     91  CA        39.8870   -0.7230   89.0610 C.3   119  ASP119      0.1674
     92  C         39.0170    0.4530   88.6210 C.2   119  ASP119      0.2266
     93  O         38.1560    0.3110   87.7500 O.2   119  ASP119     -0.2867
     94  CB        41.1120   -0.8310   88.1500 C.3   119  ASP119      0.1410
     95  CG        42.0560    0.3500   88.3010 C.2   119  ASP119      0.3668
     96  OD1       42.2270    0.8380   89.4390 O.co2 119  ASP119     -0.2456
     97  OD2       42.6270    0.7920   87.2810 O.co2 119  ASP119     -0.2456
     98  N         39.8020    2.9890   86.9570 N.3   121  LYS121     -0.1245
     99  CA        40.1010    3.3930   85.5880 C.3   121  LYS121      0.1561
    100  C         39.1510    2.7160   84.6040 C.2   121  LYS121      0.2260
    101  O         38.9620    3.1870   83.4820 O.2   121  LYS121     -0.2867
    102  CB        41.5540    3.0670   85.2340 C.3   121  LYS121      0.0271
    103  CG        42.5730    4.0260   85.8360 C.3   121  LYS121      0.0035
    104  CD        42.4930    5.4050   85.1970 C.3   121  LYS121      0.0206
    105  CE        43.6230    6.3040   85.6780 C.3   121  LYS121      0.1093
    106  NZ        43.5630    7.6580   85.0600 N.3   121  LYS121     -0.1314
    107  N         42.5040    4.9970   94.3950 N.3   159  HIS159     -0.1241
    108  CA        43.3810    3.8330   94.5010 C.3   159  HIS159      0.1621
    109  C         43.2700    3.1400   95.8580 C.2   159  HIS159      0.2264
    110  O         43.6030    1.9620   95.9870 O.2   159  HIS159     -0.2867
    111  CB        44.8370    4.2390   94.2580 C.3   159  HIS159      0.0745
    112  CG        45.2770    4.0990   92.8340 C.ar  159  HIS159      0.0817
    113  ND1       46.3330    4.8120   92.3090 N.ar  159  HIS159     -0.2268
    114  CD2       44.8110    3.3210   91.8280 C.ar  159  HIS159      0.1154
    115  CE1       46.4960    4.4850   91.0400 C.ar  159  HIS159      0.1986
    116  NE2       45.5850    3.5820   90.7230 N.ar  159  HIS159     -0.2212
    117  N         38.6490   -0.0480   97.4440 N.3   162  MET162     -0.1245
    118  CA        38.3400   -1.2930   96.7510 C.3   162  MET162      0.1570
    119  C         36.8320   -1.4490   96.6050 C.2   162  MET162      0.2261
    120  O         36.0910   -1.3430   97.5820 O.2   162  MET162     -0.2867
    121  CB        38.9270   -2.4930   97.4970 C.3   162  MET162      0.0387
    122  CG        40.4400   -2.4580   97.6840 C.3   162  MET162      0.0595
    123  SD        41.3810   -2.7000   96.1630 S.3   162  MET162     -0.1393
    124  CE        41.7030   -1.0050   95.6680 C.3   162  MET162      0.0692
    125  N         41.0470    0.9400  102.1270 N.3   173  ILE173     -0.1231
    126  CA        42.2980    0.2460  102.4330 C.3   173  ILE173      0.1692
    127  C         43.4850    1.1840  102.6320 C.2   173  ILE173      0.2592
    128  O         43.3310    2.4050  102.6570 O.2   173  ILE173     -0.2718
    129  CB        42.6670   -0.7500  101.3200 C.3   173  ILE173      0.0266
    130  CG1       42.9750    0.0010  100.0240 C.3   173  ILE173      0.0019
    131  CG2       41.5450   -1.7440  101.1030 C.3   173  ILE173      0.0020
    132  CD1       43.6120   -0.8600   98.9580 C.3   173  ILE173      0.0001
    133  N         44.6650    0.5830  102.7780 N.am  174  ASP174     -0.1974
    134  CA        45.9360    1.3010  102.8730 C.3   174  ASP174      0.1709
    135  C         45.9320    2.3700  103.9590 C.2   174  ASP174      0.2293
    136  O         45.7870    3.5590  103.6800 O.2   174  ASP174     -0.2864
    137  CB        46.2870    1.9230  101.5220 C.3   174  ASP174      0.1436
    138  CG        46.8390    0.9030  100.5430 C.2   174  ASP174      0.3671
    139  OD1       47.3440   -0.1440  101.0000 O.co2 174  ASP174     -0.2456
    140  OD2       46.7700    1.1440   99.3190 O.co2 174  ASP174     -0.2456
@<TRIPOS>BOND
     1   101   100    2
     2   100    99    1
     3   106   105    1
     4   104   105    1
     5   104   103    1
     6   102    99    1
     7   102   103    1
     8    99    98    1
     9    97    95   ar
    10    23    21    1
    11    93    92    2
    12    94    95    1
    13    94    91    1
    14    95    96   ar
    15    92    91    1
    16    21    20    2
    17    21    22    1
    18    91    90    1
    19    20    19    1
    20   116   115   ar
    21   116   114   ar
    22    19    18    1
    23    85    84    2
    24   115   113   ar
    25     4     3    2
    26    10     9    1
    27    10    11    1
    28    84    83    1
    29     3     9   am
    30     3     2    1
    31    18    17    1
    32   114   112   ar
    33    13    11   am
    34    13    14    1
    35    17    14    1
    36     2     1    1
    37     2     5    1
    38   113   112   ar
    39     8     6    1
    40    11    12    2
    41    89    87   am
    42    14    15    1
    43   112   111    1
    44    16    15    2
    45    83    82    1
    46    83    86    1
    47    87    88    2
    48    87    86    1
    49     5     6    1
    50     6     7    1
    51   111   108    1
    52   107   108    1
    53   108   109    1
    54    27    26    2
    55   124   123    1
    56    78    77    2
    57   109   110    2
    58    26    25    1
    59   123   122    1
    60    77    76    1
    61    24    25    1
    62    28    25    1
    63    28    29    1
    64    28    30    1
    65   119   118    1
    66   119   120    2
    67   118   117    1
    68   118   121    1
    69   121   122    1
    70    80    79    1
    71    76    79    1
    72    76    75    1
    73    79    81    1
    74    37    35    1
    75   132   130    1
    76    36    35    1
    77   140   138   ar
    78    35    32    1
    79    32    31    1
    80    32    33    1
    81   130   129    1
    82   138   139   ar
    83   138   137    1
    84    33    34    2
    85   131   129    1
    86   129   126    1
    87    43    44    1
    88    43    42    1
    89    39    38    1
    90    39    42    1
    91    39    40    1
    92   137   134    1
    93    44    45    1
    94    69    68    2
    95    45    46    1
    96    40    41    2
    97   125   126    1
    98    68    67    1
    99   126   127    1
   100   127   128    2
   101   127   133   am
   102    54    52    1
   103   133   134    1
   104   134   135    1
   105    58    57    2
   106    67    66    1
   107    67    70    1
   108   136   135    2
   109    59    60    1
   110    59    56    1
   111    52    51    1
   112    57    66   am
   113    57    56    1
   114    62    60   ar
   115    62    64   ar
   116    71    70    1
   117    71    72    1
   118    60    61   ar
   119    74    72   ar
   120    55    56    1
   121    72    73   ar
   122    64    65   ar
   123    51    53    1
   124    51    48    1
   125    61    63   ar
   126    48    47    1
   127    48    49    1
   128    65    63   ar
   129    49    50    2
