@<TRIPOS>MOLECULE
tmp/5cr2C00.pdb
 130 128 0 0 0
SMALL
GASTEIGER

@<TRIPOS>ATOM
      1  N        137.4790    2.8040   47.9770 N.3    12  TRP12      -0.1241
      2  CA       138.7250    2.0750   48.1620 C.3    12  TRP12       0.1605
      3  C        139.4970    2.6810   49.3200 C.2    12  TRP12       0.2264
      4  O        139.8990    3.8430   49.2680 O.2    12  TRP12      -0.2867
      5  CB       139.5800    2.1060   46.8980 C.3    12  TRP12       0.0550
      6  CG       140.7030    1.1240   46.9500 C.ar   12  TRP12       0.0003
      7  CD1      141.9990    1.3670   47.3220 C.ar   12  TRP12       0.0946
      8  CD2      140.6320   -0.2690   46.6390 C.ar   12  TRP12       0.0152
      9  NE1      142.7380    0.2130   47.2470 N.ar   12  TRP12      -0.2442
     10  CE2      141.9230   -0.8080   46.8310 C.ar   12  TRP12       0.0810
     11  CE3      139.6040   -1.1130   46.2040 C.ar   12  TRP12       0.0012
     12  CZ2      142.2100   -2.1550   46.6140 C.ar   12  TRP12       0.0191
     13  CZ3      139.8920   -2.4480   45.9860 C.ar   12  TRP12       0.0001
     14  CH2      141.1840   -2.9570   46.1940 C.ar   12  TRP12       0.0015
     15  N        138.9470   -7.0400   58.9930 N.3    23  GLN23      -0.1245
     16  CA       139.4380   -6.9960   57.6180 C.3    23  GLN23       0.1566
     17  C        140.6480   -6.0760   57.4590 C.2    23  GLN23       0.2260
     18  O        140.6310   -4.9280   57.9020 O.2    23  GLN23      -0.2867
     19  CB       138.3250   -6.5920   56.6500 C.3    23  GLN23       0.0367
     20  CG       137.2700   -7.6620   56.4700 C.3    23  GLN23       0.0905
     21  CD       137.8670   -8.9930   56.0470 C.2    23  GLN23       0.2608
     22  OE1      138.4470   -9.1130   54.9660 O.2    23  GLN23      -0.2717
     23  NE2      137.7360   -9.9980   56.9060 N.am   23  GLN23      -0.0878
     24  N        144.1560   -2.8500   51.8700 N.3    26  HIS26      -0.1226
     25  CA       143.2700   -2.0700   51.0190 C.3    26  HIS26       0.1752
     26  C        142.1500   -2.9740   50.5300 C.2    26  HIS26       0.2596
     27  O        142.3780   -4.1490   50.2450 O.2    26  HIS26      -0.2718
     28  CB       144.0310   -1.4950   49.8220 C.3    26  HIS26       0.0759
     29  CG       144.9930   -0.4060   50.1780 C.ar   26  HIS26       0.0818
     30  ND1      146.1540   -0.6350   50.8850 N.ar   26  HIS26      -0.2268
     31  CD2      144.9680    0.9260   49.9190 C.ar   26  HIS26       0.1154
     32  CE1      146.8020    0.5050   51.0450 C.ar   26  HIS26       0.1986
     33  NE2      146.1060    1.4650   50.4700 N.ar   26  HIS26      -0.2212
     34  N        140.9430   -2.4270   50.4280 N.am   27  ARG27      -0.1966
     35  CA       139.8020   -3.1990   49.9520 C.3    27  ARG27       0.1714
     36  C        138.5560   -2.3260   49.8640 C.2    27  ARG27       0.2458
     37  O        138.4520   -1.3060   50.5500 O.2    27  ARG27      -0.2730
     38  CB       139.5310   -4.3930   50.8720 C.3    27  ARG27       0.0347
     39  CG       138.9640   -4.0100   52.2240 C.3    27  ARG27       0.0492
     40  CD       138.5070   -5.2320   53.0120 C.3    27  ARG27       0.2205
     41  NE       139.6210   -6.0540   53.4720 N.pl3  27  ARG27      -0.0865
     42  CZ       140.0550   -7.1420   52.8460 C.cat  27  ARG27       0.5346
     43  NH1      139.4670   -7.5480   51.7290 N.pl3  27  ARG27       0.1354
     44  NH2      141.0770   -7.8240   53.3400 N.pl3  27  ARG27       0.1354
     45  N        137.5990   -2.7300   49.0170 N.am   28  PRO28      -0.2727
     46  CA       136.3560   -1.9730   48.8610 C.3    28  PRO28       0.1402
     47  C        135.5220   -1.9920   50.1380 C.2    28  PRO28       0.2269
     48  O        135.4470   -3.0140   50.8170 O.2    28  PRO28      -0.2865
     49  CB       135.6350   -2.7160   47.7330 C.3    28  PRO28       0.0296
     50  CG       136.1930   -4.0880   47.7610 C.3    28  PRO28       0.0237
     51  CD       137.6240   -3.9340   48.1690 C.3    28  PRO28       0.0939
     52  N        134.5650   -5.0480   52.2450 N.3    49  CYS49      -0.1221
     53  CA       134.1370   -6.1060   51.3410 C.3    49  CYS49       0.1808
     54  C        135.2870   -7.0690   51.0740 C.2    49  CYS49       0.2602
     55  O        136.4470   -6.6640   51.0490 O.2    49  CYS49      -0.2717
     56  CB       133.6230   -5.5030   50.0340 C.3    49  CYS49       0.0970
     57  SG       132.3840   -4.1950   50.2690 S.3    49  CYS49      -0.0800
     58  N        134.9670   -8.3460   50.8910 N.am   50  THR50      -0.1939
     59  CA       135.9920   -9.3450   50.6070 C.3    50  THR50       0.2028
     60  C        135.6560  -10.1140   49.3360 C.2    50  THR50       0.2643
     61  O        134.5920   -9.9200   48.7480 O.2    50  THR50      -0.2714
     62  CB       136.1610  -10.3430   51.7770 C.3    50  THR50       0.1808
     63  OG1      137.1830  -11.2950   51.4540 O.3    50  THR50      -0.2208
     64  CG2      134.8570  -11.0800   52.0510 C.3    50  THR50       0.0379
     65  N        136.5530  -11.0040   48.9270 N.am   51  THR51      -0.1936
     66  CA       136.3480  -11.7720   47.7010 C.3    51  THR51       0.2028
     67  C        136.1220  -13.2590   47.9900 C.2    51  THR51       0.2642
     68  O        135.0600  -13.7980   47.6770 O.2    51  THR51      -0.2714
     69  CB       137.4640  -11.5210   46.6490 C.3    51  THR51       0.1808
     70  OG1      136.8620  -11.1610   45.4000 O.3    51  THR51      -0.2208
     71  CG2      138.3440  -12.7520   46.4440 C.3    51  THR51       0.0379
     72  N        137.1110  -13.9210   48.5840 N.am   52  GLN52      -0.1976
     73  CA       136.9300  -15.2980   49.0180 C.3    52  GLN52       0.1601
     74  C        135.7760  -15.3150   50.0090 C.2    52  GLN52       0.2287
     75  O        135.7860  -14.5830   51.0000 O.2    52  GLN52      -0.2864
     76  CB       138.2080  -15.8380   49.6610 C.3    52  GLN52       0.0394
     77  CG       138.1310  -17.3040   50.0860 C.3    52  GLN52       0.0908
     78  CD       137.9520  -18.2520   48.9090 C.2    52  GLN52       0.2608
     79  OE1      138.5350  -18.0560   47.8410 O.2    52  GLN52      -0.2717
     80  NE2      137.1350  -19.2820   49.1000 N.am   52  GLN52      -0.0878
     81  N        129.3540   -5.9360   40.2280 N.3    65  GLN65      -0.1231
     82  CA       130.4890   -5.1710   40.7140 C.3    65  GLN65       0.1698
     83  C        131.7310   -5.4040   39.8610 C.2    65  GLN65       0.2592
     84  O        131.6990   -6.1580   38.8890 O.2    65  GLN65      -0.2718
     85  CB       130.7700   -5.5230   42.1750 C.3    65  GLN65       0.0381
     86  CG       131.0950   -4.3210   43.0350 C.3    65  GLN65       0.0905
     87  CD       130.0240   -3.2490   42.9550 C.2    65  GLN65       0.2608
     88  OE1      130.3030   -2.1040   42.6010 O.2    65  GLN65      -0.2717
     89  NE2      128.7880   -3.6170   43.2840 N.am   65  GLN65      -0.0878
     90  N        132.8230   -4.7490   40.2350 N.am   66  GLU66      -0.1966
     91  CA       134.0790   -4.8680   39.5120 C.3    66  GLU66       0.1733
     92  C        134.5090   -6.3330   39.4490 C.2    66  GLU66       0.2616
     93  O        134.9610   -6.8180   38.4110 O.2    66  GLU66      -0.2715
     94  CB       135.1440   -4.0170   40.2030 C.3    66  GLU66       0.0429
     95  CG       136.2160   -3.4790   39.2810 C.3    66  GLU66       0.1163
     96  CD       137.3590   -4.4520   39.0860 C.2    66  GLU66       0.3649
     97  OE1      137.2340   -5.6150   39.5240 O.co2  66  GLU66      -0.2457
     98  OE2      138.3860   -4.0510   38.4980 O.co2  66  GLU66      -0.2457
     99  N        134.3500   -7.0300   40.5700 N.am   67  ARG67      -0.1963
    100  CA       134.6850   -8.4460   40.6660 C.3    67  ARG67       0.1729
    101  C        133.7480   -9.1270   41.6560 C.2    67  ARG67       0.2616
    102  O        133.2450   -8.4860   42.5770 O.2    67  ARG67      -0.2715
    103  CB       136.1350   -8.6240   41.1200 C.3    67  ARG67       0.0348
    104  CG       136.4870  -10.0510   41.5150 C.3    67  ARG67       0.0492
    105  CD       137.8440  -10.1400   42.2080 C.3    67  ARG67       0.2205
    106  NE       138.9360  -10.3560   41.2620 N.pl3  67  ARG67      -0.0865
    107  CZ       140.1820  -10.6530   41.6180 C.cat  67  ARG67       0.5346
    108  NH1      141.1160  -10.8230   40.6840 N.pl3  67  ARG67       0.1354
    109  NH2      140.4910  -10.7690   42.9090 N.pl3  67  ARG67       0.1354
    110  N        133.5150  -10.4230   41.4710 N.am   68  ASP68      -0.1957
    111  CA       132.6770  -11.1720   42.4000 C.3    68  ASP68       0.1840
    112  C        133.2110  -11.0040   43.8150 C.2    68  ASP68       0.2622
    113  O        134.3820  -11.2740   44.0830 O.2    68  ASP68      -0.2715
    114  CB       132.6440  -12.6560   42.0350 C.3    68  ASP68       0.1450
    115  CG       131.8750  -12.9240   40.7570 C.2    68  ASP68       0.3671
    116  OD1      130.8070  -12.3010   40.5580 O.co2  68  ASP68      -0.2456
    117  OD2      132.3410  -13.7530   39.9460 O.co2  68  ASP68      -0.2456
    118  N        132.3470  -10.5670   44.7230 N.am   69  GLY69      -0.1954
    119  CA       132.7530  -10.3280   46.0940 C.3    69  GLY69       0.1869
    120  C        131.5830  -10.2170   47.0460 C.2    69  GLY69       0.2309
    121  O        130.4230  -10.2010   46.6270 O.2    69  GLY69      -0.2863
    122  N        135.2930    3.9170   44.6100 N.3    89  LYS89      -0.1245
    123  CA       135.3010    2.7300   43.7590 C.3    89  LYS89       0.1561
    124  C        134.0930    2.6620   42.8230 C.2    89  LYS89       0.2260
    125  O        134.2140    2.2460   41.6740 O.2    89  LYS89      -0.2867
    126  CB       135.3850    1.4590   44.6060 C.3    89  LYS89       0.0271
    127  CG       135.6840    0.2020   43.8070 C.3    89  LYS89       0.0035
    128  CD       136.9890    0.3420   43.0310 C.3    89  LYS89       0.0206
    129  CE       137.3560   -0.9440   42.3020 C.3    89  LYS89       0.1093
    130  NZ       138.6010   -0.7680   41.5020 N.3    89  LYS89      -0.1314
@<TRIPOS>BOND
     1    93    92    2
     2    98    96   ar
     3    84    83    2
     4    96    95    1
     5    96    97   ar
     6    95    94    1
     7    92    91    1
     8    92    99   am
     9    91    94    1
    10    91    90    1
    11    83    90   am
    12    83    82    1
    13   117   115   ar
    14    81    82    1
    15   116   115   ar
    16    99   100    1
    17   100   103    1
    18   100   101    1
    19   108   107    1
    20    82    85    1
    21   115   114    1
    22   103   104    1
    23   106   107    2
    24   106   105    1
    25   110   101   am
    26   110   111    1
    27   130   129    1
    28   104   105    1
    29   107   109    1
    30   101   102    2
    31   125   124    2
    32   114   111    1
    33    85    86    1
    34   129   128    1
    35   111   112    1
    36    88    87    2
    37   124   123    1
    38    87    86    1
    39    87    89   am
    40   128   127    1
    41   123   126    1
    42   123   122    1
    43   127   126    1
    44   112   113    2
    45   112   118   am
    46   118   119    1
    47    70    69    1
    48    13    14   ar
    49    13    11   ar
    50   119   120    1
    51    14    12   ar
    52    11     8   ar
    53    71    69    1
    54    12    10   ar
    55   121   120    2
    56     8    10   ar
    57     8     6   ar
    58    69    66    1
    59    10     9   ar
    60     5     6    1
    61     5     2    1
    62     6     7   ar
    63     9     7   ar
    64    68    67    2
    65    66    67    1
    66    66    65    1
    67    49    50    1
    68    49    46    1
    69    50    51    1
    70    79    78    2
    71     1     2    1
    72    67    72   am
    73     2     3    1
    74    51    45    1
    75    72    73    1
    76    61    60    2
    77    46    45    1
    78    46    47    1
    79    78    80   am
    80    78    77    1
    81    65    60   am
    82    45    36   am
    83    73    76    1
    84    73    74    1
    85     4     3    2
    86    60    59    1
    87    76    77    1
    88    28    29    1
    89    28    25    1
    90    36    35    1
    91    36    37    2
    92    31    29   ar
    93    31    33   ar
    94    35    34    1
    95    35    38    1
    96    74    75    2
    97    56    57    1
    98    56    53    1
    99    47    48    2
   100    29    30   ar
   101    27    26    2
   102    34    26   am
   103    33    32   ar
   104    26    25    1
   105    59    58    1
   106    59    62    1
   107    38    39    1
   108    30    32   ar
   109    58    54   am
   110    25    24    1
   111    55    54    2
   112    54    53    1
   113    53    52    1
   114    63    62    1
   115    43    42    1
   116    62    64    1
   117    39    40    1
   118    42    44    1
   119    42    41    2
   120    40    41    1
   121    22    21    2
   122    21    20    1
   123    21    23   am
   124    20    19    1
   125    19    16    1
   126    17    16    1
   127    17    18    2
   128    16    15    1
