@<TRIPOS>MOLECULE
tmp/5cr5A01.pdb
 180 168 0 0 0
SMALL
GASTEIGER

@<TRIPOS>ATOM
      1  N        -14.6220   35.5790   28.4090 N.3    23  PHE23      -0.1241
      2  CA       -13.5750   35.1610   27.4870 C.3    23  PHE23       0.1605
      3  C        -12.2830   34.7740   28.1880 C.2    23  PHE23       0.2264
      4  O        -11.7850   35.5130   29.0290 O.2    23  PHE23      -0.2867
      5  CB       -13.1920   36.2190   26.4500 C.3    23  PHE23       0.0534
      6  CG       -11.9370   35.8440   25.7140 C.ar   23  PHE23      -0.0203
      7  CD1      -11.9790   34.8460   24.7600 C.ar   23  PHE23      -0.0042
      8  CD2      -10.7020   36.3740   26.0760 C.ar   23  PHE23      -0.0042
      9  CE1      -10.8310   34.4190   24.1180 C.ar   23  PHE23      -0.0003
     10  CE2       -9.5450   35.9600   25.4300 C.ar   23  PHE23      -0.0003
     11  CZ        -9.6130   34.9830   24.4520 C.ar   23  PHE23      -0.0000
     12  N          2.5050   34.2600   20.7560 N.3    68  PHE68      -0.1241
     13  CA         1.2580   33.5130   20.7410 C.3    68  PHE68       0.1605
     14  C          0.4690   33.7500   19.4790 C.2    68  PHE68       0.2264
     15  O          0.7670   34.6460   18.6980 O.2    68  PHE68      -0.2867
     16  CB         0.4070   33.8840   21.9430 C.3    68  PHE68       0.0534
     17  CG        -0.0980   35.3030   21.9320 C.ar   68  PHE68      -0.0203
     18  CD1        0.7290   36.3740   22.2950 C.ar   68  PHE68      -0.0042
     19  CD2       -1.4180   35.5810   21.6000 C.ar   68  PHE68      -0.0042
     20  CE1        0.2490   37.6590   22.3270 C.ar   68  PHE68      -0.0003
     21  CE2       -1.8950   36.8860   21.6160 C.ar   68  PHE68      -0.0003
     22  CZ        -1.0500   37.9270   21.9720 C.ar   68  PHE68      -0.0000
     23  N        -10.0540   31.0380   15.6660 N.3    72  LYS72      -0.1245
     24  CA       -11.3070   30.4230   16.0480 C.3    72  LYS72       0.1561
     25  C        -11.7090   29.2520   15.1710 C.2    72  LYS72       0.2260
     26  O        -11.4120   29.2260   13.9750 O.2    72  LYS72      -0.2867
     27  CB       -12.4310   31.4640   16.0700 C.3    72  LYS72       0.0271
     28  CG       -12.4670   32.2550   17.3650 C.3    72  LYS72       0.0035
     29  CD       -13.5300   33.3350   17.3540 C.3    72  LYS72       0.0206
     30  CE       -13.6570   33.9810   18.7150 C.3    72  LYS72       0.1093
     31  NZ       -14.6340   35.0890   18.7690 N.3    72  LYS72      -0.1314
     32  N          1.9970   33.4840   10.4220 N.3    92  ARG92      -0.1245
     33  CA         2.3230   34.5720   11.3450 C.3    92  ARG92       0.1563
     34  C          3.0980   34.0500   12.5600 C.2    92  ARG92       0.2260
     35  O          4.0590   34.6870   12.9920 O.2    92  ARG92      -0.2867
     36  CB         1.0420   35.2740   11.7710 C.3    92  ARG92       0.0307
     37  CG         1.2400   36.5810   12.5040 C.3    92  ARG92       0.0489
     38  CD        -0.0880   37.3290   12.5620 C.3    92  ARG92       0.2205
     39  NE        -1.0480   36.7090   13.4570 N.pl3  92  ARG92      -0.0865
     40  CZ        -2.3220   37.0830   13.5980 C.cat  92  ARG92       0.5346
     41  NH1       -2.8400   38.0340   12.8340 N.pl3  92  ARG92       0.1354
     42  NH2       -3.1110   36.4650   14.4640 N.pl3  92  ARG92       0.1354
     43  N        -11.9340   29.2120   20.8430 N.3   134  TYR134     -0.1241
     44  CA       -10.7180   30.0130   20.6370 C.3   134  TYR134      0.1605
     45  C         -9.5070   29.1210   20.8600 C.2   134  TYR134      0.2264
     46  O         -9.4500   28.4110   21.8630 O.2   134  TYR134     -0.2867
     47  CB       -10.7000   31.1520   21.6360 C.3   134  TYR134      0.0534
     48  CG        -9.5650   32.1310   21.4650 C.ar  134  TYR134     -0.0201
     49  CD1       -9.6300   33.1350   20.5030 C.ar  134  TYR134     -0.0009
     50  CD2       -8.4400   32.0730   22.2800 C.ar  134  TYR134     -0.0009
     51  CE1       -8.5930   34.0590   20.3430 C.ar  134  TYR134      0.0417
     52  CE2       -7.4050   32.9800   22.1260 C.ar  134  TYR134      0.0417
     53  CZ        -7.4930   33.9780   21.1660 C.ar  134  TYR134      0.1957
     54  OH        -6.4730   34.8940   21.0390 O.3   134  TYR134     -0.2866
     55  N         -5.3860   28.8790   21.2200 N.3   136  ARG136     -0.1245
     56  CA        -4.2690   29.6910   21.6950 C.3   136  ARG136      0.1563
     57  C         -2.9800   28.8960   21.6470 C.2   136  ARG136      0.2260
     58  O         -2.6150   28.2740   22.6520 O.2   136  ARG136     -0.2867
     59  CB        -4.5590   30.1890   23.1170 C.3   136  ARG136      0.0307
     60  CG        -3.4320   30.9080   23.8610 C.3   136  ARG136      0.0489
     61  CD        -2.7580   32.0040   23.0640 C.3   136  ARG136      0.2205
     62  NE        -3.6550   33.1240   22.7820 N.pl3 136  ARG136     -0.0865
     63  CZ        -3.8640   34.1720   23.5850 C.cat 136  ARG136      0.5346
     64  NH1       -3.2220   34.2930   24.7290 N.pl3 136  ARG136      0.1354
     65  NH2       -4.6740   35.1350   23.2190 N.pl3 136  ARG136      0.1354
     66  N        -15.9420   29.9530   23.7610 N.3   163  VAL163     -0.1245
     67  CA       -16.2690   31.3630   23.8890 C.3   163  VAL163      0.1561
     68  C        -17.7410   31.5920   23.5920 C.2   163  VAL163      0.2260
     69  O        -18.3020   30.9480   22.7090 O.2   163  VAL163     -0.2867
     70  CB       -15.4200   32.2140   22.9250 C.3   163  VAL163      0.0252
     71  CG1      -15.5640   33.6900   23.2540 C.3   163  VAL163      0.0019
     72  CG2      -13.9580   31.8080   23.0150 C.3   163  VAL163      0.0019
     73  N        -19.9800   37.4110   21.2720 N.3   166  TYR166     -0.1241
     74  CA       -19.3520   38.6860   21.6240 C.3   166  TYR166      0.1605
     75  C        -20.4090   39.7660   21.8170 C.2   166  TYR166      0.2264
     76  O        -20.2650   40.6190   22.6860 O.2   166  TYR166     -0.2867
     77  CB       -18.3520   39.1330   20.5520 C.3   166  TYR166      0.0534
     78  CG       -17.5640   40.3400   20.9870 C.ar  166  TYR166     -0.0201
     79  CD1      -18.0420   41.6210   20.7460 C.ar  166  TYR166     -0.0009
     80  CD2      -16.3670   40.1990   21.6930 C.ar  166  TYR166     -0.0009
     81  CE1      -17.3400   42.7370   21.1550 C.ar  166  TYR166      0.0417
     82  CE2      -15.6590   41.3100   22.1110 C.ar  166  TYR166      0.0417
     83  CZ       -16.1550   42.5770   21.8390 C.ar  166  TYR166      0.1957
     84  OH       -15.4760   43.6990   22.2410 O.3   166  TYR166     -0.2866
     85  N        -18.5020   50.9460   20.4440 N.3   175  VAL175     -0.1245
     86  CA       -17.6570   51.3720   21.5550 C.3   175  VAL175      0.1561
     87  C        -17.1230   52.7820   21.4240 C.2   175  VAL175      0.2260
     88  O        -17.1140   53.3840   20.3280 O.2   175  VAL175     -0.2867
     89  CB       -16.4470   50.4330   21.7620 C.3   175  VAL175      0.0252
     90  CG1      -16.9200   49.0290   22.0940 C.3   175  VAL175      0.0019
     91  CG2      -15.5490   50.4560   20.5310 C.3   175  VAL175      0.0019
     92  N          3.1280   39.1010   16.8080 N.3   195  LYS195     -0.1245
     93  CA         2.2440   38.7900   17.9300 C.3   195  LYS195      0.1561
     94  C          3.0600   38.2440   19.0950 C.2   195  LYS195      0.2260
     95  O          3.0660   37.0530   19.3880 O.2   195  LYS195     -0.2867
     96  CB         1.1140   37.8610   17.4700 C.3   195  LYS195      0.0271
     97  CG        -0.2230   38.1520   18.1210 C.3   195  LYS195      0.0035
     98  CD        -1.3420   37.3910   17.4350 C.3   195  LYS195      0.0206
     99  CE        -2.6830   37.6950   18.0560 C.3   195  LYS195      0.1093
    100  NZ        -3.1680   39.0610   17.7540 N.3   195  LYS195     -0.1314
    101  N          1.9780   43.5150   24.6960 N.3   200  TYR200     -0.1241
    102  CA         0.6750   43.5410   25.3900 C.3   200  TYR200      0.1605
    103  C          0.7440   44.0170   26.8240 C.2   200  TYR200      0.2264
    104  O         -0.0610   44.8430   27.2470 O.2   200  TYR200     -0.2867
    105  CB        -0.0360   42.1690   25.2580 C.3   200  TYR200      0.0534
    106  CG        -0.2550   41.8970   23.8030 C.ar  200  TYR200     -0.0201
    107  CD1        0.7510   41.3240   23.0320 C.ar  200  TYR200     -0.0009
    108  CD2       -1.3880   42.3640   23.1500 C.ar  200  TYR200     -0.0009
    109  CE1        0.6150   41.1880   21.6660 C.ar  200  TYR200      0.0417
    110  CE2       -1.5370   42.1830   21.7960 C.ar  200  TYR200      0.0417
    111  CZ        -0.5250   41.6270   21.0580 C.ar  200  TYR200      0.1957
    112  OH        -0.6910   41.4930   19.6890 O.3   200  TYR200     -0.2866
    113  N        -12.1020   51.6220   24.9660 N.3   217  GLN217     -0.1245
    114  CA       -10.9010   51.0630   24.3470 C.3   217  GLN217      0.1566
    115  C         -9.9680   52.1900   23.9680 C.2   217  GLN217      0.2260
    116  O        -10.3490   53.3560   23.9560 O.2   217  GLN217     -0.2867
    117  CB       -11.2250   50.2390   23.0890 C.3   217  GLN217      0.0367
    118  CG       -12.1500   49.0490   23.3320 C.3   217  GLN217      0.0905
    119  CD       -11.5310   47.9680   24.1850 C.2   217  GLN217      0.2608
    120  OE1      -10.3220   47.7870   24.1960 O.2   217  GLN217     -0.2717
    121  NE2      -12.3680   47.2360   24.9130 N.am  217  GLN217     -0.0878
    122  N         -6.8980   49.7330   17.2170 N.3   231  VAL231     -0.1231
    123  CA        -7.8310   50.0470   18.2780 C.3   231  VAL231      0.1692
    124  C         -7.8960   48.8630   19.2160 C.2   231  VAL231      0.2593
    125  O         -8.1650   47.7380   18.7770 O.2   231  VAL231     -0.2718
    126  CB        -9.2270   50.4170   17.7170 C.3   231  VAL231      0.0266
    127  CG1       -9.8090   49.3190   16.8410 C.3   231  VAL231      0.0020
    128  CG2      -10.1530   50.8070   18.8520 C.3   231  VAL231      0.0020
    129  N         -7.6400   49.0980   20.5070 N.am  232  GLY232     -0.1942
    130  CA        -7.5570   47.9730   21.4560 C.3   232  GLY232      0.2014
    131  C         -6.5000   46.9940   20.9750 C.2   232  GLY232      0.2640
    132  O         -5.3160   47.3460   20.8060 O.2   232  GLY232     -0.2714
    133  N         -6.9100   45.7420   20.7630 N.am  233  THR233     -0.1936
    134  CA        -6.0500   44.7430   20.1500 C.3   233  THR233      0.2028
    135  C         -6.6370   44.2900   18.8010 C.2   233  THR233      0.2642
    136  O         -6.5680   43.1070   18.4510 O.2   233  THR233     -0.2714
    137  CB        -5.8770   43.5390   21.0870 C.3   233  THR233      0.1808
    138  OG1       -7.1620   43.0300   21.4370 O.3   233  THR233     -0.2208
    139  CG2       -5.1270   43.9450   22.3710 C.3   233  THR233      0.0379
    140  N         -7.2000   45.2470   18.0550 N.am  234  MET234     -0.1976
    141  CA        -7.7920   45.0200   16.7450 C.3   234  MET234      0.1605
    142  C         -7.2490   45.9990   15.7170 C.2   234  MET234      0.2287
    143  O         -6.7980   47.0930   16.0550 O.2   234  MET234     -0.2864
    144  CB        -9.2920   45.2400   16.8260 C.3   234  MET234      0.0413
    145  CG        -9.9740   44.2690   17.7280 C.3   234  MET234      0.0598
    146  SD       -11.7620   44.4980   17.7400 S.3   234  MET234     -0.1393
    147  CE       -12.1710   43.3500   19.0670 C.3   234  MET234      0.0692
    148  N        -13.3420   48.3040   14.3580 N.3   303  GLY303     -0.1225
    149  CA       -12.1930   47.4290   14.5840 C.3   303  GLY303      0.1811
    150  C        -12.4510   46.0670   13.9700 C.2   303  GLY303      0.2280
    151  O        -13.6010   45.6720   13.7670 O.2   303  GLY303     -0.2866
    152  N        -10.9510   41.8570   14.1610 N.3   305  GLY305     -0.1210
    153  CA       -10.1190   40.9000   14.8590 C.3   305  GLY305      0.1956
    154  C        -10.9220   39.6770   15.2300 C.2   305  GLY305      0.2613
    155  O        -12.1500   39.6960   15.2280 O.2   305  GLY305     -0.2717
    156  N        -10.2040   38.6400   15.6240 N.am  306  THR306     -0.1938
    157  CA       -10.8290   37.3560   15.9460 C.3   306  THR306      0.2028
    158  C        -11.8910   37.4370   17.0480 C.2   306  THR306      0.2642
    159  O        -12.8850   36.7120   16.9990 O.2   306  THR306     -0.2714
    160  CB        -9.7400   36.3270   16.2690 C.3   306  THR306      0.1808
    161  OG1       -9.0290   36.0280   15.0690 O.3   306  THR306     -0.2208
    162  CG2      -10.3160   35.0520   16.8560 C.3   306  THR306      0.0379
    163  N        -11.7190   38.3380   18.0100 N.am  307  ALA307     -0.1977
    164  CA       -12.6610   38.4480   19.1270 C.3   307  ALA307      0.1597
    165  C        -14.1080   38.7100   18.7080 C.2   307  ALA307      0.2287
    166  O        -14.9950   38.0480   19.2250 O.2   307  ALA307     -0.2864
    167  CB       -12.2110   39.5140   20.1130 C.3   307  ALA307      0.0319
    168  N        -16.2700   45.3270   14.9140 N.3   311  CYS311     -0.1235
    169  CA       -16.9200   46.0500   16.0080 C.3   311  CYS311      0.1677
    170  C        -17.0480   47.5370   15.6910 C.2   311  CYS311      0.2270
    171  O        -16.0360   48.2260   15.4740 O.2   311  CYS311     -0.2867
    172  CB       -16.1740   45.9070   17.3390 C.3   311  CYS311      0.0956
    173  SG       -17.1200   46.6150   18.7190 S.3   311  CYS311     -0.0801
    174  N        -17.5360   51.5950   16.0710 N.3   313  VAL313     -0.1245
    175  CA       -17.1000   52.6620   16.9340 C.3   313  VAL313      0.1561
    176  C        -18.0800   53.8200   16.8300 C.2   313  VAL313      0.2260
    177  O        -18.4460   54.2010   15.7250 O.2   313  VAL313     -0.2867
    178  CB       -15.6970   53.1500   16.4980 C.3   313  VAL313      0.0252
    179  CG1      -15.2900   54.4020   17.2720 C.3   313  VAL313      0.0019
    180  CG2      -14.6870   52.0290   16.6910 C.3   313  VAL313      0.0019
@<TRIPOS>BOND
     1    32    33    1
     2    33    36    1
     3    33    34    1
     4    36    37    1
     5    37    38    1
     6    34    35    2
     7    38    39    1
     8    41    40    1
     9    39    40    2
    10    40    42    1
    11   151   150    2
    12   150   149    1
    13    26    25    2
    14   152   153    1
    15   148   149    1
    16   153   154    1
    17   168   169    1
    18   161   160    1
    19    25    24    1
    20   155   154    2
    21   154   156   am
    22   171   170    2
    23   156   157    1
    24    23    24    1
    25   170   169    1
    26   142   143    2
    27   142   141    1
    28   177   176    2
    29   157   160    1
    30   157   158    1
    31   169   172    1
    32    24    27    1
    33    27    28    1
    34   174   175    1
    35   160   162    1
    36   178   180    1
    37   178   175    1
    38   178   179    1
    39   141   144    1
    40   141   140    1
    41    92    93    1
    42   144   145    1
    43   176   175    1
    44   127   126    1
    45   159   158    2
    46   158   163   am
    47   122   123    1
    48   172   173    1
    49    29    28    1
    50    29    30    1
    51    98    99    1
    52    98    97    1
    53    96    93    1
    54    96    97    1
    55   126   123    1
    56   126   128    1
    57   145   146    1
    58   146   147    1
    59   100    99    1
    60    93    94    1
    61   163   164    1
    62   140   135   am
    63   123   124    1
    64   136   135    2
    65    15    14    2
    66   165   164    1
    67   165   166    2
    68    30    31    1
    69   125   124    2
    70   135   134    1
    71    94    95    2
    72   164   167    1
    73   124   129   am
    74    14    13    1
    75   112   111    1
    76   134   133    1
    77   134   137    1
    78    88    87    2
    79    51    49   ar
    80    51    53   ar
    81    85    86    1
    82    49    48   ar
    83   129   130    1
    84    91    89    1
    85    77    78    1
    86    77    74    1
    87    44    43    1
    88    44    45    1
    89    44    47    1
    90    13    12    1
    91    13    16    1
    92    79    78   ar
    93    79    81   ar
    94   133   131   am
    95   132   131    2
    96    45    46    2
    97   131   130    1
    98    78    80   ar
    99    54    53    1
   100   111   109   ar
   101   111   110   ar
   102   137   138    1
   103   137   139    1
   104    81    83   ar
   105    53    52   ar
   106    55    56    1
   107    73    74    1
   108    87    86    1
   109    48    47    1
   110    48    50   ar
   111    86    89    1
   112    19    21   ar
   113    19    17   ar
   114    21    22   ar
   115    74    75    1
   116    57    56    1
   117    57    58    2
   118   109   107   ar
   119    80    82   ar
   120    56    59    1
   121    89    90    1
   122   110   108   ar
   123    75    76    2
   124    83    82   ar
   125    83    84    1
   126    17    16    1
   127    17    18   ar
   128    22    20   ar
   129    52    50   ar
   130    18    20   ar
   131    69    68    2
   132    62    61    1
   133    62    63    2
   134    70    72    1
   135    70    71    1
   136    70    67    1
   137   107   106   ar
   138    61    60    1
   139   117   118    1
   140   117   114    1
   141    59    60    1
   142   108   106   ar
   143    65    63    1
   144   118   119    1
   145    63    64    1
   146    68    67    1
   147    66    67    1
   148   106   105    1
   149   116   115    2
   150   115   114    1
   151     9    11   ar
   152     9     7   ar
   153   119   120    2
   154   119   121   am
   155   114   113    1
   156    11    10   ar
   157   101   102    1
   158     7     6   ar
   159   105   102    1
   160   102   103    1
   161    10     8   ar
   162     6     8   ar
   163     6     5    1
   164     5     2    1
   165   103   104    2
   166     2     3    1
   167     2     1    1
   168     3     4    2
