@<TRIPOS>MOLECULE
tmp/5cr7A00.pdb
 155 150 0 0 0
SMALL
GASTEIGER

@<TRIPOS>ATOM
      1  N         89.5410   59.6650   58.9130 N.3     7  TYR7       -0.1227
      2  CA        88.6750   60.6670   58.3040 C.3     7  TYR7        0.1736
      3  C         88.8770   60.8000   56.8030 C.2     7  TYR7        0.2595
      4  O         88.1550   61.5430   56.1420 O.2     7  TYR7       -0.2718
      5  CB        88.8880   62.0160   58.9860 C.3     7  TYR7        0.0548
      6  CG        88.5210   61.9720   60.4470 C.ar    7  TYR7       -0.0200
      7  CD1       87.1910   61.9010   60.8390 C.ar    7  TYR7       -0.0009
      8  CD2       89.4990   61.9780   61.4330 C.ar    7  TYR7       -0.0009
      9  CE1       86.8430   61.8490   62.1690 C.ar    7  TYR7        0.0417
     10  CE2       89.1600   61.9280   62.7700 C.ar    7  TYR7        0.0417
     11  CZ        87.8310   61.8620   63.1310 C.ar    7  TYR7        0.1957
     12  OH        87.4870   61.8120   64.4620 O.3     7  TYR7       -0.2866
     13  N         89.8530   60.0750   56.2690 N.am    8  HIS8       -0.1975
     14  CA        90.0980   60.0700   54.8330 C.3     8  HIS8        0.1656
     15  C         89.5620   58.8070   54.1770 C.2     8  HIS8        0.2291
     16  O         89.6310   58.6490   52.9570 O.2     8  HIS8       -0.2864
     17  CB        91.5930   60.1920   54.5440 C.3     8  HIS8        0.0771
     18  CG        92.1520   61.5520   54.8120 C.ar    8  HIS8        0.0820
     19  ND1       93.4160   61.9280   54.4120 N.ar    8  HIS8       -0.2267
     20  CD2       91.6200   62.6280   55.4390 C.ar    8  HIS8        0.1154
     21  CE1       93.6390   63.1760   54.7820 C.ar    8  HIS8        0.1986
     22  NE2       92.5650   63.6230   55.4070 N.ar    8  HIS8       -0.2212
     23  N         75.4830   66.0680   47.8700 N.3    31  THR31      -0.1203
     24  CA        76.5720   65.2230   47.3800 C.3    31  THR31       0.1994
     25  C         77.7590   66.0950   46.9590 C.2    31  THR31       0.2617
     26  O         78.8060   66.0870   47.6110 O.2    31  THR31      -0.2717
     27  CB        76.1160   64.3410   46.1950 C.3    31  THR31       0.1784
     28  OG1       75.0130   63.5220   46.6010 O.3    31  THR31      -0.2211
     29  CG2       77.2470   63.4460   45.7120 C.3    31  THR31       0.0376
     30  N         77.5970   66.8400   45.8680 N.am   32  LEU32      -0.1979
     31  CA        78.5710   67.8620   45.4950 C.3    32  LEU32       0.1596
     32  C         78.1920   69.1420   46.2230 C.2    32  LEU32       0.2287
     33  O         79.0400   69.8410   46.7810 O.2    32  LEU32      -0.2864
     34  CB        78.5980   68.0870   43.9810 C.3    32  LEU32       0.0297
     35  CG        78.8670   66.8880   43.0670 C.3    32  LEU32       0.0022
     36  CD1       78.1550   67.0890   41.7470 C.3    32  LEU32       0.0001
     37  CD2       80.3570   66.6790   42.8310 C.3    32  LEU32       0.0001
     38  N         76.9490   69.9710   49.3050 N.3    34  VAL34      -0.1245
     39  CA        76.6800   69.6660   50.7010 C.3    34  VAL34       0.1561
     40  C         76.1960   70.9320   51.3870 C.2    34  VAL34       0.2260
     41  O         76.9190   71.9260   51.4420 O.2    34  VAL34      -0.2867
     42  CB        77.9240   69.1200   51.4220 C.3    34  VAL34       0.0252
     43  CG1       77.6530   68.9750   52.9090 C.3    34  VAL34       0.0019
     44  CG2       78.3350   67.7870   50.8220 C.3    34  VAL34       0.0019
     45  N         78.5790   74.4360   51.2040 N.3   202  VAL202     -0.1231
     46  CA        80.0210   74.2700   51.3510 C.3   202  VAL202      0.1692
     47  C         80.7190   74.4270   50.0040 C.2   202  VAL202      0.2592
     48  O         80.1370   74.1190   48.9640 O.2   202  VAL202     -0.2718
     49  CB        80.3620   72.8790   51.9440 C.3   202  VAL202      0.0266
     50  CG1       81.8690   72.6570   52.0280 C.3   202  VAL202      0.0020
     51  CG2       79.7160   72.7060   53.3070 C.3   202  VAL202      0.0020
     52  N         81.9530   74.9240   50.0170 N.am  203  LYS203     -0.1966
     53  CA        82.8020   74.8450   48.8360 C.3   203  LYS203      0.1728
     54  C         84.2370   74.5180   49.2400 C.2   203  LYS203      0.2616
     55  O         84.6960   74.8920   50.3190 O.2   203  LYS203     -0.2715
     56  CB        82.7420   76.1440   48.0250 C.3   203  LYS203      0.0311
     57  CG        83.4460   77.3230   48.6610 C.3   203  LYS203      0.0038
     58  CD        83.0340   78.6270   47.9990 C.3   203  LYS203      0.0206
     59  CE        83.5960   78.7660   46.5940 C.3   203  LYS203      0.1093
     60  NZ        83.2600   80.1130   46.0450 N.3   203  LYS203     -0.1314
     61  N         84.9330   73.7980   48.3680 N.am  204  ASP204     -0.1971
     62  CA        86.2860   73.3450   48.6480 C.3   204  ASP204      0.1709
     63  C         86.9940   73.0730   47.3350 C.2   204  ASP204      0.2293
     64  O         86.4470   72.4100   46.4520 O.2   204  ASP204     -0.2864
     65  CB        86.2660   72.0880   49.5240 C.3   204  ASP204      0.1436
     66  CG        87.6020   71.8130   50.1880 C.2   204  ASP204      0.3671
     67  OD1       88.6440   71.8810   49.5030 O.co2 204  ASP204     -0.2456
     68  OD2       87.6100   71.5320   51.4050 O.co2 204  ASP204     -0.2456
     69  N         88.9900   71.1100   46.6420 N.3   206  LYS206     -0.1231
     70  CA        89.1890   69.6800   46.4750 C.3   206  LYS206      0.1693
     71  C         88.1840   69.0700   45.5030 C.2   206  LYS206      0.2591
     72  O         88.4580   68.0330   44.9030 O.2   206  LYS206     -0.2718
     73  CB        89.1170   68.9780   47.8300 C.3   206  LYS206      0.0285
     74  CG        90.3680   69.1950   48.6630 C.3   206  LYS206      0.0035
     75  CD        90.2980   68.5390   50.0250 C.3   206  LYS206      0.0206
     76  CE        91.3610   69.1290   50.9400 C.3   206  LYS206      0.1093
     77  NZ        92.6690   69.2980   50.2390 N.3   206  LYS206     -0.1314
     78  N         87.0320   69.7110   45.3240 N.am  207  LEU207     -0.1980
     79  CA        86.0220   69.1450   44.4390 C.3   207  LEU207      0.1596
     80  C         86.4590   69.2300   42.9640 C.2   207  LEU207      0.2287
     81  O         86.4070   68.2190   42.2570 O.2   207  LEU207     -0.2864
     82  CB        84.6570   69.8150   44.6650 C.3   207  LEU207      0.0297
     83  CG        83.4160   69.2090   43.9940 C.3   207  LEU207      0.0022
     84  CD1       82.1800   69.5480   44.7990 C.3   207  LEU207      0.0001
     85  CD2       83.2430   69.7030   42.5710 C.3   207  LEU207      0.0001
     86  N         80.0450   76.3250   43.3510 N.3   238  LEU238     -0.1245
     87  CA        80.9430   75.2680   43.7990 C.3   238  LEU238      0.1561
     88  C         82.3090   75.3980   43.1350 C.2   238  LEU238      0.2260
     89  O         83.3290   75.0430   43.7220 O.2   238  LEU238     -0.2867
     90  CB        80.3590   73.8850   43.5050 C.3   238  LEU238      0.0270
     91  CG        79.1610   73.3520   44.2990 C.3   238  LEU238      0.0019
     92  CD1       78.9670   71.8740   43.9960 C.3   238  LEU238      0.0001
     93  CD2       79.3150   73.5720   45.7950 C.3   238  LEU238      0.0001
     94  N         76.9450   61.9490   55.5170 N.3   339  PRO339     -0.2116
     95  CA        77.6860   63.0240   56.1980 C.3   339  PRO339      0.1372
     96  C         77.8190   62.8420   57.7130 C.2   339  PRO339      0.2244
     97  O         78.8220   63.2840   58.2780 O.2   339  PRO339     -0.2868
     98  CB        76.8690   64.2810   55.8730 C.3   339  PRO339      0.0268
     99  CG        75.5270   63.7870   55.4450 C.3   339  PRO339      0.0207
    100  CD        75.7660   62.4580   54.7970 C.3   339  PRO339      0.0892
    101  N         81.1880   61.7260   59.7840 N.3   342  ALA342     -0.1245
    102  CA        82.2760   62.5590   60.2900 C.3   342  ALA342      0.1562
    103  C         82.1290   62.7730   61.7950 C.2   342  ALA342      0.2260
    104  O         83.1200   62.8120   62.5210 O.2   342  ALA342     -0.2867
    105  CB        82.3140   63.8870   59.5670 C.3   342  ALA342      0.0290
    106  N         81.9140   59.7450   54.6040 N.3   429  ALA429     -0.1231
    107  CA        81.1960   60.9750   54.9370 C.3   429  ALA429      0.1694
    108  C         80.9980   61.8470   53.7060 C.2   429  ALA429      0.2593
    109  O         79.9960   62.5550   53.5920 O.2   429  ALA429     -0.2718
    110  CB        81.9300   61.7470   56.0170 C.3   429  ALA429      0.0304
    111  N         81.9590   61.7910   52.7890 N.am  430  SER430     -0.1938
    112  CA        81.8730   62.5200   51.5300 C.3   430  SER430      0.2055
    113  C         82.7200   61.8430   50.4650 C.2   430  SER430      0.2643
    114  O         83.7340   61.2160   50.7740 O.2   430  SER430     -0.2714
    115  CB        82.3180   63.9710   51.7100 C.3   430  SER430      0.2130
    116  OG        82.6430   64.5590   50.4650 O.3   430  SER430     -0.2179
    117  N         82.3060   61.9840   49.2090 N.am  431  PHE431     -0.1959
    118  CA        82.9990   61.3530   48.0910 C.3   431  PHE431      0.1771
    119  C         84.4230   61.8770   47.9520 C.2   431  PHE431      0.2619
    120  O         85.2770   61.2080   47.3770 O.2   431  PHE431     -0.2715
    121  CB        82.2280   61.5810   46.7860 C.3   431  PHE431      0.0574
    122  CG        82.3210   62.9840   46.2660 C.ar  431  PHE431     -0.0200
    123  CD1       81.5360   63.9920   46.8080 C.ar  431  PHE431     -0.0042
    124  CD2       83.1940   63.2970   45.2370 C.ar  431  PHE431     -0.0042
    125  CE1       81.6250   65.2920   46.3350 C.ar  431  PHE431     -0.0003
    126  CE2       83.2870   64.5940   44.7590 C.ar  431  PHE431     -0.0003
    127  CZ        82.5020   65.5940   45.3100 C.ar  431  PHE431     -0.0000
    128  N         84.6700   63.0720   48.4850 N.am  432  ILE432     -0.1963
    129  CA        85.9850   63.7090   48.4060 C.3   432  ILE432      0.1727
    130  C         87.0980   62.7830   48.8930 C.2   432  ILE432      0.2616
    131  O         88.1910   62.7750   48.3350 O.2   432  ILE432     -0.2715
    132  CB        86.0140   65.0280   49.2110 C.3   432  ILE432      0.0290
    133  CG1       85.1560   66.0820   48.5070 C.3   432  ILE432      0.0022
    134  CG2       87.4340   65.5440   49.3700 C.3   432  ILE432      0.0023
    135  CD1       85.4570   66.2330   47.0260 C.3   432  ILE432      0.0001
    136  N         86.8010   61.9700   49.9010 N.am  433  ASN433     -0.1972
    137  CA        87.7420   60.9610   50.3800 C.3   433  ASN433      0.1688
    138  C         88.3040   60.0480   49.2850 C.2   433  ASN433      0.2292
    139  O         89.2810   59.3380   49.5190 O.2   433  ASN433     -0.2864
    140  CB        87.0820   60.1060   51.4610 C.3   433  ASN433      0.1181
    141  CG        87.0580   60.7930   52.8070 C.2   433  ASN433      0.2629
    142  OD1       87.4260   61.9620   52.9290 O.2   433  ASN433     -0.2716
    143  ND2       86.6280   60.0680   53.8290 N.am  433  ASN433     -0.0877
    144  N         92.0870   60.4260   48.1570 N.3   436  TYR436     -0.1241
    145  CA        93.2120   59.8240   48.8590 C.3   436  TYR436      0.1605
    146  C         93.5520   58.4110   48.3660 C.2   436  TYR436      0.2264
    147  O         94.4760   57.7800   48.8810 O.2   436  TYR436     -0.2867
    148  CB        92.9260   59.8160   50.3650 C.3   436  TYR436      0.0534
    149  CG        92.5570   61.1860   50.9070 C.ar  436  TYR436     -0.0201
    150  CD1       93.4760   62.2290   50.8980 C.ar  436  TYR436     -0.0009
    151  CD2       91.2880   61.4390   51.4160 C.ar  436  TYR436     -0.0009
    152  CE1       93.1440   63.4850   51.3870 C.ar  436  TYR436      0.0417
    153  CE2       90.9470   62.6930   51.9090 C.ar  436  TYR436      0.0417
    154  CZ        91.8800   63.7090   51.8910 C.ar  436  TYR436      0.1957
    155  OH        91.5480   64.9480   52.3790 O.3   436  TYR436     -0.2866
@<TRIPOS>BOND
     1    36    35    1
     2    81    80    2
     3    85    83    1
     4    37    35    1
     5    80    79    1
     6    35    34    1
     7    88    89    2
     8    88    87    1
     9    86    87    1
    10    90    87    1
    11    90    91    1
    12    34    31    1
    13    83    82    1
    14    83    84    1
    15    92    91    1
    16    91    93    1
    17    79    82    1
    18    79    78    1
    19   126   124   ar
    20   126   127   ar
    21    72    71    2
    22   124   122   ar
    23   127   125   ar
    24    78    71   am
    25    31    30    1
    26    31    32    1
    27    71    70    1
    28    29    27    1
    29    30    25   am
    30    60    59    1
    31    27    28    1
    32    27    24    1
    33    32    33    2
    34   122   121    1
    35   122   123   ar
    36   125   123   ar
    37    64    63    2
    38    70    69    1
    39    70    73    1
    40    59    58    1
    41   121   118    1
    42    25    24    1
    43    25    26    2
    44   135   133    1
    45    63    62    1
    46   120   119    2
    47    24    23    1
    48    73    74    1
    49   119   118    1
    50   119   128   am
    51    58    57    1
    52    56    57    1
    53    56    53    1
    54   118   117    1
    55   144   145    1
    56   131   130    2
    57   146   145    1
    58   146   147    2
    59    61    62    1
    60    61    54   am
    61   129   128    1
    62   129   130    1
    63   129   132    1
    64   133   132    1
    65    62    65    1
    66    74    75    1
    67    53    54    1
    68    53    52    1
    69   145   148    1
    70   130   136   am
    71    48    47    2
    72   117   113   am
    73   132   134    1
    74    54    55    2
    75   138   139    2
    76   138   137    1
    77    38    39    1
    78    67    66   ar
    79    65    66    1
    80   136   137    1
    81    47    52   am
    82    47    46    1
    83    75    76    1
    84    66    68   ar
    85    77    76    1
    86   148   149    1
    87   137   140    1
    88   113   114    2
    89   113   112    1
    90   116   115    1
    91    39    40    1
    92    39    42    1
    93    44    42    1
    94   150   149   ar
    95   150   152   ar
    96   149   151   ar
    97    45    46    1
    98    46    49    1
    99   152   154   ar
   100    40    41    2
   101   151   153   ar
   102    42    43    1
   103   140   141    1
   104   112   115    1
   105   112   111    1
   106   154   153   ar
   107   154   155    1
   108    49    50    1
   109    49    51    1
   110   111   108   am
   111   141   142    2
   112   141   143   am
   113    16    15    2
   114   109   108    2
   115   108   107    1
   116    15    14    1
   117    19    21   ar
   118    19    18   ar
   119    17    18    1
   120    17    14    1
   121   106   107    1
   122    21    22   ar
   123   100    99    1
   124   100    94    1
   125    18    20   ar
   126    14    13    1
   127   107   110    1
   128    22    20   ar
   129    99    98    1
   130    94    95    1
   131    98    95    1
   132     4     3    2
   133    95    96    1
   134    13     3   am
   135     3     2    1
   136    96    97    2
   137     2     1    1
   138     2     5    1
   139     5     6    1
   140   105   102    1
   141   101   102    1
   142   102   103    1
   143     6     7   ar
   144     6     8   ar
   145     7     9   ar
   146     8    10   ar
   147   103   104    2
   148     9    11   ar
   149    10    11   ar
   150    11    12    1
