@<TRIPOS>MOLECULE
tmp/5cr7B00.pdb
 96 91 0 0 0
SMALL
GASTEIGER

@<TRIPOS>ATOM
      1  N         65.8690   18.1420   67.3760 N.3    31  THR31      -0.1203
      2  CA        66.2230   18.9310   68.5610 C.3    31  THR31       0.1994
      3  C         66.6480   18.0060   69.7060 C.2    31  THR31       0.2617
      4  O         67.8080   18.0040   70.1230 O.2    31  THR31      -0.2717
      5  CB        65.0490   19.8190   69.0410 C.3    31  THR31       0.1784
      6  OG1       64.7000   20.7580   68.0180 O.3    31  THR31      -0.2211
      7  CG2       65.4270   20.5780   70.3080 C.3    31  THR31       0.0376
      8  N         65.6880   17.2370   70.2160 N.am   32  LEU32      -0.1979
      9  CA        65.9390   16.2210   71.2300 C.3    32  LEU32       0.1596
     10  C         66.2720   14.8980   70.5400 C.2    32  LEU32       0.2287
     11  O         67.1360   14.1340   70.9880 O.2    32  LEU32      -0.2864
     12  CB        64.7210   16.0590   72.1450 C.3    32  LEU32       0.0297
     13  CG        64.3670   17.1790   73.1290 C.3    32  LEU32       0.0022
     14  CD1       62.8980   17.1110   73.5000 C.3    32  LEU32       0.0001
     15  CD2       65.2130   17.0930   74.3870 C.3    32  LEU32       0.0001
     16  N         68.0140   14.0730   67.6570 N.3    34  VAL34      -0.1245
     17  CA        68.9610   14.3480   66.5930 C.3    34  VAL34       0.1561
     18  C         69.1470   13.0810   65.7600 C.2    34  VAL34       0.2260
     19  O         69.6710   12.0830   66.2490 O.2    34  VAL34      -0.2867
     20  CB        70.3160   14.8260   67.1650 C.3    34  VAL34       0.0252
     21  CG1       71.3340   15.0360   66.0550 C.3    34  VAL34       0.0019
     22  CG2       70.1240   16.0910   67.9720 C.3    34  VAL34       0.0019
     23  N         70.6330    9.5540   67.5320 N.3   202  VAL202     -0.1231
     24  CA        71.6410    9.8030   68.5510 C.3   202  VAL202      0.1692
     25  C         71.0420    9.6600   69.9500 C.2   202  VAL202      0.2592
     26  O         69.8680    9.9670   70.1560 O.2   202  VAL202     -0.2718
     27  CB        72.2280   11.2250   68.3770 C.3   202  VAL202      0.0266
     28  CG1       73.1790   11.5910   69.5120 C.3   202  VAL202      0.0020
     29  CG2       72.9000   11.3600   67.0150 C.3   202  VAL202      0.0020
     30  N         71.8270    9.1840   70.9110 N.am  203  LYS203     -0.1966
     31  CA        71.4180    9.3330   72.3030 C.3   203  LYS203      0.1728
     32  C         72.6230    9.5360   73.2170 C.2   203  LYS203      0.2616
     33  O         73.7410    9.1190   72.9130 O.2   203  LYS203     -0.2715
     34  CB        70.5530    8.1460   72.7550 C.3   203  LYS203      0.0311
     35  CG        71.2470    6.8940   73.2690 C.3   203  LYS203      0.0038
     36  CD        70.1620    5.9190   73.7490 C.3   203  LYS203      0.0206
     37  CE        70.7150    4.6060   74.2660 C.3   203  LYS203      0.1093
     38  NZ        69.6140    3.6230   74.5090 N.3   203  LYS203     -0.1314
     39  N         72.3750   10.2220   74.3250 N.am  204  ASP204     -0.1971
     40  CA        73.4300   10.7020   75.2000 C.3   204  ASP204      0.1709
     41  C         72.8110   10.9460   76.5610 C.2   204  ASP204      0.2293
     42  O         71.7110   11.4920   76.6560 O.2   204  ASP204     -0.2864
     43  CB        74.0580   11.9830   74.6380 C.3   204  ASP204      0.1436
     44  CG        75.3690   12.3500   75.3140 C.2   204  ASP204      0.3671
     45  OD1       75.4290   12.3490   76.5620 O.co2 204  ASP204     -0.2456
     46  OD2       76.3420   12.6520   74.5880 O.co2 204  ASP204     -0.2456
     47  N         73.5530   13.0000   78.6110 N.3   206  LYS206     -0.1231
     48  CA        73.5320   14.4240   78.9080 C.3   206  LYS206      0.1693
     49  C         72.1270   15.0110   78.7800 C.2   206  LYS206      0.2591
     50  O         71.7930   15.9690   79.4770 O.2   206  LYS206     -0.2718
     51  CB        74.5130   15.1700   78.0010 C.3   206  LYS206      0.0285
     52  CG        75.9440   15.1640   78.5230 C.3   206  LYS206      0.0035
     53  CD        76.9570   15.3770   77.4120 C.3   206  LYS206      0.0206
     54  CE        78.2660   14.6490   77.7170 C.3   206  LYS206      0.1093
     55  NZ        78.1840   13.1740   77.4480 N.3   206  LYS206     -0.1314
     56  N         71.2970   14.4360   77.9130 N.am  207  LEU207     -0.1980
     57  CA        69.9660   14.9960   77.6790 C.3   207  LEU207      0.1596
     58  C         69.0620   14.8590   78.9110 C.2   207  LEU207      0.2287
     59  O         68.3920   15.8220   79.2840 O.2   207  LEU207     -0.2864
     60  CB        69.3080   14.3560   76.4450 C.3   207  LEU207      0.0297
     61  CG        67.9140   14.8240   75.9950 C.3   207  LEU207      0.0022
     62  CD1       67.6870   14.4830   74.5430 C.3   207  LEU207      0.0001
     63  CD2       66.8070   14.2070   76.8120 C.3   207  LEU207      0.0001
     64  N         65.3650    7.6940   73.6760 N.3   238  LEU238     -0.1245
     65  CA        66.2970    8.7460   74.0670 C.3   238  LEU238      0.1561
     66  C         66.6040    8.6800   75.5560 C.2   238  LEU238      0.2260
     67  O         67.6750    9.0980   75.9960 O.2   238  LEU238     -0.2867
     68  CB        65.7380   10.1290   73.7190 C.3   238  LEU238      0.0270
     69  CG        65.6290   10.6030   72.2650 C.3   238  LEU238      0.0019
     70  CD1       64.8480   11.9050   72.2090 C.3   238  LEU238      0.0001
     71  CD2       66.9930   10.7900   71.6280 C.3   238  LEU238      0.0001
     72  N         73.9600   22.1690   69.2220 N.3   425  SER425     -0.1202
     73  CA        72.9140   21.4300   69.9230 C.3   425  SER425      0.2020
     74  C         72.4700   22.2040   71.1540 C.2   425  SER425      0.2619
     75  O         73.2360   22.9950   71.7010 O.2   425  SER425     -0.2717
     76  CB        73.3980   20.0370   70.3270 C.3   425  SER425      0.2103
     77  OG        72.5370   19.4800   71.3050 O.3   425  SER425     -0.2182
     78  N         71.2390   21.9800   71.5980 N.am  426  PHE426     -0.1961
     79  CA        70.7580   22.6730   72.7860 C.3   426  PHE426      0.1771
     80  C         71.5280   22.1970   74.0100 C.2   426  PHE426      0.2619
     81  O         71.6210   22.9020   75.0160 O.2   426  PHE426     -0.2715
     82  CB        69.2560   22.4540   72.9830 C.3   426  PHE426      0.0574
     83  CG        68.9140   21.1340   73.5950 C.ar  426  PHE426     -0.0200
     84  CD1       68.8800   19.9880   72.8190 C.ar  426  PHE426     -0.0042
     85  CD2       68.6290   21.0360   74.9510 C.ar  426  PHE426     -0.0042
     86  CE1       68.5710   18.7620   73.3800 C.ar  426  PHE426     -0.0003
     87  CE2       68.3190   19.8130   75.5200 C.ar  426  PHE426     -0.0003
     88  CZ        68.2900   18.6720   74.7340 C.ar  426  PHE426     -0.0000
     89  N         72.0920   21.0000   73.8970 N.am  427  ILE427     -0.1977
     90  CA        72.7620   20.3340   75.0050 C.3   427  ILE427      0.1596
     91  C         73.8240   21.2200   75.6470 C.2   427  ILE427      0.2287
     92  O         74.0460   21.1480   76.8540 O.2   427  ILE427     -0.2864
     93  CB        73.3940   18.9880   74.5420 C.3   427  ILE427      0.0276
     94  CG1       73.1010   17.8870   75.5610 C.3   427  ILE427      0.0022
     95  CG2       74.8880   19.1210   74.2510 C.3   427  ILE427      0.0022
     96  CD1       71.6380   17.5010   75.6090 C.3   427  ILE427      0.0001
@<TRIPOS>BOND
     1    18    19    2
     2    18    17    1
     3    21    20    1
     4    17    20    1
     5    17    16    1
     6    29    27    1
     7    20    22    1
     8     1     2    1
     9    23    24    1
    10     6     5    1
    11    27    24    1
    12    27    28    1
    13    24    25    1
    14     2     5    1
    15     2     3    1
    16     5     7    1
    17    72    73    1
    18     3     4    2
    19     3     8   am
    20    73    76    1
    21    73    74    1
    22    25    26    2
    23    25    30   am
    24     8     9    1
    25    76    77    1
    26    10    11    2
    27    10     9    1
    28    30    31    1
    29    74    78   am
    30    74    75    2
    31     9    12    1
    32    78    79    1
    33    71    69    1
    34    12    13    1
    35    70    69    1
    36    69    68    1
    37    31    34    1
    38    31    32    1
    39    34    35    1
    40    79    82    1
    41    79    80    1
    42    84    86   ar
    43    84    83   ar
    44    33    32    2
    45    82    83    1
    46    13    14    1
    47    13    15    1
    48    32    39   am
    49    35    36    1
    50    86    88   ar
    51    83    85   ar
    52    64    65    1
    53    68    65    1
    54    36    37    1
    55    89    80   am
    56    89    90    1
    57    80    81    2
    58    65    66    1
    59    95    93    1
    60    37    38    1
    61    39    40    1
    62    93    90    1
    63    93    94    1
    64    62    61    1
    65    46    44   ar
    66    43    40    1
    67    43    44    1
    68    88    87   ar
    69    85    87   ar
    70    90    91    1
    71    40    41    1
    72    44    45   ar
    73    66    67    2
    74    94    96    1
    75    91    92    2
    76    61    60    1
    77    61    63    1
    78    60    57    1
    79    41    42    2
    80    53    54    1
    81    53    52    1
    82    55    54    1
    83    57    56    1
    84    57    58    1
    85    56    49   am
    86    51    52    1
    87    51    48    1
    88    47    48    1
    89    49    48    1
    90    49    50    2
    91    58    59    2
