@<TRIPOS>MOLECULE
tmp/5cr9A00.pdb
 92 90 0 0 0
SMALL
GASTEIGER

@<TRIPOS>ATOM
      1  N         36.1260   13.3990   52.8590 N.3    74  SER74      -0.1202
      2  CA        34.8330   13.9040   52.4070 C.3    74  SER74       0.2020
      3  C         34.2760   13.0870   51.2420 C.2    74  SER74       0.2619
      4  O         33.2780   13.4710   50.6380 O.2    74  SER74      -0.2717
      5  CB        34.9370   15.3680   51.9830 C.3    74  SER74       0.2103
      6  OG        35.4580   16.1690   53.0270 O.3    74  SER74      -0.2182
      7  N         34.9310   11.9800   50.9180 N.am   75  GLY75      -0.1942
      8  CA        34.4750   11.1080   49.8440 C.3    75  GLY75       0.2014
      9  C         34.9040   11.5650   48.4580 C.2    75  GLY75       0.2638
     10  O         34.3590   11.1170   47.4480 O.2    75  GLY75      -0.2714
     11  N         35.9020   12.4450   48.4000 N.am   76  HIS76      -0.1973
     12  CA        36.3340   12.9890   47.1200 C.3    76  HIS76       0.1656
     13  C         37.4740   12.1970   46.5000 C.2    76  HIS76       0.2291
     14  O         38.4820   11.8980   47.1340 O.2    76  HIS76      -0.2864
     15  CB        36.7420   14.4490   47.2810 C.3    76  HIS76       0.0771
     16  CG        35.5940   15.3570   47.5690 C.ar   76  HIS76       0.0820
     17  ND1       35.7600   16.6460   48.0240 N.ar   76  HIS76      -0.2267
     18  CD2       34.2580   15.1630   47.4660 C.ar   76  HIS76       0.1154
     19  CE1       34.5770   17.2070   48.1930 C.ar   76  HIS76       0.1986
     20  NE2       33.6490   16.3270   47.8610 N.ar   76  HIS76      -0.2212
     21  N         26.4770   14.7310   55.8980 N.3   174  TYR174     -0.1241
     22  CA        27.5760   13.8920   55.4710 C.3   174  TYR174      0.1605
     23  C         28.6420   13.9300   56.5640 C.2   174  TYR174      0.2264
     24  O         29.4710   14.8480   56.5920 O.2   174  TYR174     -0.2867
     25  CB        28.1370   14.3780   54.1220 C.3   174  TYR174      0.0534
     26  CG        29.0420   13.3410   53.4800 C.ar  174  TYR174     -0.0201
     27  CD1       30.3170   13.1010   53.9620 C.ar  174  TYR174     -0.0009
     28  CD2       28.5920   12.5710   52.4120 C.ar  174  TYR174     -0.0009
     29  CE1       31.1350   12.1300   53.3940 C.ar  174  TYR174      0.0417
     30  CE2       29.4100   11.6060   51.8320 C.ar  174  TYR174      0.0417
     31  CZ        30.6700   11.3760   52.3430 C.ar  174  TYR174      0.1957
     32  OH        31.4820   10.3950   51.7820 O.3   174  TYR174     -0.2866
     33  N         29.1250   17.9260   57.1620 N.3   183  TYR183     -0.1241
     34  CA        28.4080   18.7710   56.2170 C.3   183  TYR183      0.1605
     35  C         26.9180   18.5440   56.2980 C.2   183  TYR183      0.2264
     36  O         26.4900   17.4500   56.6730 O.2   183  TYR183     -0.2867
     37  CB        28.8440   18.4620   54.8010 C.3   183  TYR183      0.0534
     38  CG        30.3210   18.5850   54.5540 C.ar  183  TYR183     -0.0201
     39  CD1       30.8680   19.7750   54.0910 C.ar  183  TYR183     -0.0009
     40  CD2       31.1650   17.5080   54.7610 C.ar  183  TYR183     -0.0009
     41  CE1       32.2220   19.8880   53.8540 C.ar  183  TYR183      0.0417
     42  CE2       32.5230   17.6160   54.5330 C.ar  183  TYR183      0.0417
     43  CZ        33.0430   18.8020   54.0790 C.ar  183  TYR183      0.1957
     44  OH        34.3940   18.8880   53.8450 O.3   183  TYR183     -0.2866
     45  N         23.0500   19.4060   53.9950 N.3   185  TYR185     -0.1241
     46  CA        22.5330   19.6390   52.6480 C.3   185  TYR185      0.1605
     47  C         21.4120   20.6550   52.6520 C.2   185  TYR185      0.2264
     48  O         20.4780   20.5780   53.4490 O.2   185  TYR185     -0.2867
     49  CB        22.0640   18.3160   52.0380 C.3   185  TYR185      0.0534
     50  CG        23.2330   17.4010   51.7560 C.ar  185  TYR185     -0.0201
     51  CD1       23.9880   17.5470   50.5990 C.ar  185  TYR185     -0.0009
     52  CD2       23.6260   16.4270   52.6680 C.ar  185  TYR185     -0.0009
     53  CE1       25.0630   16.7490   50.3490 C.ar  185  TYR185      0.0417
     54  CE2       24.6940   15.5950   52.4040 C.ar  185  TYR185      0.0417
     55  CZ        25.4180   15.7660   51.2410 C.ar  185  TYR185      0.1957
     56  OH        26.4930   14.9430   50.9940 O.3   185  TYR185     -0.2866
     57  N         24.0800   23.7160   48.0350 N.3   209  ARG209     -0.1231
     58  CA        23.8950   22.2780   47.8900 C.3   209  ARG209      0.1694
     59  C         24.3920   21.5890   49.1570 C.2   209  ARG209      0.2591
     60  O         23.6500   20.8770   49.8100 O.2   209  ARG209     -0.2718
     61  CB        24.6300   21.7330   46.6730 C.3   209  ARG209      0.0321
     62  CG        24.3010   20.2600   46.3850 C.3   209  ARG209      0.0489
     63  CD        24.9830   19.7340   45.1340 C.3   209  ARG209      0.2205
     64  NE        26.4250   19.6230   45.3200 N.pl3 209  ARG209     -0.0865
     65  CZ        27.0200   18.6590   46.0100 C.cat 209  ARG209      0.5346
     66  NH1       26.3040   17.7000   46.5840 N.pl3 209  ARG209      0.1354
     67  NH2       28.3380   18.6550   46.1230 N.pl3 209  ARG209      0.1354
     68  N         25.6640   21.8010   49.4840 N.am  210  VAL210     -0.1980
     69  CA        26.2540   21.1910   50.6710 C.3   210  VAL210      0.1595
     70  C         27.1560   22.2080   51.3500 C.2   210  VAL210      0.2287
     71  O         27.8200   22.9950   50.6830 O.2   210  VAL210     -0.2864
     72  CB        27.0150   19.9020   50.3150 C.3   210  VAL210      0.0276
     73  CG1       28.2110   20.1700   49.3700 C.3   210  VAL210      0.0022
     74  CG2       27.4460   19.1760   51.5660 C.3   210  VAL210      0.0022
     75  N         29.9880    7.9260   51.0290 N.3   231  VAL231     -0.1245
     76  CA        30.3040    7.3910   49.6990 C.3   231  VAL231      0.1561
     77  C         30.6470    5.8970   49.7570 C.2   231  VAL231      0.2260
     78  O         30.2650    5.1290   48.8730 O.2   231  VAL231     -0.2867
     79  CB        31.4550    8.2090   49.0390 C.3   231  VAL231      0.0252
     80  CG1       32.0490    7.5110   47.8130 C.3   231  VAL231      0.0019
     81  CG2       30.9360    9.5710   48.6460 C.3   231  VAL231      0.0019
     82  N         25.6160    7.3410   49.6040 N.3   264  PHE264     -0.1241
     83  CA        25.4930    8.6700   49.0050 C.3   264  PHE264      0.1605
     84  C         24.4130    8.7810   47.9160 C.2   264  PHE264      0.2264
     85  O         23.5190    9.6500   48.0040 O.2   264  PHE264     -0.2867
     86  CB        26.8820    9.0420   48.4680 C.3   264  PHE264      0.0534
     87  CG        26.9790   10.4020   47.8400 C.ar  264  PHE264     -0.0203
     88  CD1       26.7690   11.5470   48.5840 C.ar  264  PHE264     -0.0042
     89  CD2       27.3100   10.5270   46.5050 C.ar  264  PHE264     -0.0042
     90  CE1       26.8770   12.7940   47.9960 C.ar  264  PHE264     -0.0003
     91  CE2       27.4220   11.7770   45.9270 C.ar  264  PHE264     -0.0003
     92  CZ        27.1900   12.8920   46.6700 C.ar  264  PHE264     -0.0000
@<TRIPOS>BOND
     1    63    64    1
     2    63    62    1
     3    64    65    2
     4    91    89   ar
     5    91    92   ar
     6    65    67    1
     7    65    66    1
     8    62    61    1
     9    13    12    1
    10    13    14    2
    11    89    87   ar
    12    92    90   ar
    13    61    58    1
    14    12    15    1
    15    12    11    1
    16    15    16    1
    17    10     9    2
    18    18    16   ar
    19    18    20   ar
    20    16    17   ar
    21    80    79    1
    22    87    86    1
    23    87    88   ar
    24    20    19   ar
    25    58    57    1
    26    58    59    1
    27    84    85    2
    28    84    83    1
    29    90    88   ar
    30    17    19   ar
    31    11     9   am
    32     9     8    1
    33    86    83    1
    34    81    79    1
    35    78    77    2
    36    83    82    1
    37    79    76    1
    38    59    68   am
    39    59    60    2
    40    73    72    1
    41    68    69    1
    42    76    77    1
    43    76    75    1
    44     8     7    1
    45    72    69    1
    46    72    74    1
    47    53    51   ar
    48    53    55   ar
    49    51    50   ar
    50     4     3    2
    51    69    70    1
    52    71    70    2
    53     7     3   am
    54    56    55    1
    55    55    54   ar
    56     3     2    1
    57    50    49    1
    58    50    52   ar
    59    32    31    1
    60    30    31   ar
    61    30    28   ar
    62     5     2    1
    63     5     6    1
    64    49    46    1
    65    31    29   ar
    66    54    52   ar
    67     2     1    1
    68    28    26   ar
    69    46    47    1
    70    46    45    1
    71    47    48    2
    72    29    27   ar
    73    26    27   ar
    74    26    25    1
    75    44    43    1
    76    41    43   ar
    77    41    39   ar
    78    43    42   ar
    79    39    38   ar
    80    25    22    1
    81    42    40   ar
    82    38    40   ar
    83    38    37    1
    84    37    34    1
    85    22    21    1
    86    22    23    1
    87    34    35    1
    88    34    33    1
    89    35    36    2
    90    23    24    2
