@<TRIPOS>MOLECULE
tmp/5craA00.pdb
 83 79 0 0 0
SMALL
GASTEIGER

@<TRIPOS>ATOM
      1  N        -47.8560   19.0810    2.4670 N.3     8  GLU8       -0.1182
      2  CA       -46.5100   19.5870    2.7140 C.3     8  GLU8        0.1915
      3  C        -45.6760   19.2680    1.4880 C.2     8  GLU8        0.2634
      4  O        -45.6090   18.1240    1.0840 O.2     8  GLU8       -0.2714
      5  CB       -45.8910   18.9770    3.9900 C.2     8  GLU8        0.0085
      6  CG       -46.5020   19.4650    5.3050 C.2     8  GLU8        0.0835
      7  CD       -45.7620   19.0290    6.5980 C.2     8  GLU8        0.3877
      8  OE1      -44.5940   18.5920    6.5840 O.co2   8  GLU8       -0.2406
      9  OE2      -46.3420   19.1400    7.6860 O.co2   8  GLU8       -0.2406
     10  N        -45.0540   20.2880    0.8960 N.am    9  LEU9       -0.1977
     11  CA       -44.0910   20.0760   -0.1870 C.3     9  LEU9        0.1596
     12  C        -42.8480   19.4010    0.3330 C.2     9  LEU9        0.2287
     13  O        -42.3410   19.7300    1.3950 O.2     9  LEU9       -0.2864
     14  CB       -43.6780   21.3900   -0.8290 C.3     9  LEU9        0.0297
     15  CG       -44.7670   21.9760   -1.7180 C.3     9  LEU9        0.0022
     16  CD1      -44.6070   23.4670   -1.9240 C.3     9  LEU9        0.0001
     17  CD2      -44.7440   21.2840   -3.0740 C.3     9  LEU9        0.0001
     18  N        -35.4580   24.6940    3.5450 N.3    52  LEU52      -0.1245
     19  CA       -36.1810   23.8560    4.4590 C.3    52  LEU52       0.1561
     20  C        -35.4100   23.7780    5.7580 C.2    52  LEU52       0.2260
     21  O        -34.2350   23.3660    5.7720 O.2    52  LEU52      -0.2867
     22  CB       -36.3250   22.4600    3.8730 C.3    52  LEU52       0.0270
     23  CG       -37.0680   21.4500    4.7260 C.3    52  LEU52       0.0019
     24  CD1      -38.4550   21.9320    4.8930 C.3    52  LEU52       0.0001
     25  CD2      -37.0700   20.0910    4.0630 C.3    52  LEU52       0.0001
     26  N        -40.3430   19.8500    8.5460 N.3    62  GLY62      -0.1210
     27  CA       -39.9290   21.1380    9.0990 C.3    62  GLY62       0.1956
     28  C        -40.6710   22.3070    8.5040 C.2    62  GLY62       0.2612
     29  O        -41.8620   22.2140    8.2570 O.2    62  GLY62      -0.2717
     30  N        -39.9760   23.4180    8.2830 N.am   63  HIS63      -0.1961
     31  CA       -40.6480   24.6390    7.8870 C.3    63  HIS63       0.1787
     32  C        -39.9460   25.2010    6.6690 C.2    63  HIS63       0.2620
     33  O        -38.7170   25.2970    6.6550 O.2    63  HIS63      -0.2715
     34  CB       -40.6120   25.6950    8.9810 C.3    63  HIS63       0.0785
     35  CG       -40.9470   25.1990   10.3440 C.ar   63  HIS63       0.0821
     36  ND1      -42.2280   25.2210   10.8470 N.ar   63  HIS63      -0.2267
     37  CD2      -40.1590   24.7250   11.3420 C.ar   63  HIS63       0.1154
     38  CE1      -42.2270   24.7420   12.0790 C.ar   63  HIS63       0.1986
     39  NE2      -40.9830   24.4310   12.4040 N.ar   63  HIS63      -0.2212
     40  N        -40.7070   25.5870    5.6530 N.am   64  TRP64      -0.1974
     41  CA       -40.0990   26.2400    4.5090 C.3    64  TRP64       0.1640
     42  C        -40.0390   27.7320    4.7530 C.2    64  TRP64       0.2290
     43  O        -41.0010   28.3210    5.2370 O.2    64  TRP64      -0.2864
     44  CB       -40.8740   25.9950    3.2310 C.3    64  TRP64       0.0576
     45  CG       -40.7060   24.6440    2.6220 C.ar   64  TRP64       0.0006
     46  CD1      -41.6070   23.6490    2.6600 C.ar   64  TRP64       0.0946
     47  CD2      -39.6070   24.1720    1.8140 C.ar   64  TRP64       0.0152
     48  NE1      -41.1480   22.5800    1.9680 N.ar   64  TRP64      -0.2442
     49  CE2      -39.9240   22.8630    1.4320 C.ar   64  TRP64       0.0810
     50  CE3      -38.3910   24.7380    1.3830 C.ar   64  TRP64       0.0012
     51  CZ2      -39.0730   22.0710    0.6600 C.ar   64  TRP64       0.0191
     52  CZ3      -37.5410   23.9830    0.6520 C.ar   64  TRP64       0.0001
     53  CH2      -37.8750   22.6400    0.2770 C.ar   64  TRP64       0.0015
     54  N        -44.6620   31.9880    8.7580 N.3    81  LEU81      -0.1245
     55  CA       -45.1690   32.0570   10.1360 C.3    81  LEU81       0.1561
     56  C        -45.0860   33.4650   10.7390 C.2    81  LEU81       0.2260
     57  O        -45.5510   33.6880   11.8660 O.2    81  LEU81      -0.2867
     58  CB       -44.3840   31.0810   11.0310 C.3    81  LEU81       0.0270
     59  CG       -44.7460   29.5880   10.8650 C.3    81  LEU81       0.0019
     60  CD1      -43.6660   28.6510   11.3580 C.3    81  LEU81       0.0001
     61  CD2      -45.9960   29.2650   11.6350 C.3    81  LEU81       0.0001
     62  N        -49.9560   31.1540    8.3430 N.3   113  ASN113     -0.1240
     63  CA       -49.3200   30.0280    7.6850 C.3   113  ASN113      0.1653
     64  C        -50.3230   28.9180    7.3860 C.2   113  ASN113      0.2266
     65  O        -50.4460   28.5140    6.2540 O.2   113  ASN113     -0.2867
     66  CB       -48.1960   29.5160    8.5460 C.3   113  ASN113      0.1155
     67  CG       -47.5050   28.3120    7.9490 C.2   113  ASN113      0.2627
     68  OD1      -47.0610   28.3380    6.8210 O.2   113  ASN113     -0.2716
     69  ND2      -47.4010   27.2610    8.7230 N.am  113  ASN113     -0.0877
     70  N        -50.4190   25.7020    8.0850 N.3   115  GLY115     -0.1225
     71  CA       -49.8370   24.4780    7.5380 C.3   115  GLY115      0.1811
     72  C        -49.2480   24.5380    6.1090 C.2   115  GLY115      0.2280
     73  O        -48.7430   23.5130    5.6210 O.2   115  GLY115     -0.2866
     74  N        -46.7640   26.6900    4.5240 N.3   117  CYS117     -0.1221
     75  CA       -45.4800   27.3290    4.3340 C.3   117  CYS117      0.1808
     76  C        -44.8650   27.1550    2.9230 C.2   117  CYS117      0.2601
     77  O        -44.3520   28.1210    2.2960 O.2   117  CYS117     -0.2717
     78  CB       -44.4990   26.8400    5.4350 C.3   117  CYS117      0.0970
     79  SG       -44.1800   25.0810    5.3120 S.3   117  CYS117     -0.0800
     80  N        -44.9060   25.9410    2.4020 N.am  118  GLY118     -0.1957
     81  CA       -44.2250   25.6880    1.1430 C.3   118  GLY118      0.1869
     82  C        -44.8980   26.3850    0.0080 C.2   118  GLY118      0.2309
     83  O        -44.2310   26.8910   -0.8980 O.2   118  GLY118     -0.2863
@<TRIPOS>BOND
     1    17    15    1
     2    16    15    1
     3    15    14    1
     4    83    82    2
     5    14    11    1
     6    11    12    1
     7    11    10    1
     8    82    81    1
     9    53    52   ar
    10    53    51   ar
    11    12    13    2
    12    52    50   ar
    13    51    49   ar
    14    10     3   am
    15     4     3    2
    16    81    80    1
    17    50    47   ar
    18    49    47   ar
    19    49    48   ar
    20     3     2    1
    21    47    45   ar
    22    48    46   ar
    23    77    76    2
    24    80    76   am
    25     1     2    1
    26    45    46   ar
    27    45    44    1
    28     2     5    1
    29    76    75    1
    30    44    41    1
    31    18    19    1
    32    22    19    1
    33    22    23    1
    34     5     6    2
    35    25    23    1
    36    75    74    1
    37    75    78    1
    38    19    20    1
    39    41    42    1
    40    41    40    1
    41    23    24    1
    42    42    43    2
    43     6     7    1
    44    79    78    1
    45    73    72    2
    46    40    32   am
    47    20    21    2
    48    72    71    1
    49    65    64    2
    50     8     7   ar
    51     7     9   ar
    52    33    32    2
    53    32    31    1
    54    68    67    2
    55    64    63    1
    56    71    70    1
    57    63    62    1
    58    63    66    1
    59    31    30    1
    60    31    34    1
    61    67    66    1
    62    67    69   am
    63    29    28    2
    64    30    28   am
    65    28    27    1
    66    26    27    1
    67    54    55    1
    68    34    35    1
    69    55    56    1
    70    55    58    1
    71    35    36   ar
    72    35    37   ar
    73    56    57    2
    74    36    38   ar
    75    59    58    1
    76    59    60    1
    77    59    61    1
    78    37    39   ar
    79    38    39   ar
