@<TRIPOS>MOLECULE
tmp/5crmA00.pdb
 125 121 0 0 0
SMALL
GASTEIGER

@<TRIPOS>ATOM
      1  N         -3.6940    0.8990    0.6500 N.3    49  TRP49      -0.1228
      2  CA        -3.4980    2.2310    1.2660 C.3    49  TRP49       0.1722
      3  C         -4.7320    3.0940    1.5740 C.2    49  TRP49       0.2437
      4  O         -4.7410    3.7720    2.6080 O.2    49  TRP49      -0.2733
      5  CB        -2.4400    3.0690    0.5160 C.3    49  TRP49       0.0563
      6  CG        -2.8170    3.3770   -0.8800 C.ar   49  TRP49       0.0003
      7  CD1       -2.4830    2.6700   -1.9930 C.ar   49  TRP49       0.0946
      8  CD2       -3.6360    4.4560   -1.3160 C.ar   49  TRP49       0.0152
      9  NE1       -3.0450    3.2500   -3.1060 N.ar   49  TRP49      -0.2442
     10  CE2       -3.7500    4.3560   -2.7140 C.ar   49  TRP49       0.0810
     11  CE3       -4.2830    5.5050   -0.6570 C.ar   49  TRP49       0.0012
     12  CZ2       -4.4800    5.2710   -3.4660 C.ar   49  TRP49       0.0191
     13  CZ3       -5.0060    6.4060   -1.3980 C.ar   49  TRP49       0.0001
     14  CH2       -5.0960    6.2930   -2.7900 C.ar   49  TRP49       0.0015
     15  N         -5.7750    3.0860    0.7170 N.am   50  PRO50      -0.2718
     16  CA        -6.9760    3.8480    1.1050 C.3    50  PRO50       0.1535
     17  C         -7.6800    3.3460    2.3800 C.2    50  PRO50       0.2598
     18  O         -8.4930    4.0920    2.9710 O.2    50  PRO50      -0.2715
     19  CB        -7.9090    3.6710   -0.0990 C.3    50  PRO50       0.0310
     20  CG        -7.0590    3.1740   -1.2010 C.3    50  PRO50       0.0237
     21  CD        -6.0210    2.3380   -0.5230 C.3    50  PRO50       0.0939
     22  N         -7.3750    2.1030    2.7740 N.am   51  PHE51      -0.1974
     23  CA        -8.0330    1.4080    3.8700 C.3    51  PHE51       0.1639
     24  C         -7.1820    1.3140    5.1230 C.2    51  PHE51       0.2290
     25  O         -7.6470    0.8030    6.1440 O.2    51  PHE51      -0.2864
     26  CB        -8.3940   -0.0060    3.4070 C.3    51  PHE51       0.0560
     27  CG        -9.1950   -0.0290    2.1520 C.ar   51  PHE51      -0.0200
     28  CD1      -10.5650    0.1890    2.1880 C.ar   51  PHE51      -0.0042
     29  CD2       -8.5830   -0.2210    0.9250 C.ar   51  PHE51      -0.0042
     30  CE1      -11.3150    0.1960    1.0170 C.ar   51  PHE51      -0.0003
     31  CE2       -9.3230   -0.2230   -0.2410 C.ar   51  PHE51      -0.0003
     32  CZ       -10.6900   -0.0200   -0.1940 C.ar   51  PHE51      -0.0000
     33  N        -11.1340    7.1370    7.2910 N.3    55  VAL55      -0.1245
     34  CA       -11.3200    8.0410    6.1870 C.3    55  VAL55       0.1561
     35  C        -11.1790    9.4800    6.6810 C.2    55  VAL55       0.2260
     36  O        -11.8860    9.9160    7.5870 O.2    55  VAL55      -0.2867
     37  CB       -12.6760    7.8250    5.4800 C.3    55  VAL55       0.0252
     38  CG1      -12.9290    8.9240    4.4680 C.3    55  VAL55       0.0019
     39  CG2      -12.6790    6.4670    4.8030 C.3    55  VAL55       0.0019
     40  N         -9.5190   14.3580    1.9010 N.3    60  LEU60      -0.1245
     41  CA        -9.9980   13.7610    0.6760 C.3    60  LEU60       0.1561
     42  C        -11.1350   14.5380    0.0090 C.2    60  LEU60       0.2260
     43  O        -11.5790   14.1530   -1.0660 O.2    60  LEU60      -0.2867
     44  CB       -10.4420   12.3290    0.9640 C.3    60  LEU60       0.0270
     45  CG        -9.3990   11.3460    1.4800 C.3    60  LEU60       0.0019
     46  CD1      -10.0970   10.0870    1.9610 C.3    60  LEU60       0.0001
     47  CD2       -8.4020   10.9910    0.3910 C.3    60  LEU60       0.0001
     48  N        -14.3780   14.7270    0.8420 N.3    62  LEU62      -0.1245
     49  CA       -15.5550   13.8540    0.7960 C.3    62  LEU62       0.1561
     50  C        -16.4710   14.3100    1.9290 C.2    62  LEU62       0.2260
     51  O        -16.7080   13.5630    2.8840 O.2    62  LEU62      -0.2867
     52  CB       -15.1610   12.3850    0.9970 C.3    62  LEU62       0.0270
     53  CG       -14.1050   11.7930    0.0230 C.3    62  LEU62       0.0019
     54  CD1      -13.7140   10.3940    0.4720 C.3    62  LEU62       0.0001
     55  CD2      -14.5940   11.7830   -1.4230 C.3    62  LEU62       0.0001
     56  N        -19.0860   12.1350    3.5250 N.3    65  TYR65      -0.1241
     57  CA       -18.7090   10.7450    3.8410 C.3    65  TYR65       0.1605
     58  C        -19.3780   10.2850    5.1080 C.2    65  TYR65       0.2264
     59  O        -20.0560    9.2730    5.1050 O.2    65  TYR65      -0.2867
     60  CB       -17.1980   10.5540    3.9800 C.3    65  TYR65       0.0534
     61  CG       -16.8680    9.0690    4.1380 C.ar   65  TYR65      -0.0201
     62  CD1      -16.8080    8.2310    3.0170 C.ar   65  TYR65      -0.0009
     63  CD2      -16.6870    8.4940    5.4010 C.ar   65  TYR65      -0.0009
     64  CE1      -16.5390    6.8630    3.1450 C.ar   65  TYR65       0.0417
     65  CE2      -16.4180    7.1260    5.5490 C.ar   65  TYR65       0.0417
     66  CZ       -16.3410    6.3160    4.4240 C.ar   65  TYR65       0.1957
     67  OH       -16.0940    4.9690    4.5710 O.3    65  TYR65      -0.2866
     68  N        -15.9520   -2.4820    6.8750 N.3   100  MET100     -0.1245
     69  CA       -15.0650   -1.6920    6.0320 C.3   100  MET100      0.1570
     70  C        -15.4290   -1.8320    4.5600 C.2   100  MET100      0.2261
     71  O        -15.6010   -0.8270    3.8510 O.2   100  MET100     -0.2867
     72  CB       -13.5920   -2.0880    6.3060 C.3   100  MET100      0.0387
     73  CG       -12.5850   -1.3640    5.4360 C.3   100  MET100      0.0595
     74  SD       -10.9460   -2.0280    5.6700 S.3   100  MET100     -0.1393
     75  CE       -11.0190   -3.4900    4.6470 C.3   100  MET100      0.0692
     76  N        -17.4280    0.9770    1.8510 N.3   104  CYS104     -0.1235
     77  CA       -16.8580    1.3420    0.5580 C.3   104  CYS104      0.1677
     78  C        -17.8910    1.1830   -0.5520 C.2   104  CYS104      0.2270
     79  O        -18.0530    2.0790   -1.3800 O.2   104  CYS104     -0.2867
     80  CB       -15.6070    0.5160    0.2590 C.3   104  CYS104      0.0956
     81  SG       -14.8130    1.0640   -1.2460 S.3   104  CYS104     -0.0801
     82  N        -20.8760    3.8580   -0.1050 N.3   107  TYR107     -0.1227
     83  CA       -20.5360    5.2420   -0.3960 C.3   107  TYR107      0.1736
     84  C        -20.2740    5.4660   -1.8880 C.2   107  TYR107      0.2595
     85  O        -20.6200    6.5180   -2.4220 O.2   107  TYR107     -0.2718
     86  CB       -19.3650    5.7420    0.4780 C.3   107  TYR107      0.0548
     87  CG       -19.0360    7.1900    0.2180 C.ar  107  TYR107     -0.0200
     88  CD1      -19.8200    8.2180    0.7330 C.ar  107  TYR107     -0.0009
     89  CD2      -17.9610    7.5360   -0.5850 C.ar  107  TYR107     -0.0009
     90  CE1      -19.5090    9.5540    0.4560 C.ar  107  TYR107      0.0417
     91  CE2      -17.6480    8.8470   -0.8620 C.ar  107  TYR107      0.0417
     92  CZ       -18.4170    9.8520   -0.3580 C.ar  107  TYR107      0.1957
     93  OH       -18.0660   11.1200   -0.6880 O.3   107  TYR107     -0.2866
     94  N        -19.6860    4.4740   -2.5530 N.am  108  ASN108     -0.1974
     95  CA       -19.1670    4.6520   -3.9000 C.3   108  ASN108      0.1688
     96  C        -20.0300    3.9520   -4.9700 C.2   108  ASN108      0.2292
     97  O        -21.0860    3.4410   -4.6620 O.2   108  ASN108     -0.2864
     98  CB       -17.7260    4.1640   -3.9110 C.3   108  ASN108      0.1181
     99  CG       -16.8470    4.9730   -2.9850 C.2   108  ASN108      0.2629
    100  OD1      -16.4790    6.0790   -3.3150 O.2   108  ASN108     -0.2716
    101  ND2      -16.5350    4.4370   -1.8090 N.am  108  ASN108     -0.0877
    102  N        -12.5480    3.5830   -8.9020 N.3   113  ASP113     -0.1225
    103  CA       -11.2460    3.0260   -8.5290 C.3   113  ASP113      0.1805
    104  C        -11.2760    2.4130   -7.1320 C.2   113  ASP113      0.2597
    105  O        -10.8070    1.2800   -6.9250 O.2   113  ASP113     -0.2718
    106  CB       -10.1730    4.1110   -8.5620 C.3   113  ASP113      0.1424
    107  CG        -9.5760    4.3090   -9.9460 C.2   113  ASP113      0.3668
    108  OD1       -9.7740    3.4440  -10.8330 O.co2 113  ASP113     -0.2456
    109  OD2       -8.8940    5.3340  -10.1320 O.co2 113  ASP113     -0.2456
    110  N        -11.8570    3.1460   -6.1760 N.am  114  ILE114     -0.1980
    111  CA       -11.9040    2.6770   -4.7930 C.3   114  ILE114      0.1595
    112  C        -12.6760    1.3610   -4.6860 C.2   114  ILE114      0.2287
    113  O        -12.2900    0.4830   -3.8820 O.2   114  ILE114     -0.2864
    114  CB       -12.4210    3.7560   -3.7980 C.3   114  ILE114      0.0276
    115  CG1      -12.1340    3.3610   -2.3470 C.3   114  ILE114      0.0022
    116  CG2      -13.9040    4.0190   -3.9760 C.3   114  ILE114      0.0022
    117  CD1      -10.6760    3.3620   -1.9700 C.3   114  ILE114      0.0001
    118  N        -10.5380   -1.5090   -5.9980 N.3   117  MET117     -0.1245
    119  CA        -9.5620   -1.8070   -4.9400 C.3   117  MET117      0.1570
    120  C        -10.1610   -2.6580   -3.8220 C.2   117  MET117      0.2261
    121  O         -9.5840   -3.6820   -3.4210 O.2   117  MET117     -0.2867
    122  CB        -9.0140   -0.4920   -4.3720 C.3   117  MET117      0.0387
    123  CG        -8.1650    0.2550   -5.3910 C.3   117  MET117      0.0595
    124  SD        -7.7600    1.9310   -4.8870 S.3   117  MET117     -0.1393
    125  CE        -6.1700    1.6200   -4.1450 C.3   117  MET117      0.0692
@<TRIPOS>BOND
     1   108   107   ar
     2   109   107   ar
     3   107   106    1
     4   102   103    1
     5   106   103    1
     6   103   104    1
     7   104   105    2
     8   104   110   am
     9   110   111    1
    10   118   119    1
    11   123   124    1
    12   123   122    1
    13    96    97    2
    14    96    95    1
    15   119   122    1
    16   119   120    1
    17   124   125    1
    18   111   112    1
    19   111   114    1
    20   112   113    2
    21   116   114    1
    22    98    95    1
    23    98    99    1
    24    95    94    1
    25   120   121    2
    26   114   115    1
    27    12    14   ar
    28    12    10   ar
    29   100    99    2
    30     9    10   ar
    31     9     7   ar
    32    99   101   am
    33    14    13   ar
    34    10     8   ar
    35    94    84   am
    36    85    84    2
    37   115   117    1
    38     7     6   ar
    39    84    83    1
    40    55    53    1
    41    13    11   ar
    42    79    78    2
    43     8     6   ar
    44     8    11   ar
    45    81    80    1
    46    20    21    1
    47    20    19    1
    48    43    42    2
    49     6     5    1
    50    91    89   ar
    51    91    92   ar
    52    93    92    1
    53    89    87   ar
    54    78    77    1
    55    21    15    1
    56    83    82    1
    57    83    86    1
    58    92    90   ar
    59    31    32   ar
    60    31    29   ar
    61    32    30   ar
    62    19    16    1
    63    42    41    1
    64    53    54    1
    65    53    52    1
    66    87    86    1
    67    87    88   ar
    68    80    77    1
    69    47    45    1
    70    90    88   ar
    71     5     2    1
    72    77    76    1
    73     1     2    1
    74    41    44    1
    75    41    40    1
    76    15    16    1
    77    15     3   am
    78    49    48    1
    79    49    52    1
    80    49    50    1
    81    29    27   ar
    82    44    45    1
    83    30    28   ar
    84    16    17    1
    85     2     3    1
    86    45    46    1
    87     3     4    2
    88    50    51    2
    89    27    28   ar
    90    27    26    1
    91    17    22   am
    92    17    18    2
    93    22    23    1
    94    62    64   ar
    95    62    61   ar
    96    64    66   ar
    97    26    23    1
    98    56    57    1
    99    57    60    1
   100    57    58    1
   101    71    70    2
   102    23    24    1
   103    60    61    1
   104    61    63   ar
   105    66    67    1
   106    66    65   ar
   107    38    37    1
   108    70    69    1
   109    75    74    1
   110    39    37    1
   111    59    58    2
   112    24    25    2
   113    63    65   ar
   114    73    74    1
   115    73    72    1
   116    37    34    1
   117    69    72    1
   118    69    68    1
   119    34    35    1
   120    34    33    1
   121    35    36    2
