@<TRIPOS>MOLECULE
tmp/5crwA00.pdb
 98 95 0 0 0
SMALL
GASTEIGER

@<TRIPOS>ATOM
      1  N          1.4000    0.4800   -5.4380 N.3     6  ILE6       -0.1231
      2  CA         1.0690   -0.3060   -4.2680 C.3     6  ILE6        0.1692
      3  C          2.2900   -0.4260   -3.3800 C.2     6  ILE6        0.2593
      4  O          3.2950   -1.0030   -3.7660 O.2     6  ILE6       -0.2718
      5  CB         0.5650   -1.7250   -4.6380 C.3     6  ILE6        0.0266
      6  CG1       -0.5390   -1.6600   -5.6980 C.3     6  ILE6        0.0019
      7  CG2        0.0470   -2.4700   -3.4080 C.3     6  ILE6        0.0020
      8  CD1       -0.6500   -2.9310   -6.5170 C.3     6  ILE6        0.0001
      9  N          2.1740    0.0960   -2.1620 N.am    7  GLY7       -0.1943
     10  CA         3.2500    0.0410   -1.1920 C.3     7  GLY7        0.1998
     11  C          2.6930    0.1660    0.2140 C.2     7  GLY7        0.2480
     12  O          1.4730    0.0970    0.4190 O.2     7  GLY7       -0.2729
     13  N          3.5690    0.3170    1.2090 N.am    8  PRO8       -0.2726
     14  CA         3.1080    0.2240    2.6040 C.3     8  PRO8        0.1402
     15  C          2.1160    1.3350    2.9710 C.2     8  PRO8        0.2269
     16  O          1.2970    1.1470    3.8840 O.2     8  PRO8       -0.2865
     17  CB         4.3790    0.3430    3.4180 C.3     8  PRO8        0.0296
     18  CG         5.4490    0.7790    2.4900 C.3     8  PRO8        0.0237
     19  CD         5.0380    0.3680    1.1050 C.3     8  PRO8        0.0939
     20  N         -1.4340    0.5830    0.5130 N.3    11  TYR11      -0.1227
     21  CA        -2.0640   -0.7450    0.6310 C.3    11  TYR11       0.1736
     22  C         -3.4310   -0.6700    1.3150 C.2    11  TYR11       0.2596
     23  O         -4.4040   -1.2090    0.8010 O.2    11  TYR11      -0.2718
     24  CB        -1.1300   -1.7190    1.3420 C.3    11  TYR11       0.0548
     25  CG        -1.5540   -3.1670    1.2830 C.ar   11  TYR11      -0.0200
     26  CD1       -1.5400   -3.8830    0.0880 C.ar   11  TYR11      -0.0009
     27  CD2       -1.9950   -3.8180    2.4280 C.ar   11  TYR11      -0.0009
     28  CE1       -1.9100   -5.2150    0.0670 C.ar   11  TYR11       0.0417
     29  CE2       -2.3840   -5.1280    2.4010 C.ar   11  TYR11       0.0417
     30  CZ        -2.3410   -5.8200    1.2150 C.ar   11  TYR11       0.1957
     31  OH        -2.7550   -7.1260    1.2360 O.3    11  TYR11      -0.2866
     32  N         -3.5230    0.0370    2.4430 N.am   12  SER12      -0.1952
     33  CA        -4.7940    0.0990    3.2040 C.3    12  SER12       0.1924
     34  C         -5.9380    0.6880    2.4080 C.2    12  SER12       0.2314
     35  O         -7.0810    0.2390    2.5290 O.2    12  SER12      -0.2863
     36  CB        -4.6250    0.9080    4.4880 C.3    12  SER12       0.2116
     37  OG        -3.5680    0.3980    5.2930 O.3    12  SER12      -0.2180
     38  N         -7.0850   -1.9220    0.0530 N.3    15  MET15      -0.1230
     39  CA        -7.7880   -2.9740    0.8020 C.3    15  MET15       0.1702
     40  C         -9.1590   -2.4780    1.2700 C.2    15  MET15       0.2593
     41  O        -10.0550   -3.2890    1.4390 O.2    15  MET15      -0.2718
     42  CB        -6.9730   -3.5010    1.9840 C.3    15  MET15       0.0401
     43  CG        -5.6770   -4.1980    1.5910 C.3    15  MET15       0.0596
     44  SD        -5.9110   -5.6120    0.4960 S.3    15  MET15      -0.1393
     45  CE        -5.5190   -4.8580   -1.0980 C.3    15  MET15       0.0692
     46  N         -9.3050   -1.1580    1.4350 N.am   16  SER16      -0.1952
     47  CA       -10.5860   -0.5480    1.8220 C.3    16  SER16       0.1924
     48  C        -11.5020   -0.2230    0.6550 C.2    16  SER16       0.2314
     49  O        -12.6520    0.1300    0.8600 O.2    16  SER16      -0.2863
     50  CB       -10.3410    0.7350    2.6180 C.3    16  SER16       0.2116
     51  OG        -9.8920    0.3960    3.8920 O.3    16  SER16      -0.2180
     52  N          3.8140   -2.6080   -8.3090 N.3    55  ILE55      -0.1245
     53  CA         4.4030   -2.9080   -7.0120 C.3    55  ILE55       0.1561
     54  C          5.8530   -3.2620   -7.2730 C.2    55  ILE55       0.2260
     55  O          6.1740   -4.0150   -8.2140 O.2    55  ILE55      -0.2867
     56  CB         3.6000   -3.9800   -6.2410 C.3    55  ILE55       0.0252
     57  CG1        4.2430   -4.2270   -4.8900 C.3    55  ILE55       0.0019
     58  CG2        3.4640   -5.2670   -7.0400 C.3    55  ILE55       0.0019
     59  CD1        3.4250   -5.1190   -3.9690 C.3    55  ILE55       0.0001
     60  N         11.7810   -4.4490   -3.5280 N.3    59  ALA59      -0.1231
     61  CA        11.4240   -4.1940   -2.1240 C.3    59  ALA59       0.1694
     62  C         10.3810   -5.1480   -1.5990 C.2    59  ALA59       0.2592
     63  O         10.4510   -5.6140   -0.4620 O.2    59  ALA59      -0.2718
     64  CB        10.9050   -2.7790   -1.9690 C.3    59  ALA59       0.0304
     65  N          9.3660   -5.3960   -2.4090 N.am   60  PHE60      -0.1976
     66  CA         8.1750   -6.1010   -1.9400 C.3    60  PHE60       0.1639
     67  C          7.9080   -7.3820   -2.7040 C.2    60  PHE60       0.2290
     68  O          6.7820   -7.8400   -2.7780 O.2    60  PHE60      -0.2864
     69  CB         6.9370   -5.1880   -1.9850 C.3    60  PHE60       0.0560
     70  CG         7.1780   -3.8140   -1.4330 C.ar   60  PHE60      -0.0200
     71  CD1        7.7050   -3.6390   -0.1490 C.ar   60  PHE60      -0.0042
     72  CD2        6.8620   -2.6860   -2.2000 C.ar   60  PHE60      -0.0042
     73  CE1        7.9290   -2.3720    0.3400 C.ar   60  PHE60      -0.0003
     74  CE2        7.0870   -1.4280   -1.7090 C.ar   60  PHE60      -0.0003
     75  CZ         7.6300   -1.2650   -0.4510 C.ar   60  PHE60      -0.0000
     76  N          8.4230  -10.2820   -1.6820 N.3    62  ALA62      -0.1231
     77  CA         7.8340  -11.2460   -0.7460 C.3    62  ALA62       0.1694
     78  C          6.3190  -11.1790   -0.7780 C.2    62  ALA62       0.2592
     79  O          5.6160  -12.1680   -0.5050 O.2    62  ALA62      -0.2718
     80  CB         8.2890  -10.9760    0.6670 C.3    62  ALA62       0.0304
     81  N          5.8180   -9.9970   -1.0850 N.am   63  HIS63      -0.1976
     82  CA         4.3690   -9.8150   -1.1650 C.3    63  HIS63       0.1656
     83  C          3.7280  -10.6980   -2.2430 C.2    63  HIS63       0.2291
     84  O          2.5240  -11.0060   -2.1880 O.2    63  HIS63      -0.2864
     85  CB         4.0260   -8.3540   -1.3660 C.3    63  HIS63       0.0771
     86  CG         2.6000   -8.0620   -1.0780 C.ar   63  HIS63       0.0820
     87  ND1        2.1140   -7.9400    0.2020 N.ar   63  HIS63      -0.2267
     88  CD2        1.5310   -7.9810   -1.8970 C.ar   63  HIS63       0.1154
     89  CE1        0.8020   -7.7620    0.1610 C.ar   63  HIS63       0.1986
     90  NE2        0.4260   -7.7930   -1.1000 N.ar   63  HIS63      -0.2212
     91  N          1.6710  -13.5740   -1.0670 N.3    66  ASN66      -0.1240
     92  CA         0.2580  -13.2940   -0.6830 C.3    66  ASN66       0.1653
     93  C         -0.7070  -13.5340   -1.8170 C.2    66  ASN66       0.2266
     94  O         -1.9230  -13.5760   -1.5800 O.2    66  ASN66      -0.2867
     95  CB         0.0420  -11.8360   -0.2520 C.3    66  ASN66       0.1155
     96  CG         0.3070  -11.5710    1.2270 C.2    66  ASN66       0.2627
     97  OD1       -0.2800  -10.6400    1.8000 O.2    66  ASN66      -0.2716
     98  ND2        1.1940  -12.3270    1.8400 N.am   66  ASN66      -0.0877
@<TRIPOS>BOND
     1    52    53    1
     2    55    54    2
     3    54    53    1
     4    58    56    1
     5    53    56    1
     6     8     6    1
     7    56    57    1
     8     6     5    1
     9     1     2    1
    10    57    59    1
    11     5     2    1
    12     5     7    1
    13     2     3    1
    14     4     3    2
    15    60    61    1
    16     3     9   am
    17    68    67    2
    18    67    66    1
    19    65    66    1
    20    65    62   am
    21    83    84    2
    22    83    82    1
    23    72    74   ar
    24    72    70   ar
    25     9    10    1
    26    61    64    1
    27    61    62    1
    28    69    66    1
    29    69    70    1
    30    88    90   ar
    31    88    86   ar
    32    93    94    2
    33    93    92    1
    34    74    75   ar
    35    76    77    1
    36    62    63    2
    37    70    71   ar
    38    85    82    1
    39    85    86    1
    40    10    11    1
    41    82    81    1
    42    90    89   ar
    43    45    44    1
    44    81    78   am
    45    86    87   ar
    46    91    92    1
    47    78    77    1
    48    78    79    2
    49    77    80    1
    50    92    95    1
    51    75    73   ar
    52    95    96    1
    53    71    73   ar
    54    38    39    1
    55    28    26   ar
    56    28    30   ar
    57    26    25   ar
    58    89    87   ar
    59    11    12    2
    60    11    13   am
    61    44    43    1
    62    20    21    1
    63    21    22    1
    64    21    24    1
    65    48    49    2
    66    48    47    1
    67    23    22    2
    68    39    40    1
    69    39    42    1
    70    19    13    1
    71    19    18    1
    72    13    14    1
    73    30    31    1
    74    30    29   ar
    75    96    97    2
    76    96    98   am
    77    40    46   am
    78    40    41    2
    79    25    24    1
    80    25    27   ar
    81    22    32   am
    82    46    47    1
    83    43    42    1
    84    47    50    1
    85    29    27   ar
    86    34    35    2
    87    34    33    1
    88    32    33    1
    89    18    17    1
    90    14    15    1
    91    14    17    1
    92    50    51    1
    93    15    16    2
    94    33    36    1
    95    36    37    1
