@<TRIPOS>MOLECULE
tmp/5cs3B00.pdb
 136 135 0 0 0
SMALL
GASTEIGER

@<TRIPOS>ATOM
      1  N         -8.6170   36.9290  -11.7770 N.3   124  HIS124     -0.1226
      2  CA        -8.7130   35.5370  -11.3370 C.3   124  HIS124      0.1752
      3  C        -10.0040   35.4380  -10.5780 C.2   124  HIS124      0.2597
      4  O        -10.5650   36.4760  -10.2490 O.2   124  HIS124     -0.2718
      5  CB        -7.5160   35.1990  -10.4280 C.3   124  HIS124      0.0759
      6  CG        -7.6190   35.8040   -9.0620 C.ar  124  HIS124      0.0818
      7  ND1       -6.9390   36.9450   -8.7010 N.ar  124  HIS124     -0.2268
      8  CD2       -8.3410   35.4350   -7.9750 C.ar  124  HIS124      0.1154
      9  CE1       -7.2390   37.2620   -7.4510 C.ar  124  HIS124      0.1986
     10  NE2       -8.0930   36.3680   -6.9900 N.ar  124  HIS124     -0.2212
     11  N        -10.4620   34.2180  -10.2840 N.am  125  SER125     -0.1938
     12  CA       -11.7070   34.0400   -9.5040 C.3   125  SER125      0.2055
     13  C        -11.5420   33.3110   -8.1700 C.2   125  SER125      0.2643
     14  O        -12.4950   32.7660   -7.6540 O.2   125  SER125     -0.2714
     15  CB       -12.8060   33.3570  -10.3500 C.3   125  SER125      0.2130
     16  OG       -12.2740   32.2340  -11.0080 O.3   125  SER125     -0.2179
     17  N        -10.3430   33.3380   -7.6010 N.am  126  PHE126     -0.1973
     18  CA       -10.1100   32.7230   -6.3040 C.3   126  PHE126      0.1639
     19  C        -10.4770   33.6720   -5.1890 C.2   126  PHE126      0.2290
     20  O         -9.7080   33.8710   -4.2720 O.2   126  PHE126     -0.2864
     21  CB        -8.6580   32.2630   -6.1600 C.3   126  PHE126      0.0560
     22  CG        -8.3140   31.0490   -6.9960 C.ar  126  PHE126     -0.0200
     23  CD1       -8.3730   29.7800   -6.4480 C.ar  126  PHE126     -0.0042
     24  CD2       -7.9380   31.1850   -8.3220 C.ar  126  PHE126     -0.0042
     25  CE1       -8.0510   28.6520   -7.2000 C.ar  126  PHE126     -0.0003
     26  CE2       -7.6240   30.0840   -9.0770 C.ar  126  PHE126     -0.0003
     27  CZ        -7.6800   28.8040   -8.5130 C.ar  126  PHE126     -0.0000
     28  N         -2.6410   26.7070   -1.4400 N.3   143  ASN143     -0.1240
     29  CA        -2.9090   25.6820   -2.4580 C.3   143  ASN143      0.1653
     30  C         -4.3280   25.2400   -2.3000 C.2   143  ASN143      0.2266
     31  O         -4.5510   24.0900   -1.9350 O.2   143  ASN143     -0.2867
     32  CB        -1.9840   24.4880   -2.2590 C.3   143  ASN143      0.1155
     33  CG        -2.0880   23.5030   -3.3640 C.2   143  ASN143      0.2627
     34  OD1       -2.5300   23.8460   -4.4630 O.2   143  ASN143     -0.2716
     35  ND2       -1.6990   22.2450   -3.0890 N.am  143  ASN143     -0.0877
     36  N         -7.1740   24.6440   -4.0250 N.3   145  ARG145     -0.1245
     37  CA        -7.7390   23.4120   -4.6170 C.3   145  ARG145      0.1563
     38  C         -6.8290   22.2020   -4.4530 C.2   145  ARG145      0.2260
     39  O         -7.0190   21.2150   -5.1490 O.2   145  ARG145     -0.2867
     40  CB        -8.0520   23.5780   -6.1100 C.3   145  ARG145      0.0307
     41  CG        -8.9410   24.7450   -6.4810 C.3   145  ARG145      0.0489
     42  CD        -9.3180   24.6430   -7.9530 C.3   145  ARG145      0.2205
     43  NE        -8.1940   24.9910   -8.8170 N.pl3 145  ARG145     -0.0865
     44  CZ        -8.1890   24.9000  -10.1510 C.cat 145  ARG145      0.5346
     45  NH1       -9.2550   24.4480  -10.8090 N.pl3 145  ARG145      0.1354
     46  NH2       -7.0990   25.2630  -10.8300 N.pl3 145  ARG145      0.1354
     47  N         -3.6980   21.1980   -5.3120 N.3   147  GLU147     -0.1231
     48  CA        -3.1530   20.6300   -6.5340 C.3   147  GLU147      0.1699
     49  C         -1.7270   20.2230   -6.3900 C.2   147  GLU147      0.2592
     50  O         -1.1370   20.4740   -5.3630 O.2   147  GLU147     -0.2718
     51  CB        -3.3370   21.6070   -7.6670 C.3   147  GLU147      0.0402
     52  CG        -4.7900   21.9110   -7.8190 C.3   147  GLU147      0.1161
     53  CD        -5.0440   22.9390   -8.8540 C.2   147  GLU147      0.3649
     54  OE1       -4.6900   22.6950  -10.0360 O.co2 147  GLU147     -0.2457
     55  OE2       -5.6080   23.9910   -8.4720 O.co2 147  GLU147     -0.2457
     56  N         -1.1880   19.6230   -7.4500 N.am  148  GLU148     -0.1966
     57  CA         0.1060   18.9140   -7.4460 C.3   148  GLU148      0.1733
     58  C          1.3000   19.6870   -6.9080 C.2   148  GLU148      0.2617
     59  O          2.0650   19.1620   -6.0570 O.2   148  GLU148     -0.2715
     60  CB         0.4260   18.3420   -8.8390 C.3   148  GLU148      0.0429
     61  CG         0.3990   16.8020   -8.9600 C.3   148  GLU148      0.1163
     62  CD        -0.3660   16.1150   -7.8350 C.2   148  GLU148      0.3649
     63  OE1        0.0180   14.9950   -7.4250 O.co2 148  GLU148     -0.2457
     64  OE2       -1.3450   16.6970   -7.3400 O.co2 148  GLU148     -0.2457
     65  N          1.4540   20.9260   -7.3570 N.am  149  GLY149     -0.1940
     66  CA         2.6550   21.6910   -6.9760 C.3   149  GLY149      0.2014
     67  C          2.8270   22.2410   -5.5500 C.2   149  GLY149      0.2639
     68  O          3.8730   22.8200   -5.2340 O.2   149  GLY149     -0.2714
     69  N          1.8310   22.0980   -4.6820 N.am  150  GLY150     -0.1954
     70  CA         1.8630   22.8170   -3.4120 C.3   150  GLY150      0.1869
     71  C          1.4660   24.2990   -3.5280 C.2   150  GLY150      0.2309
     72  O          0.9000   24.7450   -4.5540 O.2   150  GLY150     -0.2863
     73  N          0.8580   28.1250   -4.0580 N.3   152  TRP152     -0.1241
     74  CA         1.3050   29.0030   -5.1350 C.3   152  TRP152      0.1605
     75  C          0.5660   30.3130   -4.8550 C.2   152  TRP152      0.2264
     76  O         -0.1970   30.3830   -3.8980 O.2   152  TRP152     -0.2867
     77  CB         0.8940   28.3980   -6.4960 C.3   152  TRP152      0.0550
     78  CG        -0.5820   28.1410   -6.5280 C.ar  152  TRP152      0.0003
     79  CD1       -1.2280   27.0570   -6.0590 C.ar  152  TRP152      0.0946
     80  CD2       -1.5960   29.0470   -6.9920 C.ar  152  TRP152      0.0152
     81  NE1       -2.5920   27.2130   -6.2050 N.ar  152  TRP152     -0.2442
     82  CE2       -2.8310   28.4200   -6.8070 C.ar  152  TRP152      0.0810
     83  CE3       -1.5630   30.3090   -7.6080 C.ar  152  TRP152      0.0012
     84  CZ2       -4.0290   29.0250   -7.1670 C.ar  152  TRP152      0.0191
     85  CZ3       -2.7370   30.9080   -7.9480 C.ar  152  TRP152      0.0001
     86  CH2       -3.9610   30.2800   -7.7090 C.ar  152  TRP152      0.0015
     87  N         -0.7840   34.2440   -7.1980 N.3   154  PHE154     -0.1241
     88  CA        -0.6550   35.0670   -8.3780 C.3   154  PHE154      0.1605
     89  C          0.4900   35.9940   -8.0390 C.2   154  PHE154      0.2264
     90  O          0.7280   36.3050   -6.8600 O.2   154  PHE154     -0.2867
     91  CB        -1.9650   35.8280   -8.6640 C.3   154  PHE154      0.0534
     92  CG        -3.1060   34.9060   -9.0570 C.ar  154  PHE154     -0.0203
     93  CD1       -3.1530   34.3300  -10.3130 C.ar  154  PHE154     -0.0042
     94  CD2       -4.0950   34.5840   -8.1470 C.ar  154  PHE154     -0.0042
     95  CE1       -4.1230   33.4410  -10.6500 C.ar  154  PHE154     -0.0003
     96  CE2       -5.0960   33.7010   -8.4870 C.ar  154  PHE154     -0.0003
     97  CZ        -5.1100   33.1180   -9.7250 C.ar  154  PHE154     -0.0000
     98  N          1.9350   35.3810  -14.4510 N.3   161  ARG161     -0.1231
     99  CA         0.6240   35.2280  -13.8630 C.3   161  ARG161      0.1694
    100  C          0.6650   34.5350  -12.4810 C.2   161  ARG161      0.2592
    101  O          0.0120   35.0070  -11.5420 O.2   161  ARG161     -0.2718
    102  CB        -0.3370   34.5310  -14.8350 C.3   161  ARG161      0.0321
    103  CG        -1.6800   34.1960  -14.2000 C.3   161  ARG161      0.0489
    104  CD        -2.8250   34.1690  -15.2200 C.3   161  ARG161      0.2205
    105  NE        -3.9980   33.5060  -14.6810 N.pl3 161  ARG161     -0.0865
    106  CZ        -5.1110   34.1440  -14.3380 C.cat 161  ARG161      0.5346
    107  NH1       -6.1590   33.4900  -13.8460 N.pl3 161  ARG161      0.1354
    108  NH2       -5.1940   35.4410  -14.5170 N.pl3 161  ARG161      0.1354
    109  N          1.4010   33.4200  -12.3630 N.am  162  TYR162     -0.1962
    110  CA         1.5030   32.6910  -11.0840 C.3   162  TYR162      0.1771
    111  C          2.7720   31.8710  -10.9610 C.2   162  TYR162      0.2619
    112  O          3.5210   31.7120  -11.9480 O.2   162  TYR162     -0.2715
    113  CB         0.2810   31.7990  -10.8130 C.3   162  TYR162      0.0574
    114  CG         0.1370   30.7020  -11.8160 C.ar  162  TYR162     -0.0198
    115  CD1       -0.7510   30.8240  -12.8770 C.ar  162  TYR162     -0.0009
    116  CD2        0.9260   29.5570  -11.7350 C.ar  162  TYR162     -0.0009
    117  CE1       -0.8660   29.8250  -13.8170 C.ar  162  TYR162      0.0417
    118  CE2        0.8220   28.5610  -12.6690 C.ar  162  TYR162      0.0417
    119  CZ        -0.0770   28.6950  -13.7030 C.ar  162  TYR162      0.1957
    120  OH        -0.1870   27.6880  -14.6290 O.3   162  TYR162     -0.2866
    121  N          2.9970   31.3550   -9.7450 N.am  163  GLU163     -0.1963
    122  CA         4.1950   30.6050   -9.4200 C.3   163  GLU163      0.1733
    123  C          4.1370   29.8940   -8.0570 C.2   163  GLU163      0.2616
    124  O          3.4980   30.3600   -7.1030 O.2   163  GLU163     -0.2715
    125  CB         5.4500   31.4960   -9.5210 C.3   163  GLU163      0.0429
    126  CG         6.7220   30.6670   -9.6720 C.3   163  GLU163      0.1163
    127  CD         8.0130   31.4650   -9.9170 C.2   163  GLU163      0.3649
    128  OE1        8.1360   32.6440   -9.4740 O.co2 163  GLU163     -0.2457
    129  OE2        8.9320   30.8680  -10.5400 O.co2 163  GLU163     -0.2457
    130  N          4.8120   28.7560   -7.9760 N.am  164  VAL164     -0.1977
    131  CA         4.8410   27.9980   -6.7550 C.3   164  VAL164      0.1596
    132  C          5.7010   28.7190   -5.7760 C.2   164  VAL164      0.2287
    133  O          6.6110   29.4650   -6.1420 O.2   164  VAL164     -0.2864
    134  CB         5.3280   26.5240   -6.9240 C.3   164  VAL164      0.0276
    135  CG1        4.2920   25.7830   -7.6840 C.3   164  VAL164      0.0022
    136  CG2        6.7870   26.3890   -7.6250 C.3   164  VAL164      0.0022
@<TRIPOS>BOND
     1   104   105    1
     2   104   103    1
     3   102   103    1
     4   102    99    1
     5   105   106    2
     6   120   119    1
     7   108   106    1
     8    98    99    1
     9   106   107    1
    10    99   100    1
    11   117   119   ar
    12   117   115   ar
    13   119   118   ar
    14   115   114   ar
    15   118   116   ar
    16   100   109   am
    17   100   101    2
    18   109   110    1
    19   112   111    2
    20   114   116   ar
    21   114   113    1
    22     1     2    1
    23     2     3    1
    24     2     5    1
    25   110   111    1
    26   110   113    1
    27    16    15    1
    28   111   121   am
    29    46    44    1
    30    45    44    1
    31    95    93   ar
    32    95    97   ar
    33     3    11   am
    34     3     4    2
    35   129   127   ar
    36     5     6    1
    37    15    12    1
    38    93    92   ar
    39    11    12    1
    40    44    43    2
    41    54    53   ar
    42   127   126    1
    43   127   128   ar
    44   121   122    1
    45    97    96   ar
    46   126   125    1
    47   125   122    1
    48    12    13    1
    49   122   123    1
    50    26    27   ar
    51    26    24   ar
    52     6     7   ar
    53     6     8   ar
    54    92    91    1
    55    92    94   ar
    56    61    60    1
    57    61    62    1
    58    53    55   ar
    59    53    52    1
    60    60    57    1
    61    43    42    1
    62     7     9   ar
    63    91    88    1
    64    27    25   ar
    65    96    94   ar
    66    88    89    1
    67    88    87    1
    68    24    22   ar
    69    13    14    2
    70    13    17   am
    71   123   130   am
    72   123   124    2
    73    89    90    2
    74   130   131    1
    75     8    10   ar
    76    42    41    1
    77    85    86   ar
    78    85    83   ar
    79    62    63   ar
    80    62    64   ar
    81    52    51    1
    82    86    84   ar
    83   135   134    1
    84    51    48    1
    85   136   134    1
    86    83    80   ar
    87    17    18    1
    88     9    10   ar
    89    56    57    1
    90    56    49   am
    91    57    58    1
    92    65    66    1
    93    65    58   am
    94    25    23   ar
    95    84    82   ar
    96    22    23   ar
    97    22    21    1
    98    80    82   ar
    99    80    78   ar
   100    66    67    1
   101   134   131    1
   102    58    59    2
   103    82    81   ar
   104   131   132    1
   105    48    49    1
   106    48    47    1
   107    78    77    1
   108    78    79   ar
   109    77    74    1
   110    41    40    1
   111    49    50    2
   112    18    21    1
   113    18    19    1
   114    81    79   ar
   115   133   132    2
   116    40    37    1
   117    67    68    2
   118    67    69   am
   119    19    20    2
   120    39    38    2
   121    74    75    1
   122    74    73    1
   123    75    76    2
   124    69    70    1
   125    37    38    1
   126    37    36    1
   127    72    71    2
   128    34    33    2
   129    71    70    1
   130    33    35   am
   131    33    32    1
   132    29    30    1
   133    29    32    1
   134    29    28    1
   135    30    31    2
