@<TRIPOS>MOLECULE
tmp/5cs5B00.pdb
 110 108 0 0 0
SMALL
GASTEIGER

@<TRIPOS>ATOM
      1  N         -8.6480   37.5910  -11.3640 N.3   124  HIS124     -0.1226
      2  CA        -8.8040   36.1820  -11.0350 C.3   124  HIS124      0.1752
      3  C        -10.0840   35.9600  -10.2580 C.2   124  HIS124      0.2597
      4  O        -10.7080   36.9160   -9.7940 O.2   124  HIS124     -0.2718
      5  CB        -7.5910   35.6930  -10.2100 C.3   124  HIS124      0.0759
      6  CG        -7.5730   36.2020   -8.8020 C.ar  124  HIS124      0.0818
      7  ND1       -6.8750   37.3280   -8.4200 N.ar  124  HIS124     -0.2268
      8  CD2       -8.1770   35.7380   -7.6840 C.ar  124  HIS124      0.1154
      9  CE1       -7.0460   37.5310   -7.1240 C.ar  124  HIS124      0.1986
     10  NE2       -7.8480   36.5900   -6.6580 N.ar  124  HIS124     -0.2212
     11  N        -10.4500   34.6940  -10.0820 N.am  125  SER125     -0.1938
     12  CA       -11.6710   34.3470   -9.3660 C.3   125  SER125      0.2055
     13  C        -11.4150   33.5790   -8.0640 C.2   125  SER125      0.2643
     14  O        -12.3240   32.9440   -7.5320 O.2   125  SER125     -0.2714
     15  CB       -12.6130   33.5610  -10.2930 C.3   125  SER125      0.2130
     16  OG       -11.9580   32.4090  -10.7920 O.3   125  SER125     -0.2179
     17  N        -10.1880   33.6580   -7.5450 N.am  126  PHE126     -0.1973
     18  CA        -9.8380   33.0540   -6.2460 C.3   126  PHE126      0.1639
     19  C        -10.0980   34.0330   -5.1120 C.2   126  PHE126      0.2290
     20  O         -9.1940   34.3730   -4.3320 O.2   126  PHE126     -0.2864
     21  CB        -8.3760   32.5770   -6.2260 C.3   126  PHE126      0.0560
     22  CG        -8.1260   31.3370   -7.0570 C.ar  126  PHE126     -0.0200
     23  CD1       -8.1300   30.0780   -6.4680 C.ar  126  PHE126     -0.0042
     24  CD2       -7.9020   31.4340   -8.4240 C.ar  126  PHE126     -0.0042
     25  CE1       -7.9080   28.9210   -7.2330 C.ar  126  PHE126     -0.0003
     26  CE2       -7.6840   30.2970   -9.1940 C.ar  126  PHE126     -0.0003
     27  CZ        -7.6790   29.0330   -8.5930 C.ar  126  PHE126     -0.0000
     28  N         -7.1420   24.7660   -4.0940 N.3   145  ARG145     -0.1245
     29  CA        -7.7300   23.6430   -4.8400 C.3   145  ARG145      0.1563
     30  C         -6.9670   22.3150   -4.7140 C.2   145  ARG145      0.2260
     31  O         -7.3460   21.3300   -5.3420 O.2   145  ARG145     -0.2867
     32  CB        -7.9450   24.0220   -6.3100 C.3   145  ARG145      0.0307
     33  CG        -8.9220   25.1840   -6.5050 C.3   145  ARG145      0.0489
     34  CD        -9.3120   25.3760   -7.9700 C.3   145  ARG145      0.2205
     35  NE        -8.1580   25.6110   -8.8400 N.pl3 145  ARG145     -0.0865
     36  CZ        -8.1870   25.5580  -10.1720 C.cat 145  ARG145      0.5346
     37  NH1       -9.3140   25.2740  -10.8160 N.pl3 145  ARG145      0.1354
     38  NH2       -7.0790   25.7880  -10.8660 N.pl3 145  ARG145      0.1354
     39  N         -3.8800   21.3580   -5.6020 N.3   147  GLU147     -0.1245
     40  CA        -3.1830   20.9970   -6.8250 C.3   147  GLU147      0.1567
     41  C         -1.7610   20.5100   -6.5680 C.2   147  GLU147      0.2260
     42  O         -1.1200   20.8980   -5.5860 O.2   147  GLU147     -0.2867
     43  CB        -3.1920   22.1790   -7.7840 C.3   147  GLU147      0.0388
     44  CG        -4.5930   22.7280   -7.9890 C.3   147  GLU147      0.1160
     45  CD        -4.6200   23.9110   -8.9070 C.2   147  GLU147      0.3649
     46  OE1       -4.4650   23.7010  -10.1290 O.co2 147  GLU147     -0.2457
     47  OE2       -4.8080   25.0440   -8.4060 O.co2 147  GLU147     -0.2457
     48  N          1.1850   21.0820   -7.5860 N.3   149  GLY149     -0.1210
     49  CA         2.3310   21.9920   -7.4730 C.3   149  GLY149      0.1956
     50  C          2.6090   22.5370   -6.0790 C.2   149  GLY149      0.2612
     51  O          3.6840   23.0970   -5.8260 O.2   149  GLY149     -0.2717
     52  N          1.6550   22.3860   -5.1650 N.am  150  GLY150     -0.1956
     53  CA         1.8180   22.9560   -3.8190 C.3   150  GLY150      0.1869
     54  C          1.3790   24.4140   -3.7850 C.2   150  GLY150      0.2309
     55  O          0.8760   24.9240   -4.7880 O.2   150  GLY150     -0.2863
     56  N          0.9400   28.3760   -3.9100 N.3   152  TRP152     -0.1241
     57  CA         1.3070   29.2590   -5.0000 C.3   152  TRP152      0.1605
     58  C          0.6000   30.5800   -4.7360 C.2   152  TRP152      0.2264
     59  O         -0.1650   30.7120   -3.7750 O.2   152  TRP152     -0.2867
     60  CB         0.8290   28.6710   -6.3440 C.3   152  TRP152      0.0550
     61  CG        -0.6540   28.4190   -6.3810 C.ar  152  TRP152      0.0003
     62  CD1       -1.3070   27.3120   -5.9190 C.ar  152  TRP152      0.0946
     63  CD2       -1.6690   29.3000   -6.8890 C.ar  152  TRP152      0.0152
     64  NE1       -2.6660   27.4520   -6.1010 N.ar  152  TRP152     -0.2442
     65  CE2       -2.9130   28.6580   -6.7020 C.ar  152  TRP152      0.0810
     66  CE3       -1.6460   30.5640   -7.5000 C.ar  152  TRP152      0.0012
     67  CZ2       -4.1280   29.2410   -7.0950 C.ar  152  TRP152      0.0191
     68  CZ3       -2.8450   31.1430   -7.8880 C.ar  152  TRP152      0.0001
     69  CH2       -4.0730   30.4890   -7.6740 C.ar  152  TRP152      0.0015
     70  N         -0.8660   34.3700   -7.0990 N.3   154  PHE154     -0.1241
     71  CA        -0.7210   35.3450   -8.1720 C.3   154  PHE154      0.1605
     72  C          0.3950   36.2780   -7.7740 C.2   154  PHE154      0.2264
     73  O          0.6100   36.5300   -6.5870 O.2   154  PHE154     -0.2867
     74  CB        -2.0310   36.0730   -8.4220 C.3   154  PHE154      0.0534
     75  CG        -3.1040   35.1760   -8.9070 C.ar  154  PHE154     -0.0203
     76  CD1       -3.0720   34.6910  -10.2190 C.ar  154  PHE154     -0.0042
     77  CD2       -4.1320   34.7740   -8.0620 C.ar  154  PHE154     -0.0042
     78  CE1       -4.0680   33.8420  -10.6770 C.ar  154  PHE154     -0.0003
     79  CE2       -5.1290   33.9090   -8.5140 C.ar  154  PHE154     -0.0003
     80  CZ        -5.0920   33.4440   -9.8240 C.ar  154  PHE154     -0.0000
     81  N          1.7900   35.6440  -14.2630 N.3   161  ARG161     -0.1231
     82  CA         0.4580   35.6040  -13.6660 C.3   161  ARG161      0.1694
     83  C          0.4740   34.9010  -12.2960 C.2   161  ARG161      0.2592
     84  O         -0.0090   35.4490  -11.2990 O.2   161  ARG161     -0.2718
     85  CB        -0.5620   34.9770  -14.6220 C.3   161  ARG161      0.0321
     86  CG        -1.9330   34.7520  -14.0050 C.3   161  ARG161      0.0489
     87  CD        -3.0020   34.5060  -15.0490 C.3   161  ARG161      0.2205
     88  NE        -4.2830   34.1630  -14.4300 N.pl3 161  ARG161     -0.0865
     89  CZ        -5.2740   35.0200  -14.1810 C.cat 161  ARG161      0.5346
     90  NH1       -6.3960   34.5780  -13.6220 N.pl3 161  ARG161      0.1354
     91  NH2       -5.1630   36.3100  -14.4930 N.pl3 161  ARG161      0.1354
     92  N          1.0480   33.7030  -12.2490 N.am  162  TYR162     -0.1976
     93  CA         1.1590   32.9680  -10.9880 C.3   162  TYR162      0.1639
     94  C          2.4430   32.1540  -10.9530 C.2   162  TYR162      0.2290
     95  O          3.0330   31.8470  -11.9960 O.2   162  TYR162     -0.2864
     96  CB        -0.0660   32.0650  -10.7720 C.3   162  TYR162      0.0560
     97  CG        -0.0920   30.8520  -11.6760 C.ar  162  TYR162     -0.0198
     98  CD1       -0.7140   30.9020  -12.9270 C.ar  162  TYR162     -0.0009
     99  CD2        0.5090   29.6530  -11.2810 C.ar  162  TYR162     -0.0009
    100  CE1       -0.7330   29.7870  -13.7630 C.ar  162  TYR162      0.0417
    101  CE2        0.4960   28.5380  -12.1130 C.ar  162  TYR162      0.0417
    102  CZ        -0.1240   28.6170  -13.3480 C.ar  162  TYR162      0.1957
    103  OH        -0.1430   27.5160  -14.1680 O.3   162  TYR162     -0.2866
    104  N          4.4770   28.9890   -8.1960 N.3   164  VAL164     -0.1245
    105  CA         4.5660   28.2660   -6.9260 C.3   164  VAL164      0.1561
    106  C          5.5120   28.9540   -5.9540 C.2   164  VAL164      0.2260
    107  O          6.4270   29.6840   -6.3580 O.2   164  VAL164     -0.2867
    108  CB         5.0580   26.7990   -7.0890 C.3   164  VAL164      0.0252
    109  CG1        4.0360   25.9720   -7.8590 C.3   164  VAL164      0.0019
    110  CG2        6.4720   26.7500   -7.7350 C.3   164  VAL164      0.0019
@<TRIPOS>BOND
     1    87    88    1
     2    87    86    1
     3    85    86    1
     4    85    82    1
     5    91    89    1
     6    88    89    2
     7    81    82    1
     8    89    90    1
     9   103   102    1
    10   100   102   ar
    11   100    98   ar
    12    82    83    1
    13   102   101   ar
    14    98    97   ar
    15    83    92   am
    16    83    84    2
    17    92    93    1
    18   101    99   ar
    19    95    94    2
    20    97    99   ar
    21    97    96    1
    22     1     2    1
    23     2     3    1
    24     2     5    1
    25    93    94    1
    26    93    96    1
    27    38    36    1
    28    37    36    1
    29    16    15    1
    30    78    76   ar
    31    78    80   ar
    32    15    12    1
    33     3    11   am
    34     3     4    2
    35    76    75   ar
    36     5     6    1
    37    36    35    2
    38    46    45   ar
    39    11    12    1
    40    80    79   ar
    41    12    13    1
    42    26    27   ar
    43    26    24   ar
    44    75    74    1
    45    75    77   ar
    46    45    47   ar
    47    45    44    1
    48    35    34    1
    49     6     7   ar
    50     6     8   ar
    51    27    25   ar
    52    79    77   ar
    53    24    22   ar
    54    74    71    1
    55     7     9   ar
    56   104   105    1
    57    71    72    1
    58    71    70    1
    59    13    17   am
    60    13    14    2
    61    44    43    1
    62    34    33    1
    63    68    69   ar
    64    68    66   ar
    65   109   108    1
    66    43    40    1
    67    72    73    2
    68   110   108    1
    69     8    10   ar
    70    69    67   ar
    71    48    49    1
    72    17    18    1
    73    66    63   ar
    74    49    50    1
    75    25    23   ar
    76     9    10   ar
    77    67    65   ar
    78   108   105    1
    79    22    23   ar
    80    22    21    1
    81   105   106    1
    82    63    65   ar
    83    63    61   ar
    84    40    41    1
    85    40    39    1
    86    65    64   ar
    87    41    42    2
    88    33    32    1
    89    61    60    1
    90    61    62   ar
    91   107   106    2
    92    60    57    1
    93    32    29    1
    94    18    21    1
    95    18    19    1
    96    64    62   ar
    97    50    51    2
    98    50    52   am
    99    31    30    2
   100    52    53    1
   101    19    20    2
   102    57    58    1
   103    57    56    1
   104    29    30    1
   105    29    28    1
   106    55    54    2
   107    58    59    2
   108    53    54    1
