@<TRIPOS>MOLECULE
tmp/5cs6A01.pdb
 126 120 0 0 0
SMALL
GASTEIGER

@<TRIPOS>ATOM
      1  N          1.2580  134.2060  362.7870 N.3   117  ASN117     -0.1225
      2  CA         1.3680  134.6650  361.4070 C.3   117  ASN117      0.1785
      3  C          0.1570  134.1900  360.5770 C.2   117  ASN117      0.2597
      4  O         -0.0840  132.9860  360.4670 O.2   117  ASN117     -0.2718
      5  CB         2.7200  134.2330  360.8260 C.3   117  ASN117      0.1169
      6  CG         3.1890  134.9810  359.5890 C.2   117  ASN117      0.2627
      7  OD1        3.7090  134.3790  358.6450 O.2   117  ASN117     -0.2716
      8  ND2        3.0420  136.3100  359.5500 N.am  117  ASN117     -0.0877
      9  N         -0.6990  135.1530  360.1740 N.am  118  THR118     -0.1953
     10  CA        -1.9580  134.9570  359.4420 C.3   118  THR118      0.1897
     11  C         -1.7530  134.2490  358.1180 C.2   118  THR118      0.2313
     12  O         -0.8500  134.6230  357.3680 O.2   118  THR118     -0.2863
     13  CB        -2.6190  136.3240  359.1870 C.3   118  THR118      0.1794
     14  OG1       -2.8420  136.9470  360.4380 O.3   118  THR118     -0.2208
     15  CG2       -3.9490  136.2240  358.4240 C.3   118  THR118      0.0378
     16  N         -2.7180  134.5590  354.9280 N.3   120  PHE120     -0.1241
     17  CA        -3.3910  135.5920  354.1280 C.3   120  PHE120      0.1605
     18  C         -4.2040  135.0270  352.9250 C.2   120  PHE120      0.2264
     19  O         -5.2440  135.6000  352.5740 O.2   120  PHE120     -0.2867
     20  CB        -2.4100  136.6910  353.6990 C.3   120  PHE120      0.0534
     21  CG        -2.0480  137.6190  354.8420 C.ar  120  PHE120     -0.0203
     22  CD1       -2.9380  138.5960  355.2770 C.ar  120  PHE120     -0.0042
     23  CD2       -0.8290  137.4960  355.5020 C.ar  120  PHE120     -0.0042
     24  CE1       -2.6090  139.4400  356.3460 C.ar  120  PHE120     -0.0003
     25  CE2       -0.4990  138.3440  356.5630 C.ar  120  PHE120     -0.0003
     26  CZ        -1.3860  139.3140  356.9720 C.ar  120  PHE120     -0.0000
     27  N         -5.4150  142.8770  350.3370 N.3   127  LEU127     -0.1245
     28  CA        -4.6410  143.9810  350.8920 C.3   127  LEU127      0.1561
     29  C         -5.2500  145.3080  350.4260 C.2   127  LEU127      0.2260
     30  O         -5.5740  145.4630  349.2500 O.2   127  LEU127     -0.2867
     31  CB        -3.2190  143.8260  350.3390 C.3   127  LEU127      0.0270
     32  CG        -2.0990  144.6580  350.9420 C.3   127  LEU127      0.0019
     33  CD1       -1.9240  144.3610  352.4260 C.3   127  LEU127      0.0001
     34  CD2       -0.7900  144.3960  350.2120 C.3   127  LEU127      0.0001
     35  N         -1.5110  148.7210  353.9780 N.3   132  ILE132     -0.1245
     36  CA        -0.0980  148.9530  353.6810 C.3   132  ILE132      0.1561
     37  C          0.3920  150.0830  354.5570 C.2   132  ILE132      0.2260
     38  O          1.4690  149.9880  355.1500 O.2   132  ILE132     -0.2867
     39  CB         0.1900  149.1530  352.1530 C.3   132  ILE132      0.0252
     40  CG1       -0.2580  147.8760  351.3080 C.3   132  ILE132      0.0019
     41  CG2        1.7020  149.4780  351.9030 C.3   132  ILE132      0.0019
     42  CD1       -0.1830  148.0300  349.8140 C.3   132  ILE132      0.0001
     43  N          0.5860  148.7740  358.4020 N.3   135  TYR135     -0.1227
     44  CA         1.7000  147.8640  358.6910 C.3   135  TYR135      0.1736
     45  C          3.1060  148.4700  358.3960 C.2   135  TYR135      0.2595
     46  O          4.0560  148.1720  359.1300 O.2   135  TYR135     -0.2718
     47  CB         1.4880  146.4970  357.9940 C.3   135  TYR135      0.0548
     48  CG         0.3830  145.7000  358.6680 C.ar  135  TYR135     -0.0200
     49  CD1        0.4790  145.3280  360.0060 C.ar  135  TYR135     -0.0009
     50  CD2       -0.7700  145.3340  357.9690 C.ar  135  TYR135     -0.0009
     51  CE1       -0.5610  144.6460  360.6530 C.ar  135  TYR135      0.0417
     52  CE2       -1.8110  144.6400  358.6010 C.ar  135  TYR135      0.0417
     53  CZ        -1.6980  144.2940  359.9420 C.ar  135  TYR135      0.1957
     54  OH        -2.6970  143.5930  360.5800 O.3   135  TYR135     -0.2866
     55  N          3.2330  149.3420  357.3690 N.am  136  MET136     -0.1979
     56  CA         4.4970  150.0490  357.1090 C.3   136  MET136      0.1605
     57  C          4.8430  150.9410  358.3590 C.2   136  MET136      0.2287
     58  O          5.9740  150.9320  358.8330 O.2   136  MET136     -0.2864
     59  CB         4.3650  150.8720  355.8270 C.3   136  MET136      0.0413
     60  CG         4.5280  150.0220  354.5800 C.3   136  MET136      0.0598
     61  SD         6.2890  149.5770  354.3210 S.3   136  MET136     -0.1393
     62  CE         6.9290  151.1700  354.2530 C.3   136  MET136      0.0692
     63  N          6.1950  148.7650  361.1700 N.3   139  ILE139     -0.1245
     64  CA         7.6030  148.3410  360.9150 C.3   139  ILE139      0.1561
     65  C          8.5030  149.4980  361.2610 C.2   139  ILE139      0.2260
     66  O          9.5590  149.3050  361.8670 O.2   139  ILE139     -0.2867
     67  CB         7.8190  147.8900  359.4330 C.3   139  ILE139      0.0252
     68  CG1        7.0570  146.5740  359.1370 C.3   139  ILE139      0.0019
     69  CG2        9.3140  147.6560  359.1610 C.3   139  ILE139      0.0019
     70  CD1        6.8140  146.3200  357.5930 C.3   139  ILE139      0.0001
     71  N         10.0590  140.6220  353.7640 N.3   158  PRO158     -0.2102
     72  CA         8.7480  140.1090  354.1980 C.3   158  PRO158      0.1504
     73  C          8.7990  138.8900  355.0980 C.2   158  PRO158      0.2575
     74  O          8.0240  138.8470  356.0570 O.2   158  PRO158     -0.2718
     75  CB         8.0250  139.8410  352.8730 C.3   158  PRO158      0.0282
     76  CG         8.6020  140.8680  351.9490 C.3   158  PRO158      0.0208
     77  CD        10.0700  140.8250  352.3020 C.3   158  PRO158      0.0893
     78  N          9.7080  137.9370  354.8450 N.am  159  HIS159     -0.1976
     79  CA         9.8290  136.7320  355.6680 C.3   159  HIS159      0.1656
     80  C         10.2550  137.0350  357.1110 C.2   159  HIS159      0.2291
     81  O         10.0450  136.2060  357.9770 O.2   159  HIS159     -0.2864
     82  CB        10.7670  135.6950  355.0390 C.3   159  HIS159      0.0771
     83  CG        10.1120  134.8890  353.9330 C.ar  159  HIS159      0.0820
     84  ND1       10.7810  133.8410  353.3050 N.ar  159  HIS159     -0.2267
     85  CD2        8.8810  135.0090  353.3750 C.ar  159  HIS159      0.1154
     86  CE1        9.9350  133.3550  352.4080 C.ar  159  HIS159      0.1986
     87  NE2        8.7770  134.0170  352.4210 N.ar  159  HIS159     -0.2212
     88  N          9.0150  139.5880  358.8210 N.3   161  VAL161     -0.1231
     89  CA         7.9250  140.4010  359.3590 C.3   161  VAL161      0.1692
     90  C          6.7220  139.5000  359.5930 C.2   161  VAL161      0.2592
     91  O          6.1280  138.9910  358.6300 O.2   161  VAL161     -0.2718
     92  CB         7.6080  141.6140  358.4490 C.3   161  VAL161      0.0266
     93  CG1        6.3550  142.3660  358.9540 C.3   161  VAL161      0.0020
     94  CG2        8.8160  142.5570  358.3570 C.3   161  VAL161      0.0020
     95  N          6.3890  139.2660  360.8750 N.am  162  MET162     -0.1965
     96  CA         5.2480  138.4160  361.2210 C.3   162  MET162      0.1736
     97  C          4.0740  139.3000  361.5080 C.2   162  MET162      0.2616
     98  O          4.1870  140.2580  362.2670 O.2   162  MET162     -0.2715
     99  CB         5.5520  137.5170  362.4300 C.3   162  MET162      0.0427
    100  CG         6.7480  136.5670  362.2390 C.3   162  MET162      0.0599
    101  SD         6.4350  135.1700  361.1370 S.3   162  MET162     -0.1393
    102  CE         7.2730  135.6730  359.6340 C.3   162  MET162      0.0692
    103  N          2.9450  138.9820  360.9100 N.am  163  ILE163     -0.1977
    104  CA         1.6840  139.7050  361.0690 C.3   163  ILE163      0.1596
    105  C          0.5480  138.7780  361.5610 C.2   163  ILE163      0.2287
    106  O          0.3310  137.7260  360.9830 O.2   163  ILE163     -0.2864
    107  CB         1.2920  140.4740  359.7940 C.3   163  ILE163      0.0276
    108  CG1        2.3860  141.5180  359.4060 C.3   163  ILE163      0.0022
    109  CG2       -0.0680  141.1240  359.9570 C.3   163  ILE163      0.0022
    110  CD1        2.2200  142.1480  358.1110 C.3   163  ILE163      0.0001
    111  N         10.3980  146.6520  349.9790 N.3   220  MET220     -0.1245
    112  CA         9.1530  146.0370  350.4530 C.3   220  MET220      0.1570
    113  C          7.9760  146.9050  350.0860 C.2   220  MET220      0.2261
    114  O          7.0310  146.3840  349.5470 O.2   220  MET220     -0.2867
    115  CB         9.1680  145.8360  351.9750 C.3   220  MET220      0.0387
    116  CG        10.1590  144.7830  352.4040 C.3   220  MET220      0.0595
    117  SD        10.0720  144.5160  354.1900 S.3   220  MET220     -0.1393
    118  CE         8.3620  144.2250  354.4100 C.3   220  MET220      0.0692
    119  N          4.8210  145.8540  347.4250 N.3   224  MET224     -0.1245
    120  CA         3.4350  145.8490  347.8940 C.3   224  MET224      0.1570
    121  C          2.5570  146.7800  347.0720 C.2   224  MET224      0.2261
    122  O          1.5410  146.3240  346.5590 O.2   224  MET224     -0.2867
    123  CB         3.3370  146.2120  349.3880 C.3   224  MET224      0.0387
    124  CG         4.1050  145.2700  350.3170 C.3   224  MET224      0.0595
    125  SD         4.1920  145.7620  352.0860 S.3   224  MET224     -0.1393
    126  CE         4.3720  147.3920  351.9820 C.3   224  MET224      0.0692
@<TRIPOS>BOND
     1   122   121    2
     2   121   120    1
     3   119   120    1
     4   120   123    1
     5    30    29    2
     6   123   124    1
     7   114   113    2
     8    42    40    1
     9   111   112    1
    10   113   112    1
    11    34    32    1
    12   124   125    1
    13    27    28    1
    14    31    28    1
    15    31    32    1
    16    29    28    1
    17   112   115    1
    18    32    33    1
    19    40    39    1
    20    41    39    1
    21    76    77    1
    22    76    75    1
    23   115   116    1
    24   126   125    1
    25    39    36    1
    26    77    71    1
    27   116   117    1
    28    86    87   ar
    29    86    84   ar
    30    87    85   ar
    31    19    18    2
    32    75    72    1
    33    18    17    1
    34    84    83   ar
    35    85    83   ar
    36    36    35    1
    37    36    37    1
    38    20    17    1
    39    20    21    1
    40    71    72    1
    41    83    82    1
    42    17    16    1
    43   117   118    1
    44    72    73    1
    45    62    61    1
    46    61    60    1
    47    37    38    2
    48    60    59    1
    49    21    22   ar
    50    21    23   ar
    51    78    73   am
    52    78    79    1
    53    82    79    1
    54    73    74    2
    55    22    24   ar
    56    23    25   ar
    57    79    80    1
    58    59    56    1
    59    24    26   ar
    60    25    26   ar
    61    56    55    1
    62    56    57    1
    63    80    81    2
    64    12    11    2
    65    55    45   am
    66    70    68    1
    67    50    52   ar
    68    50    48   ar
    69    47    48    1
    70    47    44    1
    71   110   108    1
    72    11    10    1
    73    94    92    1
    74    57    58    2
    75    45    44    1
    76    45    46    2
    77    43    44    1
    78    15    13    1
    79    92    93    1
    80    92    89    1
    81    52    53   ar
    82    91    90    2
    83     7     6    2
    84    48    49   ar
    85    88    89    1
    86    68    67    1
    87    69    67    1
    88    13    10    1
    89    13    14    1
    90    89    90    1
    91   108   107    1
    92    67    64    1
    93    10     9    1
    94     8     6   am
    95     6     5    1
    96    90    95   am
    97   102   101    1
    98   107   109    1
    99   107   104    1
   100    53    54    1
   101    53    51   ar
   102    49    51   ar
   103     9     3   am
   104     4     3    2
   105     3     2    1
   106     5     2    1
   107    95    96    1
   108   103   104    1
   109   103    97   am
   110    64    63    1
   111    64    65    1
   112   106   105    2
   113   104   105    1
   114   101   100    1
   115    96    97    1
   116    96    99    1
   117    65    66    2
   118     2     1    1
   119    97    98    2
   120   100    99    1
