@<TRIPOS>MOLECULE
tmp/5cs8A00.pdb
 125 121 0 0 0
SMALL
GASTEIGER

@<TRIPOS>ATOM
      1  N          3.8500    0.9710   -0.6460 N.3    49  TRP49      -0.1228
      2  CA         3.6470    2.2920   -1.2470 C.3    49  TRP49       0.1722
      3  C          4.8800    3.1480   -1.5680 C.2    49  TRP49       0.2437
      4  O          4.8610    3.8470   -2.5990 O.2    49  TRP49      -0.2733
      5  CB         2.6060    3.1250   -0.4390 C.3    49  TRP49       0.0563
      6  CG         2.9660    3.3310    0.9900 C.ar   49  TRP49       0.0003
      7  CD1        2.6920    2.5250    2.0390 C.ar   49  TRP49       0.0946
      8  CD2        3.7030    4.4480    1.5350 C.ar   49  TRP49       0.0152
      9  NE1        3.1760    3.0580    3.1980 N.ar   49  TRP49      -0.2442
     10  CE2        3.8230    4.2260    2.9220 C.ar   49  TRP49       0.0810
     11  CE3        4.2580    5.6040    0.9860 C.ar   49  TRP49       0.0012
     12  CZ2        4.4670    5.1250    3.7740 C.ar   49  TRP49       0.0191
     13  CZ3        4.8870    6.4820    1.8330 C.ar   49  TRP49       0.0001
     14  CH2        4.9980    6.2350    3.2040 C.ar   49  TRP49       0.0015
     15  N          5.9350    3.1250   -0.7270 N.am   50  PRO50      -0.2718
     16  CA         7.0640    3.9660   -1.1480 C.3    50  PRO50       0.1535
     17  C          7.7780    3.4420   -2.3740 C.2    50  PRO50       0.2598
     18  O          8.5490    4.1780   -2.9900 O.2    50  PRO50      -0.2715
     19  CB         8.0140    3.9200    0.0460 C.3    50  PRO50       0.0310
     20  CG         7.1690    3.4940    1.2060 C.3    50  PRO50       0.0237
     21  CD         6.2220    2.5120    0.5850 C.3    50  PRO50       0.0939
     22  N          7.4920    2.1920   -2.7120 N.am   51  PHE51      -0.1974
     23  CA         8.1790    1.5020   -3.7920 C.3    51  PHE51       0.1639
     24  C          7.3210    1.4390   -5.0460 C.2    51  PHE51       0.2290
     25  O          7.7590    0.9070   -6.0530 O.2    51  PHE51      -0.2864
     26  CB         8.5370    0.0990   -3.3050 C.3    51  PHE51       0.0560
     27  CG         9.3830    0.0840   -2.0750 C.ar   51  PHE51      -0.0200
     28  CD1       10.7770    0.1340   -2.1550 C.ar   51  PHE51      -0.0042
     29  CD2        8.8200    0.0520   -0.8250 C.ar   51  PHE51      -0.0042
     30  CE1       11.5600    0.1730   -1.0230 C.ar   51  PHE51      -0.0003
     31  CE2        9.5940    0.0600    0.3030 C.ar   51  PHE51      -0.0003
     32  CZ        10.9830    0.1360    0.2270 C.ar   51  PHE51      -0.0000
     33  N         11.2330    7.2960   -7.3030 N.3    55  VAL55      -0.1245
     34  CA        11.4640    8.3260   -6.2910 C.3    55  VAL55       0.1561
     35  C         11.2640    9.7280   -6.8930 C.2    55  VAL55       0.2260
     36  O         11.9170   10.1050   -7.8730 O.2    55  VAL55      -0.2867
     37  CB        12.8550    8.1710   -5.6070 C.3    55  VAL55       0.0252
     38  CG1       13.2000    9.3750   -4.7570 C.3    55  VAL55       0.0019
     39  CG2       12.9040    6.9040   -4.7230 C.3    55  VAL55       0.0019
     40  N          9.7510   14.5840   -2.1460 N.3    60  LEU60      -0.1245
     41  CA        10.1240   13.9400   -0.9150 C.3    60  LEU60       0.1561
     42  C         11.3350   14.5930   -0.2090 C.2    60  LEU60       0.2260
     43  O         11.8050   14.0970    0.7910 O.2    60  LEU60      -0.2867
     44  CB        10.3420   12.4500   -1.2140 C.3    60  LEU60       0.0270
     45  CG         9.1990   11.7310   -1.9410 C.3    60  LEU60       0.0019
     46  CD1        9.6170   10.3380   -2.3960 C.3    60  LEU60       0.0001
     47  CD2        7.9520   11.6460   -1.0670 C.3    60  LEU60       0.0001
     48  N         14.5780   14.7380   -1.0310 N.3    62  LEU62      -0.1245
     49  CA        15.7240   13.8360   -1.0800 C.3    62  LEU62       0.1561
     50  C         16.6490   14.3200   -2.1930 C.2    62  LEU62       0.2260
     51  O         16.9320   13.6050   -3.1720 O.2    62  LEU62      -0.2867
     52  CB        15.2560   12.4080   -1.3870 C.3    62  LEU62       0.0270
     53  CG        14.2340   11.8260   -0.3960 C.3    62  LEU62       0.0019
     54  CD1       13.7470   10.4500   -0.8450 C.3    62  LEU62       0.0001
     55  CD2       14.8020   11.7840    1.0130 C.3    62  LEU62       0.0001
     56  N         19.2890   12.0370   -3.6280 N.3    65  TYR65      -0.1241
     57  CA        18.9210   10.6660   -3.9980 C.3    65  TYR65       0.1605
     58  C         19.5380   10.2160   -5.2920 C.2    65  TYR65       0.2264
     59  O         20.2200    9.1870   -5.3550 O.2    65  TYR65      -0.2867
     60  CB        17.3900   10.4850   -4.0830 C.3    65  TYR65       0.0534
     61  CG        17.0570    9.0190   -4.2530 C.ar   65  TYR65      -0.0201
     62  CD1       17.1090    8.1470   -3.1720 C.ar   65  TYR65      -0.0009
     63  CD2       16.8370    8.4740   -5.5240 C.ar   65  TYR65      -0.0009
     64  CE1       16.8240    6.7850   -3.3290 C.ar   65  TYR65       0.0417
     65  CE2       16.5380    7.1240   -5.6840 C.ar   65  TYR65       0.0417
     66  CZ        16.5550    6.2830   -4.5840 C.ar   65  TYR65       0.1957
     67  OH        16.3110    4.9240   -4.7740 O.3    65  TYR65      -0.2866
     68  N         16.0710   -2.5680   -6.9070 N.3   100  MET100     -0.1245
     69  CA        15.2240   -1.7650   -6.0310 C.3   100  MET100      0.1570
     70  C         15.6000   -1.8920   -4.5560 C.2   100  MET100      0.2261
     71  O         15.7130   -0.8920   -3.8580 O.2   100  MET100     -0.2867
     72  CB        13.7380   -2.1520   -6.2720 C.3   100  MET100      0.0387
     73  CG        12.7890   -1.3550   -5.3930 C.3   100  MET100      0.0595
     74  SD        11.1200   -1.9650   -5.6610 S.3   100  MET100     -0.1393
     75  CE        11.1340   -3.4350   -4.6550 C.3   100  MET100      0.0692
     76  N         17.7330    0.8540   -1.8820 N.3   104  CYS104     -0.1235
     77  CA        17.2020    1.2530   -0.5910 C.3   104  CYS104      0.1677
     78  C         18.2540    1.0630    0.5230 C.2   104  CYS104      0.2270
     79  O         18.4410    1.9330    1.3760 O.2   104  CYS104     -0.2867
     80  CB        15.8960    0.5110   -0.3210 C.3   104  CYS104      0.0956
     81  SG        15.0780    1.1020    1.1680 S.3   104  CYS104     -0.0801
     82  N         21.1650    3.7680    0.0360 N.3   107  TYR107     -0.1227
     83  CA        20.8120    5.1390    0.3400 C.3   107  TYR107      0.1736
     84  C         20.5880    5.3720    1.8380 C.2   107  TYR107      0.2595
     85  O         20.9050    6.4430    2.3660 O.2   107  TYR107     -0.2718
     86  CB        19.6400    5.6020   -0.5400 C.3   107  TYR107      0.0548
     87  CG        19.2640    7.0160   -0.3120 C.ar  107  TYR107     -0.0200
     88  CD1       20.0470    8.0650   -0.7830 C.ar  107  TYR107     -0.0009
     89  CD2       18.1450    7.3310    0.4330 C.ar  107  TYR107     -0.0009
     90  CE1       19.6810    9.3690   -0.5460 C.ar  107  TYR107      0.0417
     91  CE2       17.7940    8.6320    0.6880 C.ar  107  TYR107      0.0417
     92  CZ        18.5620    9.6500    0.1920 C.ar  107  TYR107      0.1957
     93  OH        18.2580   10.9550    0.5000 O.3   107  TYR107     -0.2866
     94  N         20.0410    4.3790    2.5150 N.am  108  ASN108     -0.1974
     95  CA        19.5630    4.5140    3.8740 C.3   108  ASN108      0.1688
     96  C         20.4470    3.7500    4.8640 C.2   108  ASN108      0.2292
     97  O         21.4860    3.2120    4.4960 O.2   108  ASN108     -0.2864
     98  CB        18.1250    4.0230    3.8880 C.3   108  ASN108      0.1181
     99  CG        17.2550    4.8370    2.9570 C.2   108  ASN108      0.2629
    100  OD1       16.9670    5.9880    3.2330 O.2   108  ASN108     -0.2716
    101  ND2       16.8750    4.2650    1.8310 N.am  108  ASN108     -0.0877
    102  N         12.9900    3.5500    8.9390 N.3   113  ASP113     -0.1225
    103  CA        11.6870    3.0190    8.5600 C.3   113  ASP113      0.1805
    104  C         11.6510    2.4520    7.1410 C.2   113  ASP113      0.2597
    105  O         10.9820    1.4010    6.8770 O.2   113  ASP113     -0.2718
    106  CB        10.6150    4.1070    8.6360 C.3   113  ASP113      0.1424
    107  CG         9.9630    4.1950    9.9930 C.2   113  ASP113      0.3668
    108  OD1       10.1250    3.2760   10.8280 O.co2 113  ASP113     -0.2456
    109  OD2        9.2430    5.1960   10.1920 O.co2 113  ASP113     -0.2456
    110  N         12.2730    3.1740    6.2030 N.am  114  ILE114     -0.1980
    111  CA        12.2260    2.7110    4.8220 C.3   114  ILE114      0.1595
    112  C         12.9370    1.3620    4.6680 C.2   114  ILE114      0.2287
    113  O         12.5160    0.5300    3.8560 O.2   114  ILE114     -0.2864
    114  CB        12.7740    3.7570    3.8320 C.3   114  ILE114      0.0276
    115  CG1       12.3870    3.3970    2.4000 C.3   114  ILE114      0.0022
    116  CG2       14.2670    3.9940    4.0420 C.3   114  ILE114      0.0022
    117  CD1       10.9330    3.6920    2.0500 C.3   114  ILE114      0.0001
    118  N         10.7700   -1.4790    5.9530 N.3   117  MET117     -0.1245
    119  CA         9.7980   -1.7720    4.9340 C.3   117  MET117      0.1570
    120  C         10.4030   -2.6260    3.8240 C.2   117  MET117      0.2261
    121  O          9.8300   -3.6430    3.4220 O.2   117  MET117     -0.2867
    122  CB         9.2360   -0.4680    4.3420 C.3   117  MET117      0.0387
    123  CG         8.4360    0.3030    5.3680 C.3   117  MET117      0.0595
    124  SD         8.0510    2.0170    4.9170 S.3   117  MET117     -0.1393
    125  CE         6.3970    1.8200    4.2490 C.3   117  MET117      0.0692
@<TRIPOS>BOND
     1    36    35    2
     2    33    34    1
     3    68    69    1
     4    35    34    1
     5    34    37    1
     6    72    69    1
     7    72    73    1
     8    25    24    2
     9    69    70    1
    10    65    63   ar
    11    65    66   ar
    12    74    73    1
    13    74    75    1
    14    37    38    1
    15    37    39    1
    16    63    61   ar
    17    59    58    2
    18    58    57    1
    19    24    23    1
    20    67    66    1
    21    66    64   ar
    22    70    71    2
    23    61    60    1
    24    61    62   ar
    25    60    57    1
    26    57    56    1
    27    23    26    1
    28    23    22    1
    29    64    62   ar
    30    26    27    1
    31    51    50    2
    32    18    17    2
    33    22    17   am
    34     4     3    2
    35    46    45    1
    36    17    16    1
    37    50    49    1
    38    28    27   ar
    39    28    30   ar
    40    40    41    1
    41    27    29   ar
    42    45    44    1
    43    45    47    1
    44    76    77    1
    45     3     2    1
    46     3    15   am
    47    52    49    1
    48    52    53    1
    49     2     1    1
    50     2     5    1
    51    44    41    1
    52    16    15    1
    53    16    19    1
    54    49    48    1
    55    30    32   ar
    56    41    42    1
    57    54    53    1
    58    29    31   ar
    59    88    90   ar
    60    88    87   ar
    61    15    21    1
    62    77    80    1
    63    77    78    1
    64    90    92   ar
    65    86    87    1
    66    86    83    1
    67     5     6    1
    68    53    55    1
    69    80    81    1
    70    87    89   ar
    71    42    43    2
    72    82    83    1
    73    19    20    1
    74    92    93    1
    75    92    91   ar
    76    32    31   ar
    77    83    84    1
    78    89    91   ar
    79    78    79    2
    80    21    20    1
    81    11     8   ar
    82    11    13   ar
    83     6     8   ar
    84     6     7   ar
    85     8    10   ar
    86   101    99   am
    87    13    14   ar
    88    84    85    2
    89    84    94   am
    90     7     9   ar
    91   117   115    1
    92   115   114    1
    93    94    95    1
    94    10     9   ar
    95    10    12   ar
    96    99   100    2
    97    99    98    1
    98    14    12   ar
    99   121   120    2
   100   120   119    1
   101   114   116    1
   102   114   111    1
   103   113   112    2
   104    95    98    1
   105    95    96    1
   106   125   124    1
   107   122   119    1
   108   122   123    1
   109    97    96    2
   110   112   111    1
   111   111   110    1
   112   124   123    1
   113   119   118    1
   114   110   104   am
   115   105   104    2
   116   104   103    1
   117   103   106    1
   118   103   102    1
   119   106   107    1
   120   107   109   ar
   121   107   108   ar
