@<TRIPOS>MOLECULE
tmp/5cseB00.pdb
 160 152 0 0 0
SMALL
GASTEIGER

@<TRIPOS>ATOM
      1  N         10.9490  -10.9150   18.0170 N.3    11  ASN11      -0.1240
      2  CA         9.5880  -10.4800   18.3530 C.3    11  ASN11       0.1653
      3  C          8.5350  -11.2370   17.5880 C.2    11  ASN11       0.2266
      4  O          8.8480  -12.1560   16.8320 O.2    11  ASN11      -0.2867
      5  CB         9.4040   -8.9580   18.1670 C.3    11  ASN11       0.1155
      6  CG         9.3370   -8.5090   16.7000 C.2    11  ASN11       0.2627
      7  OD1        9.3660   -9.3060   15.7750 O.2    11  ASN11      -0.2716
      8  ND2        9.2400   -7.1940   16.5050 N.am   11  ASN11      -0.0877
      9  N          6.7620  -10.5540   15.1460 N.3    13  LEU13      -0.1245
     10  CA         6.6970  -10.3280   13.7050 C.3    13  LEU13       0.1561
     11  C          7.8560  -11.0400   13.0090 C.2    13  LEU13       0.2260
     12  O          7.9140  -11.0910   11.7820 O.2    13  LEU13      -0.2867
     13  CB         6.7300   -8.8290   13.3860 C.3    13  LEU13       0.0270
     14  CG         5.6560   -7.9320   14.0140 C.3    13  LEU13       0.0019
     15  CD1        6.0130   -6.4470   13.8590 C.3    13  LEU13       0.0001
     16  CD2        4.2860   -8.2260   13.4160 C.3    13  LEU13       0.0001
     17  N         11.1040  -10.1150   13.8290 N.3    15  SER15      -0.1217
     18  CA        12.2240   -9.1730   13.8570 C.3    15  SER15       0.1889
     19  C         13.3180   -9.6400   14.8190 C.2    15  SER15       0.2288
     20  O         13.0440  -10.3280   15.7950 O.2    15  SER15      -0.2866
     21  CB        11.7430   -7.7710   14.2500 C.3    15  SER15       0.2089
     22  OG        10.8720   -7.2660   13.2610 O.3    15  SER15      -0.2183
     23  N         19.1170   -3.6640   15.1410 N.3    31  TYR31      -0.1241
     24  CA        17.7680   -4.1570   14.9620 C.3    31  TYR31       0.1605
     25  C         17.5610   -4.5140   13.5090 C.2    31  TYR31       0.2264
     26  O         17.9560   -3.7500   12.6200 O.2    31  TYR31      -0.2867
     27  CB        16.7550   -3.0940   15.3790 C.3    31  TYR31       0.0534
     28  CG        15.3680   -3.6120   15.6380 C.ar   31  TYR31      -0.0201
     29  CD1       14.4500   -3.7930   14.5950 C.ar   31  TYR31      -0.0009
     30  CD2       14.9630   -3.9010   16.9330 C.ar   31  TYR31      -0.0009
     31  CE1       13.1670   -4.2640   14.8480 C.ar   31  TYR31       0.0417
     32  CE2       13.6870   -4.3680   17.1980 C.ar   31  TYR31       0.0417
     33  CZ        12.7930   -4.5480   16.1600 C.ar   31  TYR31       0.1957
     34  OH        11.5320   -5.0130   16.4520 O.3    31  TYR31      -0.2866
     35  N         14.3800   -5.5050   11.0190 N.3    33  SER33      -0.1217
     36  CA        12.9200   -5.5710   11.0010 C.3    33  SER33       0.1889
     37  C         12.3900   -6.5350    9.9600 C.2    33  SER33       0.2288
     38  O         12.8110   -6.5140    8.8070 O.2    33  SER33      -0.2866
     39  CB        12.3200   -4.1840   10.7550 C.3    33  SER33       0.2089
     40  OG        10.9020   -4.2540   10.6520 O.3    33  SER33      -0.2183
     41  N          9.4290   -6.3730    8.8940 N.3    35  VAL35      -0.1231
     42  CA         8.3820   -5.6830    8.1500 C.3    35  VAL35       0.1692
     43  C          8.7480   -4.2480    7.8770 C.2    35  VAL35       0.2593
     44  O          9.6590   -3.6950    8.4980 O.2    35  VAL35      -0.2718
     45  CB         7.0200   -5.6730    8.8750 C.3    35  VAL35       0.0266
     46  CG1        6.5080   -7.1000    9.1170 C.3    35  VAL35       0.0020
     47  CG2        7.1170   -4.8870   10.1840 C.3    35  VAL35       0.0020
     48  N          8.0250   -3.6620    6.9310 N.am   36  GLY36      -0.1942
     49  CA         8.1270   -2.2440    6.6460 C.3    36  GLY36       0.2014
     50  C          9.1990   -1.9530    5.6290 C.2    36  GLY36       0.2639
     51  O          9.7130   -2.8680    4.9750 O.2    36  GLY36      -0.2714
     52  N          9.5330   -0.6720    5.5040 N.am   37  ASN37      -0.1958
     53  CA        10.5230   -0.2130    4.5430 C.3    37  ASN37       0.1819
     54  C         11.8820   -0.3070    5.2040 C.2    37  ASN37       0.2621
     55  O         12.4530    0.6890    5.6560 O.2    37  ASN37      -0.2715
     56  CB        10.2070    1.2180    4.0860 C.3    37  ASN37       0.1195
     57  CG        11.2210    1.7650    3.0980 C.2    37  ASN37       0.2630
     58  OD1       12.0570    1.0290    2.5670 O.2    37  ASN37      -0.2716
     59  ND2       11.1440    3.0740    2.8360 N.am   37  ASN37      -0.0877
     60  N         12.3840   -1.5280    5.2980 N.am   38  ALA38      -0.1977
     61  CA        13.6200   -1.7580    6.0110 C.3    38  ALA38       0.1597
     62  C         14.2950   -2.9960    5.4830 C.2    38  ALA38       0.2287
     63  O         13.6250   -3.9630    5.1110 O.2    38  ALA38      -0.2864
     64  CB        13.3570   -1.8940    7.5000 C.3    38  ALA38       0.0319
     65  N         15.5740    4.6980   11.0950 N.3    67  TRP67      -0.1241
     66  CA        15.5160    3.7000   10.0350 C.3    67  TRP67       0.1605
     67  C         16.3200    4.1170    8.8110 C.2    67  TRP67       0.2264
     68  O         15.8300    4.0710    7.6780 O.2    67  TRP67      -0.2867
     69  CB        14.0570    3.4310    9.6770 C.3    67  TRP67       0.0550
     70  CG        13.3150    2.8090   10.8190 C.ar   67  TRP67       0.0003
     71  CD1       12.3980    3.4120   11.6330 C.ar   67  TRP67       0.0946
     72  CD2       13.4410    1.4570   11.2830 C.ar   67  TRP67       0.0152
     73  NE1       11.9370    2.5120   12.5690 N.ar   67  TRP67      -0.2442
     74  CE2       12.5690    1.3090   12.3810 C.ar   67  TRP67       0.0810
     75  CE3       14.2130    0.3620   10.8800 C.ar   67  TRP67       0.0012
     76  CZ2       12.4350    0.1040   13.0740 C.ar   67  TRP67       0.0191
     77  CZ3       14.0750   -0.8410   11.5660 C.ar   67  TRP67       0.0001
     78  CH2       13.1950   -0.9570   12.6510 C.ar   67  TRP67       0.0015
     79  N         14.1680    5.2400    5.5670 N.3    74  ALA74      -0.1245
     80  CA        12.7150    5.3540    5.5580 C.3    74  ALA74       0.1562
     81  C         12.2220    6.6160    6.2880 C.2    74  ALA74       0.2260
     82  O         11.0250    6.7380    6.5840 O.2    74  ALA74      -0.2867
     83  CB        12.0840    4.1060    6.1690 C.3    74  ALA74       0.0290
     84  N         12.2400    7.8750    9.3170 N.3    76  SER76      -0.1217
     85  CA        11.3810    7.5470   10.4350 C.3    76  SER76       0.1889
     86  C         12.2160    6.9540   11.5470 C.2    76  SER76       0.2288
     87  O         13.3580    6.5550   11.3250 O.2    76  SER76      -0.2866
     88  CB        10.2730    6.5820   10.0120 C.3    76  SER76       0.2089
     89  OG        10.8100    5.4760    9.3040 O.3    76  SER76      -0.2183
     90  N         11.7030    4.6110   15.4250 N.3    78  THR78      -0.1218
     91  CA        10.8490    3.9280   16.3730 C.3    78  THR78       0.1862
     92  C         11.5080    3.9170   17.7390 C.2    78  THR78       0.2287
     93  O         12.7160    3.6800   17.8460 O.2    78  THR78      -0.2866
     94  CB        10.5940    2.4800   15.9330 C.3    78  THR78       0.1770
     95  OG1        9.9260    2.4990   14.6650 O.3    78  THR78      -0.2211
     96  CG2        9.7300    1.7560   16.9480 C.3    78  THR78       0.0375
     97  N         11.0750    1.9430   21.4370 N.3    80  TRP80      -0.1241
     98  CA        10.4310    0.9200   22.2240 C.3    80  TRP80       0.1605
     99  C         10.5920    1.2350   23.6950 C.2    80  TRP80       0.2264
    100  O         11.6990    1.4920   24.1570 O.2    80  TRP80      -0.2867
    101  CB        11.0450   -0.4540   21.9430 C.3    80  TRP80       0.0550
    102  CG        10.7580   -1.0860   20.6030 C.ar   80  TRP80       0.0003
    103  CD1        9.8640   -2.1080   20.3560 C.ar   80  TRP80       0.0946
    104  CD2       11.4180   -0.8270   19.3490 C.ar   80  TRP80       0.0152
    105  NE1        9.9120   -2.4640   19.0260 N.ar   80  TRP80      -0.2442
    106  CE2       10.8580   -1.7010   18.3940 C.ar   80  TRP80       0.0810
    107  CE3       12.4180    0.0630   18.9410 C.ar   80  TRP80       0.0012
    108  CZ2       11.2560   -1.7030   17.0550 C.ar   80  TRP80       0.0191
    109  CZ3       12.8180    0.0510   17.6060 C.ar   80  TRP80       0.0001
    110  CH2       12.2310   -0.8170   16.6840 C.ar   80  TRP80       0.0015
    111  N          5.5300    0.5600   21.4290 N.3    96  TRP96      -0.1241
    112  CA         6.4260    1.3920   20.6320 C.3    96  TRP96       0.1605
    113  C          5.6970    2.5300   19.9470 C.2    96  TRP96       0.2264
    114  O          4.4820    2.4700   19.7660 O.2    96  TRP96      -0.2867
    115  CB         7.1740    0.5560   19.5890 C.3    96  TRP96       0.0550
    116  CG         6.3290   -0.3650   18.7280 C.ar   96  TRP96       0.0003
    117  CD1        6.1770   -1.7250   18.8740 C.ar   96  TRP96       0.0946
    118  CD2        5.5710   -0.0070   17.5680 C.ar   96  TRP96       0.0152
    119  NE1        5.3560   -2.2170   17.9040 N.ar   96  TRP96      -0.2442
    120  CE2        4.9750   -1.1860   17.0800 C.ar   96  TRP96       0.0810
    121  CE3        5.3560    1.1930   16.8850 C.ar   96  TRP96       0.0012
    122  CZ2        4.1580   -1.1950   15.9550 C.ar   96  TRP96       0.0191
    123  CZ3        4.5500    1.1880   15.7810 C.ar   96  TRP96       0.0001
    124  CH2        3.9540    0.0050   15.3190 C.ar   96  TRP96       0.0015
    125  N          6.2950    4.8710   16.4090 N.3    98  LEU98      -0.1245
    126  CA         7.0270    5.0740   15.1750 C.3    98  LEU98       0.1561
    127  C          6.6190    6.4340   14.6220 C.2    98  LEU98       0.2260
    128  O          5.4640    6.6340   14.2710 O.2    98  LEU98      -0.2867
    129  CB         6.7190    3.9500   14.1590 C.3    98  LEU98       0.0270
    130  CG         7.5250    3.8420   12.8540 C.3    98  LEU98       0.0019
    131  CD1        7.1280    2.5550   12.1220 C.3    98  LEU98       0.0001
    132  CD2        7.3560    5.0350   11.9130 C.3    98  LEU98       0.0001
    133  N          7.3210    9.2710   11.5840 N.3   100  TYR100     -0.1241
    134  CA         8.0100    9.5520   10.3430 C.3   100  TYR100      0.1605
    135  C          7.9680   11.0380   10.0650 C.2   100  TYR100      0.2264
    136  O          7.0590   11.7210   10.5210 O.2   100  TYR100     -0.2867
    137  CB         7.4090    8.7540    9.1830 C.3   100  TYR100      0.0534
    138  CG         5.9940    9.0900    8.7770 C.ar  100  TYR100     -0.0201
    139  CD1        5.7380    9.7920    7.6000 C.ar  100  TYR100     -0.0009
    140  CD2        4.9090    8.6660    9.5350 C.ar  100  TYR100     -0.0009
    141  CE1        4.4370   10.0810    7.2000 C.ar  100  TYR100      0.0417
    142  CE2        3.6020    8.9550    9.1430 C.ar  100  TYR100      0.0417
    143  CZ         3.3760    9.6620    7.9780 C.ar  100  TYR100      0.1957
    144  OH         2.0840    9.9520    7.5840 O.3   100  TYR100     -0.2866
    145  N          2.7210    6.2370   14.5630 N.3   112  LEU112     -0.1245
    146  CA         2.0480    4.9680   14.7930 C.3   112  LEU112      0.1561
    147  C          2.3850    4.4410   16.1820 C.2   112  LEU112      0.2260
    148  O          3.4730    4.7020   16.7050 O.2   112  LEU112     -0.2867
    149  CB         2.4650    3.9260   13.7420 C.3   112  LEU112      0.0270
    150  CG         2.0150    4.0100   12.2830 C.3   112  LEU112      0.0019
    151  CD1        2.8470    3.0390   11.4830 C.3   112  LEU112      0.0001
    152  CD2        0.5640    3.6370   12.1360 C.3   112  LEU112      0.0001
    153  N          5.2970   -4.7640   20.8790 N.3   116  ASP116     -0.1239
    154  CA         6.1400   -5.8980   20.5040 C.3   116  ASP116      0.1674
    155  C          6.4960   -6.6830   21.7480 C.2   116  ASP116      0.2266
    156  O          6.8500   -6.0980   22.7760 O.2   116  ASP116     -0.2867
    157  CB         7.4450   -5.4450   19.8650 C.3   116  ASP116      0.1410
    158  CG         7.2840   -4.9530   18.4640 C.2   116  ASP116      0.3668
    159  OD1        6.1810   -5.0650   17.8790 O.co2 116  ASP116     -0.2456
    160  OD2        8.2980   -4.4780   17.9390 O.co2 116  ASP116     -0.2456
@<TRIPOS>BOND
     1    58    57    2
     2    59    57   am
     3    57    56    1
     4    56    53    1
     5    53    54    1
     6    53    52    1
     7    51    50    2
     8    63    62    2
     9    54    60   am
    10    54    55    2
    11    60    61    1
    12    62    61    1
    13    52    50   am
    14    80    79    1
    15    80    83    1
    16    80    81    1
    17    50    49    1
    18    61    64    1
    19    81    82    2
    20    49    48    1
    21    48    43   am
    22   141   139   ar
    23   141   143   ar
    24   144   143    1
    25   139   138   ar
    26    68    67    2
    27    43    42    1
    28    43    44    2
    29   143   142   ar
    30    42    45    1
    31    42    41    1
    32   138   137    1
    33   138   140   ar
    34    38    37    2
    35    67    66    1
    36    45    46    1
    37    45    47    1
    38   142   140   ar
    39   137   134    1
    40    89    88    1
    41    84    85    1
    42    69    66    1
    43    69    70    1
    44    37    36    1
    45    88    85    1
    46    66    65    1
    47   135   134    1
    48   135   136    2
    49   134   133    1
    50    85    86    1
    51    40    39    1
    52    39    36    1
    53    70    72   ar
    54    70    71   ar
    55    75    72   ar
    56    75    77   ar
    57    36    35    1
    58    72    74   ar
    59    87    86    2
    60   151   150    1
    61    77    78   ar
    62    71    73   ar
    63    12    11    2
    64   132   130    1
    65   131   130    1
    66   152   150    1
    67   150   149    1
    68    74    73   ar
    69    74    76   ar
    70    26    25    2
    71    78    76   ar
    72   130   129    1
    73    11    10    1
    74    22    21    1
    75    13    10    1
    76    13    14    1
    77    16    14    1
    78    25    24    1
    79    10     9    1
    80   149   146    1
    81    17    18    1
    82    18    21    1
    83    18    19    1
    84    15    14    1
    85   129   126    1
    86   128   127    2
    87   145   146    1
    88    29    31   ar
    89    29    28   ar
    90   127   126    1
    91    95    94    1
    92   146   147    1
    93    19    20    2
    94    31    33   ar
    95    24    23    1
    96    24    27    1
    97   126   125    1
    98   124   123   ar
    99   124   122   ar
   100    27    28    1
   101    90    91    1
   102    28    30   ar
   103     7     6    2
   104   123   121   ar
   105    94    91    1
   106    94    96    1
   107   122   120   ar
   108    33    34    1
   109    33    32   ar
   110   147   148    2
   111    91    92    1
   112     8     6   am
   113   110   108   ar
   114   110   109   ar
   115     6     5    1
   116     4     3    2
   117   121   118   ar
   118    30    32   ar
   119   108   106   ar
   120   120   118   ar
   121   120   119   ar
   122   118   116   ar
   123     3     2    1
   124   109   107   ar
   125    92    93    2
   126   159   158   ar
   127   119   117   ar
   128   160   158   ar
   129     1     2    1
   130     5     2    1
   131   106   105   ar
   132   106   104   ar
   133   158   157    1
   134   116   117   ar
   135   116   115    1
   136   107   104   ar
   137   105   103   ar
   138   104   102   ar
   139   115   112    1
   140   114   113    2
   141   157   154    1
   142   113   112    1
   143   103   102   ar
   144   154   153    1
   145   154   155    1
   146   102   101    1
   147   112   111    1
   148    97    98    1
   149   155   156    2
   150   101    98    1
   151    98    99    1
   152    99   100    2
