@<TRIPOS>MOLECULE
tmp/5csfB00.pdb
 104 100 0 0 0
SMALL
GASTEIGER

@<TRIPOS>ATOM
      1  N          9.6380   -0.0930   -6.4070 N.3    43  SER43      -0.1202
      2  CA        10.2570    0.9980   -5.6510 C.3    43  SER43       0.2020
      3  C         11.1440    1.9110   -6.5090 C.2    43  SER43       0.2619
      4  O         11.4960    3.0140   -6.0730 O.2    43  SER43      -0.2717
      5  CB        11.0350    0.4220   -4.4670 C.3    43  SER43       0.2103
      6  OG        12.1400   -0.3670   -4.8720 O.3    43  SER43      -0.2182
      7  N         11.5720    1.4120   -7.6690 N.am   44  HIS44      -0.1961
      8  CA        12.3800    2.2010   -8.6160 C.3    44  HIS44       0.1787
      9  C         11.5810    2.9320   -9.7010 C.2    44  HIS44       0.2620
     10  O         12.1410    3.7520  -10.4290 O.2    44  HIS44      -0.2715
     11  CB        13.4250    1.3330   -9.3170 C.3    44  HIS44       0.0785
     12  CG        14.2720    0.5500   -8.3730 C.ar   44  HIS44       0.0821
     13  ND1       13.9770   -0.7460   -8.0110 N.ar   44  HIS44      -0.2267
     14  CD2       15.3320    0.9200   -7.6170 C.ar   44  HIS44       0.1154
     15  CE1       14.8660   -1.1640   -7.1260 C.ar   44  HIS44       0.1986
     16  NE2       15.6910   -0.1670   -6.8590 N.ar   44  HIS44      -0.2212
     17  N         10.2900    2.6330   -9.8270 N.am   45  PHE45      -0.1960
     18  CA         9.4820    3.2690  -10.8640 C.3    45  PHE45       0.1771
     19  C          8.4270    4.2030  -10.2260 C.2    45  PHE45       0.2619
     20  O          8.1260    5.2660  -10.7720 O.2    45  PHE45      -0.2715
     21  CB         8.8110    2.2240  -11.7670 C.3    45  PHE45       0.0574
     22  CG         9.7890    1.3990  -12.5830 C.ar   45  PHE45      -0.0200
     23  CD1       11.1210    1.7870  -12.7160 C.ar   45  PHE45      -0.0042
     24  CD2        9.3600    0.2790  -13.2860 C.ar   45  PHE45      -0.0042
     25  CE1       12.0310    1.0330  -13.4750 C.ar   45  PHE45      -0.0003
     26  CE2       10.2560   -0.4710  -14.0720 C.ar   45  PHE45      -0.0003
     27  CZ        11.5950   -0.0960  -14.1530 C.ar   45  PHE45      -0.0000
     28  N          7.8180    3.7840   -9.1140 N.am   46  LEU46      -0.1963
     29  CA         6.8460    4.6400   -8.4320 C.3    46  LEU46       0.1728
     30  C          7.3330    5.1720   -7.0840 C.2    46  LEU46       0.2616
     31  O          7.9920    4.4790   -6.2950 O.2    46  LEU46      -0.2715
     32  CB         5.5280    3.8870   -8.2500 C.3    46  LEU46       0.0311
     33  CG         4.9260    3.3510   -9.5510 C.3    46  LEU46       0.0022
     34  CD1        3.6250    2.6450   -9.2940 C.3    46  LEU46       0.0001
     35  CD2        4.7120    4.5020  -10.5130 C.3    46  LEU46       0.0001
     36  N          6.9480    6.4050   -6.7930 N.am   47  GLU47      -0.1977
     37  CA         7.2450    6.9680   -5.5020 C.3    47  GLU47       0.1602
     38  C          6.5090    6.1210   -4.4720 C.2    47  GLU47       0.2287
     39  O          5.4150    5.6280   -4.7480 O.2    47  GLU47      -0.2864
     40  CB         6.8340    8.4390   -5.4870 C.3    47  GLU47       0.0415
     41  CG         7.6310    9.3200   -4.5440 C.3    47  GLU47       0.1163
     42  CD         7.7900   10.7330   -5.0870 C.2    47  GLU47       0.3649
     43  OE1        8.0270   11.6570   -4.2790 O.co2  47  GLU47      -0.2457
     44  OE2        7.7070   10.9090   -6.3310 O.co2  47  GLU47      -0.2457
     45  N         -3.6790    8.0100   -1.1060 N.3    54  VAL54      -0.1245
     46  CA        -2.9930    7.5780   -2.3250 C.3    54  VAL54       0.1561
     47  C         -3.3940    6.1640   -2.7540 C.2    54  VAL54       0.2260
     48  O         -3.6480    5.9180   -3.9290 O.2    54  VAL54      -0.2867
     49  CB        -1.4660    7.6200   -2.1550 C.3    54  VAL54       0.0252
     50  CG1       -0.7940    7.2460   -3.4710 C.3    54  VAL54       0.0019
     51  CG2       -1.0170    9.0090   -1.7110 C.3    54  VAL54       0.0019
     52  N         -6.8640    6.3810   -4.1960 N.3    57  LYS57      -0.1231
     53  CA        -6.9310    6.9370   -5.5450 C.3    57  LYS57       0.1693
     54  C         -6.4730    5.9170   -6.5720 C.2    57  LYS57       0.2591
     55  O         -7.1070    5.7610   -7.6100 O.2    57  LYS57      -0.2718
     56  CB        -6.0840    8.2090   -5.6610 C.3    57  LYS57       0.0285
     57  CG        -6.0290    8.8220   -7.0440 C.3    57  LYS57       0.0035
     58  CD        -7.4120    9.1470   -7.5410 C.3    57  LYS57       0.0206
     59  CE        -7.5080   10.5800   -7.9890 C.3    57  LYS57       0.1093
     60  NZ        -8.9010   10.9110   -8.3890 N.3    57  LYS57      -0.1314
     61  N         -5.3910    5.2040   -6.2750 N.am   58  VAL58      -0.1980
     62  CA        -4.8540    4.2300   -7.2220 C.3    58  VAL58       0.1595
     63  C         -5.8210    3.0730   -7.4990 C.2    58  VAL58       0.2287
     64  O         -6.1440    2.7840   -8.6570 O.2    58  VAL58      -0.2864
     65  CB        -3.5230    3.6240   -6.7090 C.3    58  VAL58       0.0276
     66  CG1       -3.0500    2.5400   -7.6640 C.3    58  VAL58       0.0022
     67  CG2       -2.4510    4.7010   -6.5660 C.3    58  VAL58       0.0022
     68  N         -8.8050    4.0110   -9.6770 N.3    61  THR61      -0.1218
     69  CA        -8.4460    4.0980  -11.1010 C.3    61  THR61       0.1862
     70  C         -8.3980    2.6890  -11.7220 C.2    61  THR61       0.2287
     71  O         -8.7930    2.4970  -12.8720 O.2    61  THR61      -0.2866
     72  CB        -7.0930    4.8420  -11.3190 C.3    61  THR61       0.1770
     73  OG1       -6.0600    4.2140  -10.5560 O.3    61  THR61      -0.2211
     74  CG2       -7.1920    6.2950  -10.8820 C.3    61  THR61       0.0375
     75  N         -0.0400    0.5560  -18.1340 N.3    81  MET81      -0.1245
     76  CA         0.1580    1.9500  -17.7290 C.3    81  MET81       0.1570
     77  C          1.5950    2.2350  -17.2850 C.2    81  MET81       0.2261
     78  O          2.2350    3.1260  -17.8060 O.2    81  MET81      -0.2867
     79  CB        -0.8190    2.3690  -16.6340 C.3    81  MET81       0.0387
     80  CG        -2.2560    2.5550  -17.1150 C.3    81  MET81       0.0595
     81  SD        -3.4480    2.8790  -15.7650 S.3    81  MET81      -0.1393
     82  CE        -4.9750    2.9640  -16.7260 C.3    81  MET81       0.0692
     83  N          4.6320    4.4960  -19.4380 N.3    85  ALA85      -0.1231
     84  CA         5.2070    5.7510  -18.9440 C.3    85  ALA85       0.1694
     85  C          6.7420    5.7160  -18.8890 C.2    85  ALA85       0.2592
     86  O          7.4240    6.6800  -19.2420 O.2    85  ALA85      -0.2718
     87  CB         4.6380    6.0920  -17.5800 C.3    85  ALA85       0.0304
     88  N          7.2630    4.5820  -18.4320 N.am   86  CYS86      -0.1970
     89  CA         8.6960    4.3200  -18.3340 C.3    86  CYS86       0.1712
     90  C          9.2930    4.2900  -19.7130 C.2    86  CYS86       0.2296
     91  O         10.4320    4.6970  -19.9250 O.2    86  CYS86      -0.2864
     92  CB         8.9540    3.0150  -17.5930 C.3    86  CYS86       0.0983
     93  SG         8.4280    3.1100  -15.8580 S.3    86  CYS86      -0.0798
     94  N         11.1800    7.0990  -21.0680 N.3    89  PHE89      -0.1241
     95  CA        12.5600    7.3630  -20.6330 C.3    89  PHE89       0.1605
     96  C         13.4540    6.1840  -21.0260 C.2    89  PHE89       0.2264
     97  O         14.2280    5.6850  -20.2170 O.2    89  PHE89      -0.2867
     98  CB        12.6990    7.6530  -19.1280 C.3    89  PHE89       0.0534
     99  CG        11.8750    8.8110  -18.6450 C.ar   89  PHE89      -0.0203
    100  CD1       11.5940    9.8750  -19.4920 C.ar   89  PHE89      -0.0042
    101  CD2       11.4560    8.8770  -17.3270 C.ar   89  PHE89      -0.0042
    102  CE1       10.8570   10.9570  -19.0500 C.ar   89  PHE89      -0.0003
    103  CE2       10.7220    9.9590  -16.8720 C.ar   89  PHE89      -0.0003
    104  CZ        10.4210   11.0010  -17.7380 C.ar   89  PHE89      -0.0000
@<TRIPOS>BOND
     1    94    95    1
     2    96    95    1
     3    96    97    2
     4    95    98    1
     5    91    90    2
     6    90    89    1
     7   100   102   ar
     8   100    99   ar
     9    83    84    1
    10    86    85    2
    11    98    99    1
    12   102   104   ar
    13    84    85    1
    14    84    87    1
    15    85    88   am
    16    99   101   ar
    17    88    89    1
    18    89    92    1
    19    75    76    1
    20    78    77    2
    21   104   103   ar
    22    76    77    1
    23    76    79    1
    24    92    93    1
    25   101   103   ar
    26    80    79    1
    27    80    81    1
    28    82    81    1
    29    27    26   ar
    30    27    25   ar
    31    26    24   ar
    32    25    23   ar
    33    24    22   ar
    34    71    70    2
    35    23    22   ar
    36    22    21    1
    37    21    18    1
    38    70    69    1
    39    72    69    1
    40    72    74    1
    41    72    73    1
    42    69    68    1
    43    18    19    1
    44    18    17    1
    45    20    19    2
    46    35    33    1
    47    10     9    2
    48    19    28   am
    49    17     9   am
    50     9     8    1
    51    33    34    1
    52    33    32    1
    53    11     8    1
    54    11    12    1
    55    28    29    1
    56    64    63    2
    57     8     7    1
    58    29    32    1
    59    29    30    1
    60    60    59    1
    61    12    13   ar
    62    12    14   ar
    63    13    15   ar
    64    59    58    1
    65     7     3   am
    66    66    65    1
    67    14    16   ar
    68    55    54    2
    69    58    57    1
    70    63    62    1
    71    62    65    1
    72    62    61    1
    73    15    16   ar
    74    30    36   am
    75    30    31    2
    76    57    56    1
    77    36    37    1
    78    65    67    1
    79    54    61   am
    80    54    53    1
    81     3     4    2
    82     3     2    1
    83     1     2    1
    84    44    42   ar
    85    56    53    1
    86     2     5    1
    87    53    52    1
    88    37    40    1
    89    37    38    1
    90    40    41    1
    91    42    41    1
    92    42    43   ar
    93     6     5    1
    94    39    38    2
    95    48    47    2
    96    50    49    1
    97    47    46    1
    98    46    49    1
    99    46    45    1
   100    49    51    1
