@<TRIPOS>MOLECULE
tmp/5cshB02.pdb
 171 163 0 0 0
SMALL
GASTEIGER

@<TRIPOS>ATOM
      1  N          7.8850  125.7530  359.8180 N.3    44  LEU44      -0.1231
      2  CA         7.3490  126.9400  359.1520 C.3    44  LEU44       0.1693
      3  C          8.1260  127.2630  357.8920 C.2    44  LEU44       0.2593
      4  O          7.5790  127.8760  356.9720 O.2    44  LEU44      -0.2718
      5  CB         7.3360  128.1590  360.0870 C.3    44  LEU44       0.0284
      6  CG         6.4290  128.0570  361.3090 C.3    44  LEU44       0.0019
      7  CD1        6.6490  129.2240  362.2360 C.3    44  LEU44       0.0001
      8  CD2        4.9600  127.9960  360.9060 C.3    44  LEU44       0.0001
      9  N          9.3850  126.8440  357.8610 N.am   45  GLY45      -0.1942
     10  CA        10.2770  127.0850  356.7370 C.3    45  GLY45       0.2014
     11  C         11.7230  126.8040  357.0760 C.2    45  GLY45       0.2639
     12  O         12.0530  126.4500  358.2140 O.2    45  GLY45      -0.2714
     13  N         12.5860  126.9270  356.0660 N.am   46  ARG46      -0.1963
     14  CA        14.0210  126.6890  356.1830 C.3    46  ARG46       0.1729
     15  C         14.7720  127.7890  355.4580 C.2    46  ARG46       0.2617
     16  O         14.5530  128.0110  354.2650 O.2    46  ARG46      -0.2715
     17  CB        14.4150  125.2820  355.6590 C.3    46  ARG46       0.0348
     18  CG        13.8530  124.9190  354.2780 C.3    46  ARG46       0.0492
     19  CD        14.4970  123.6840  353.6830 C.3    46  ARG46       0.2205
     20  NE        14.3550  123.6620  352.2250 N.pl3  46  ARG46      -0.0865
     21  CZ        14.8190  122.6980  351.4350 C.cat  46  ARG46       0.5346
     22  NH1       15.4550  121.6530  351.9520 N.pl3  46  ARG46       0.1354
     23  NH2       14.6450  122.7690  350.1210 N.pl3  46  ARG46       0.1354
     24  N         15.5940  128.5140  356.2030 N.am   47  GLY47      -0.1940
     25  CA        16.4140  129.5740  355.6360 C.3    47  GLY47       0.2014
     26  C         17.8080  129.0700  355.3310 C.2    47  GLY47       0.2638
     27  O         18.1260  127.9040  355.5950 O.2    47  GLY47      -0.2714
     28  N         18.6580  129.9490  354.7760 N.am   48  LYS48      -0.1977
     29  CA        20.0500  129.6110  354.4800 C.3    48  LYS48       0.1596
     30  C         20.8450  129.5380  355.7920 C.2    48  LYS48       0.2287
     31  O         21.9150  128.9200  355.8260 O.2    48  LYS48      -0.2864
     32  CB        20.6760  130.6450  353.5230 C.3    48  LYS48       0.0298
     33  CG        20.0960  130.6090  352.1050 C.3    48  LYS48       0.0038
     34  CD        20.8700  131.4870  351.1180 C.3    48  LYS48       0.0206
     35  CE        20.4740  132.9470  351.1590 C.3    48  LYS48       0.1093
     36  NZ        21.2300  133.7500  350.1600 N.3    48  LYS48      -0.1314
     37  N         12.9890  126.9520  361.0320 N.3    52  VAL52      -0.1245
     38  CA        12.0170  127.6780  361.8540 C.3    52  VAL52       0.1561
     39  C         10.8000  126.8000  362.1430 C.2    52  VAL52       0.2260
     40  O         10.2370  126.1950  361.2370 O.2    52  VAL52      -0.2867
     41  CB        11.6430  129.0190  361.1970 C.3    52  VAL52       0.0252
     42  CG1       10.6390  129.7920  362.0440 C.3    52  VAL52       0.0019
     43  CG2       12.8990  129.8730  360.9270 C.3    52  VAL52       0.0019
     44  N          7.6720  130.7570  368.2940 N.3    65  VAL65      -0.1245
     45  CA         8.4240  130.3680  367.1150 C.3    65  VAL65       0.1561
     46  C          9.8470  130.0200  367.5900 C.2    65  VAL65       0.2260
     47  O         10.4350  130.7780  368.3550 O.2    65  VAL65      -0.2867
     48  CB         8.3610  131.4790  366.0360 C.3    65  VAL65       0.0252
     49  CG1        9.5170  131.3780  365.0550 C.3    65  VAL65       0.0019
     50  CG2        7.0200  131.4350  365.3090 C.3    65  VAL65       0.0019
     51  N         10.4770  142.0830  366.1950 N.3    94  ILE94      -0.1245
     52  CA        10.1660  140.7730  366.7560 C.3    94  ILE94       0.1561
     53  C         10.7780  140.6320  368.1710 C.2    94  ILE94       0.2260
     54  O         11.9320  141.0540  368.4110 O.2    94  ILE94      -0.2867
     55  CB        10.6400  139.6430  365.8050 C.3    94  ILE94       0.0252
     56  CG1        9.9310  138.3040  366.1320 C.3    94  ILE94       0.0019
     57  CG2       12.1670  139.5140  365.7430 C.3    94  ILE94       0.0019
     58  CD1        8.4240  138.2630  365.7390 C.3    94  ILE94       0.0001
     59  N         11.0890  133.0850  369.7110 N.3   112  PHE112     -0.1227
     60  CA        10.4380  134.3530  369.4390 C.3   112  PHE112      0.1736
     61  C          8.9390  134.3140  369.7060 C.2   112  PHE112      0.2595
     62  O          8.2850  133.2490  369.6620 O.2   112  PHE112     -0.2718
     63  CB        10.6050  134.6970  367.9510 C.3   112  PHE112      0.0547
     64  CG        12.0360  134.8960  367.5120 C.ar  112  PHE112     -0.0202
     65  CD1       12.6630  136.1220  367.6790 C.ar  112  PHE112     -0.0042
     66  CD2       12.7390  133.8760  366.9050 C.ar  112  PHE112     -0.0042
     67  CE1       13.9780  136.3170  367.2660 C.ar  112  PHE112     -0.0003
     68  CE2       14.0660  134.0630  366.5000 C.ar  112  PHE112     -0.0003
     69  CZ        14.6850  135.2820  366.6930 C.ar  112  PHE112     -0.0000
     70  N          8.3680  135.5220  369.8070 N.am  113  GLU113     -0.1965
     71  CA         6.9160  135.6650  369.8340 C.3   113  GLU113      0.1733
     72  C          6.4140  135.1080  368.4970 C.2   113  GLU113      0.2616
     73  O          7.1100  135.2030  367.4590 O.2   113  GLU113     -0.2715
     74  CB         6.5190  137.1620  369.9850 C.3   113  GLU113      0.0429
     75  CG         6.3640  137.8850  368.6710 C.3   113  GLU113      0.1163
     76  CD         6.0970  139.3690  368.6850 C.2   113  GLU113      0.3649
     77  OE1        4.9210  139.7540  368.4960 O.co2 113  GLU113     -0.2457
     78  OE2        7.0770  140.1450  368.7360 O.co2 113  GLU113     -0.2457
     79  N          5.2270  134.4840  368.5400 N.am  114  HIS114     -0.1959
     80  CA         4.6180  133.9210  367.3510 C.3   114  HIS114      0.1787
     81  C          3.8600  135.0230  366.6240 C.2   114  HIS114      0.2620
     82  O          3.1530  135.7920  367.2660 O.2   114  HIS114     -0.2715
     83  CB         3.6290  132.8080  367.7810 C.3   114  HIS114      0.0785
     84  CG         2.9500  132.1420  366.6220 C.ar  114  HIS114      0.0821
     85  ND1        1.7340  132.5960  366.1500 N.ar  114  HIS114     -0.2267
     86  CD2        3.3800  131.1320  365.8280 C.ar  114  HIS114      0.1154
     87  CE1        1.4450  131.8310  365.1160 C.ar  114  HIS114      0.1986
     88  NE2        2.4100  130.9450  364.8730 N.ar  114  HIS114     -0.2212
     89  N          3.9510  135.0540  365.2790 N.am  115  VAL115     -0.1977
     90  CA         3.1300  135.9140  364.4490 C.3   115  VAL115      0.1596
     91  C          2.3280  135.0190  363.5070 C.2   115  VAL115      0.2287
     92  O          2.9290  134.1830  362.8270 O.2   115  VAL115     -0.2864
     93  CB         3.9490  136.9640  363.6650 C.3   115  VAL115      0.0276
     94  CG1        2.9980  137.8880  362.8980 C.3   115  VAL115      0.0022
     95  CG2        4.8320  137.7780  364.6280 C.3   115  VAL115      0.0022
     96  N          1.4100  134.7850  360.4160 N.3   117  ASN117     -0.1240
     97  CA         1.7790  135.3850  359.1430 C.3   117  ASN117      0.1653
     98  C          0.7950  135.0830  358.0370 C.2   117  ASN117      0.2266
     99  O          0.5720  133.9110  357.7190 O.2   117  ASN117     -0.2867
    100  CB         3.2000  134.9480  358.7350 C.3   117  ASN117      0.1155
    101  CG         3.7400  135.6950  357.5330 C.2   117  ASN117      0.2627
    102  OD1        4.2960  135.1270  356.5870 O.2   117  ASN117     -0.2716
    103  ND2        3.5640  136.9890  357.5410 N.am  117  ASN117     -0.0877
    104  N         13.2990  142.8710  353.3440 N.3   153  LYS153     -0.1245
    105  CA        12.6460  142.2440  352.1960 C.3   153  LYS153      0.1561
    106  C         11.3020  141.6890  352.6810 C.2   153  LYS153      0.2260
    107  O         11.1190  141.4790  353.8920 O.2   153  LYS153     -0.2867
    108  CB        13.5210  141.1040  351.6050 C.3   153  LYS153      0.0271
    109  CG        13.8010  139.9850  352.5820 C.3   153  LYS153      0.0035
    110  CD        14.6800  138.9410  351.9380 C.3   153  LYS153      0.0206
    111  CE        15.0400  137.8310  352.8880 C.3   153  LYS153      0.1093
    112  NZ        15.8000  136.7710  352.1570 N.3   153  LYS153     -0.1314
    113  N          9.9970  138.6780  352.8190 N.3   155  HIS155     -0.1226
    114  CA        10.0700  137.4670  353.6450 C.3   155  HIS155      0.1752
    115  C         10.4950  137.7490  355.0760 C.2   155  HIS155      0.2596
    116  O         10.3380  136.8840  355.9340 O.2   155  HIS155     -0.2718
    117  CB        10.9890  136.4240  353.0170 C.3   155  HIS155      0.0759
    118  CG        10.3080  135.6670  351.9050 C.ar  155  HIS155      0.0818
    119  ND1        8.9540  135.8410  351.6240 N.ar  155  HIS155     -0.2268
    120  CD2       10.8170  134.7630  351.0440 C.ar  155  HIS155      0.1154
    121  CE1        8.6920  135.0340  350.6060 C.ar  155  HIS155      0.1986
    122  NE2        9.7820  134.3680  350.2230 N.ar  155  HIS155     -0.2212
    123  N         11.0890  138.9430  355.3190 N.am  156  ASN156     -0.1974
    124  CA        11.5070  139.3250  356.6690 C.3   156  ASN156      0.1688
    125  C         10.5220  140.2780  357.3440 C.2   156  ASN156      0.2292
    126  O         10.8470  140.8820  358.3760 O.2   156  ASN156     -0.2864
    127  CB        12.9310  139.8810  356.6640 C.3   156  ASN156      0.1181
    128  CG        13.9640  138.7980  356.4700 C.2   156  ASN156      0.2629
    129  OD1       13.6480  137.5890  356.5950 O.2   156  ASN156     -0.2716
    130  ND2       15.1800  139.1920  356.1200 N.am  156  ASN156     -0.0877
    131  N          6.7550  140.0120  358.8750 N.3   158  MET158     -0.1245
    132  CA         5.6110  139.1680  359.1860 C.3   158  MET158      0.1570
    133  C          4.4200  140.0650  359.4210 C.2   158  MET158      0.2261
    134  O          4.5280  141.0690  360.1290 O.2   158  MET158     -0.2867
    135  CB         5.8640  138.3120  360.4380 C.3   158  MET158      0.0387
    136  CG         7.0610  137.3810  360.3380 C.3   158  MET158      0.0595
    137  SD         6.8330  135.9660  359.2370 S.3   158  MET158     -0.1393
    138  CE         7.5590  136.5620  357.6870 C.3   158  MET158      0.0692
    139  N         11.5180  140.8500  361.2220 N.3   169  ILE169     -0.1231
    140  CA        12.2290  139.6780  361.7230 C.3   169  ILE169      0.1692
    141  C         13.6020  139.4890  361.0490 C.2   169  ILE169      0.2592
    142  O         14.0190  140.2870  360.1900 O.2   169  ILE169     -0.2718
    143  CB        11.3730  138.3760  361.5680 C.3   169  ILE169      0.0266
    144  CG1       11.1800  138.0140  360.0480 C.3   169  ILE169      0.0019
    145  CG2       10.0130  138.5130  362.2630 C.3   169  ILE169      0.0020
    146  CD1       10.8510  136.5520  359.7990 C.3   169  ILE169      0.0001
    147  N         14.2450  138.3650  361.4230 N.am  170  ASP170     -0.1974
    148  CA        15.5320  137.9070  360.9080 C.3   170  ASP170      0.1709
    149  C         16.5970  138.9830  360.9520 C.2   170  ASP170      0.2293
    150  O         16.9820  139.5500  359.9180 O.2   170  ASP170     -0.2864
    151  CB        15.4390  137.2660  359.5200 C.3   170  ASP170      0.1436
    152  CG        16.6770  136.4170  359.2170 C.2   170  ASP170      0.3671
    153  OD1       17.5910  136.3260  360.1130 O.co2 170  ASP170     -0.2456
    154  OD2       16.7870  135.9400  358.0770 O.co2 170  ASP170     -0.2456
    155  N         19.3850  140.5890  350.2520 N.3   189  SER189     -0.1217
    156  CA        19.0610  139.6240  349.2210 C.3   189  SER189      0.1889
    157  C         19.1030  140.3480  347.8770 C.2   189  SER189      0.2288
    158  O         18.6670  141.4960  347.8120 O.2   189  SER189     -0.2866
    159  CB        17.7070  138.9970  349.5120 C.3   189  SER189      0.2089
    160  OG        17.7900  138.4870  350.8350 O.3   189  SER189     -0.2183
    161  N         16.9960  143.3400  346.5930 N.3   192  PHE192     -0.1241
    162  CA        16.8680  144.4280  347.5850 C.3   192  PHE192      0.1605
    163  C         18.2180  145.0930  347.9080 C.2   192  PHE192      0.2264
    164  O         18.2700  146.0120  348.7420 O.2   192  PHE192     -0.2867
    165  CB        16.2080  143.8740  348.8810 C.3   192  PHE192      0.0534
    166  CG        14.8920  143.2560  348.5230 C.ar  192  PHE192     -0.0203
    167  CD1       13.7490  144.0540  348.3800 C.ar  192  PHE192     -0.0042
    168  CD2       14.8080  141.8840  348.2520 C.ar  192  PHE192     -0.0042
    169  CE1       12.5450  143.4890  347.9610 C.ar  192  PHE192     -0.0003
    170  CE2       13.6080  141.3330  347.7840 C.ar  192  PHE192     -0.0003
    171  CZ        12.5090  142.1410  347.6440 C.ar  192  PHE192     -0.0000
@<TRIPOS>BOND
     1   161   162    1
     2   162   163    1
     3   162   165    1
     4   171   170   ar
     5   171   169   ar
     6   170   168   ar
     7   158   157    2
     8   157   156    1
     9   163   164    2
    10   169   167   ar
    11   168   166   ar
    12   167   166   ar
    13   166   165    1
    14   156   159    1
    15   156   155    1
    16   159   160    1
    17    23    21    1
    18    36    35    1
    19   122   121   ar
    20   122   120   ar
    21   121   119   ar
    22   120   118   ar
    23    34    35    1
    24    34    33    1
    25    21    22    1
    26    21    20    2
    27   108   105    1
    28   108   109    1
    29   119   118   ar
    30   118   117    1
    31   110   109    1
    32   110   111    1
    33    33    32    1
    34   112   111    1
    35   105   106    1
    36   105   104    1
    37    20    19    1
    38   106   107    2
    39   113   114    1
    40   117   114    1
    41    32    29    1
    42   114   115    1
    43    19    18    1
    44    16    15    2
    45    18    17    1
    46    29    28    1
    47    29    30    1
    48    28    26   am
    49   115   123   am
    50   115   116    2
    51   123   124    1
    52    26    27    2
    53    26    25    1
    54    15    14    1
    55    15    24   am
    56    25    24    1
    57    17    14    1
    58    30    31    2
    59    13    14    1
    60    13    11   am
    61   130   128   am
    62   128   129    2
    63   128   127    1
    64   102   101    2
    65   127   124    1
    66   124   125    1
    67    10    11    1
    68    10     9    1
    69     4     3    2
    70    11    12    2
    71   125   126    2
    72   101   103   am
    73   101   100    1
    74   138   137    1
    75    99    98    2
    76     9     3   am
    77     3     2    1
    78    98    97    1
    79   154   152   ar
    80   100    97    1
    81   131   132    1
    82    97    96    1
    83     2     1    1
    84     2     5    1
    85   132   133    1
    86   132   135    1
    87   152   151    1
    88   152   153   ar
    89   137   136    1
    90   133   134    2
    91   151   148    1
    92   146   144    1
    93   150   149    2
    94   144   143    1
    95     5     6    1
    96   142   141    2
    97   136   135    1
    98     8     6    1
    99   148   149    1
   100   148   147    1
   101    43    41    1
   102    37    38    1
   103   141   147   am
   104   141   140    1
   105    41    38    1
   106    41    42    1
   107   139   140    1
   108    40    39    2
   109     6     7    1
   110   143   140    1
   111   143   145    1
   112    38    39    1
   113    92    91    2
   114    94    93    1
   115    91    90    1
   116    93    90    1
   117    93    95    1
   118    90    89    1
   119    88    87   ar
   120    88    86   ar
   121    49    48    1
   122    87    85   ar
   123    89    81   am
   124    50    48    1
   125    58    56    1
   126    57    55    1
   127    55    56    1
   128    55    52    1
   129    86    84   ar
   130    48    45    1
   131    85    84   ar
   132    51    52    1
   133    68    69   ar
   134    68    66   ar
   135    84    83    1
   136    81    82    2
   137    81    80    1
   138    69    67   ar
   139    52    53    1
   140    66    64   ar
   141    45    46    1
   142    45    44    1
   143    67    65   ar
   144    80    83    1
   145    80    79    1
   146    73    72    2
   147    64    65   ar
   148    64    63    1
   149    46    47    2
   150    63    60    1
   151    53    54    2
   152    77    76   ar
   153    72    79   am
   154    72    71    1
   155    75    76    1
   156    75    74    1
   157    76    78   ar
   158    60    61    1
   159    60    59    1
   160    62    61    2
   161    61    70   am
   162    70    71    1
   163    71    74    1
