@<TRIPOS>MOLECULE
tmp/5csiB00.pdb
 132 128 0 0 0
SMALL
GASTEIGER

@<TRIPOS>ATOM
      1  N          3.6460   -2.2720   -4.8890 N.3    38  ILE38      -0.1245
      2  CA         4.2660   -1.1040   -5.4930 C.3    38  ILE38       0.1561
      3  C          5.5140   -0.6770   -4.7220 C.2    38  ILE38       0.2260
      4  O          6.5490   -0.3740   -5.3240 O.2    38  ILE38      -0.2867
      5  CB         3.2740    0.0580   -5.5660 C.3    38  ILE38       0.0252
      6  CG1        2.1740   -0.2540   -6.5790 C.3    38  ILE38       0.0019
      7  CG2        3.9800    1.3670   -5.9150 C.3    38  ILE38       0.0019
      8  CD1        1.0640    0.7660   -6.5760 C.3    38  ILE38       0.0001
      9  N         10.0330   -0.0680   -6.6490 N.3    43  SER43      -0.1202
     10  CA        10.6440    1.0470   -5.9440 C.3    43  SER43       0.2020
     11  C         11.5610    1.8750   -6.8500 C.2    43  SER43       0.2619
     12  O         11.9010    3.0080   -6.5190 O.2    43  SER43      -0.2717
     13  CB        11.4210    0.5390   -4.7310 C.3    43  SER43       0.2103
     14  OG        12.5080   -0.2670   -5.1500 O.3    43  SER43      -0.2182
     15  N         11.9490    1.3220   -7.9940 N.am   44  HIS44      -0.1961
     16  CA        12.8090    2.0640   -8.9160 C.3    44  HIS44       0.1787
     17  C         12.0300    2.7970  -10.0150 C.2    44  HIS44       0.2620
     18  O         12.5840    3.6510  -10.7010 O.2    44  HIS44      -0.2715
     19  CB        13.8340    1.1290   -9.5510 C.3    44  HIS44       0.0785
     20  CG        14.5910    0.3080   -8.5570 C.ar   44  HIS44       0.0821
     21  ND1       14.1790   -0.9450   -8.1620 N.ar   44  HIS44      -0.2267
     22  CD2       15.7350    0.5640   -7.8790 C.ar   44  HIS44       0.1154
     23  CE1       15.0390   -1.4290   -7.2830 C.ar   44  HIS44       0.1986
     24  NE2       15.9920   -0.5350   -7.0930 N.ar   44  HIS44      -0.2212
     25  N         10.7520    2.4750  -10.1760 N.am   45  PHE45      -0.1960
     26  CA         9.9380    3.1050  -11.2200 C.3    45  PHE45       0.1771
     27  C          8.8890    4.0610  -10.6380 C.2    45  PHE45       0.2619
     28  O          8.6140    5.1130  -11.2160 O.2    45  PHE45      -0.2715
     29  CB         9.2370    2.0430  -12.0820 C.3    45  PHE45       0.0574
     30  CG        10.1800    1.1650  -12.8840 C.ar   45  PHE45      -0.0200
     31  CD1       11.5030    1.5200  -13.0900 C.ar   45  PHE45      -0.0042
     32  CD2        9.7240   -0.0220  -13.4380 C.ar   45  PHE45      -0.0042
     33  CE1       12.3550    0.7000  -13.8280 C.ar   45  PHE45      -0.0003
     34  CE2       10.5730   -0.8400  -14.1830 C.ar   45  PHE45      -0.0003
     35  CZ        11.8800   -0.4840  -14.3730 C.ar   45  PHE45      -0.0000
     36  N          8.3060    3.6920   -9.4980 N.am   46  LEU46      -0.1963
     37  CA         7.2920    4.5180   -8.8490 C.3    46  LEU46       0.1728
     38  C          7.7350    5.0580   -7.4930 C.2    46  LEU46       0.2616
     39  O          8.3880    4.3600   -6.7200 O.2    46  LEU46      -0.2715
     40  CB         6.0030    3.7220   -8.6600 C.3    46  LEU46       0.0311
     41  CG         5.3820    3.1460   -9.9270 C.3    46  LEU46       0.0022
     42  CD1        4.0580    2.4700   -9.5930 C.3    46  LEU46       0.0001
     43  CD2        5.1980    4.2450  -10.9470 C.3    46  LEU46       0.0001
     44  N          7.3580    6.2980   -7.2050 N.am   47  GLU47      -0.1963
     45  CA         7.6010    6.8690   -5.8950 C.3    47  GLU47       0.1733
     46  C          6.8570    6.0570   -4.8450 C.2    47  GLU47       0.2616
     47  O          5.7670    5.5510   -5.1050 O.2    47  GLU47      -0.2715
     48  CB         7.1790    8.3370   -5.8570 C.3    47  GLU47       0.0429
     49  CG         8.3450    9.2800   -5.6240 C.3    47  GLU47       0.1163
     50  CD         8.0430   10.7000   -6.0400 C.2    47  GLU47       0.3649
     51  OE1        6.9600   11.2060   -5.6820 O.co2  47  GLU47      -0.2457
     52  OE2        8.8920   11.3050   -6.7300 O.co2  47  GLU47      -0.2457
     53  N          7.4690    5.9040   -3.6740 N.am   48  GLU48      -0.1963
     54  CA         6.8660    5.1390   -2.5880 C.3    48  GLU48       0.1733
     55  C          5.4770    5.6570   -2.2610 C.2    48  GLU48       0.2616
     56  O          5.2340    6.8570   -2.3230 O.2    48  GLU48      -0.2715
     57  CB         7.7430    5.2020   -1.3400 C.3    48  GLU48       0.0429
     58  CG         7.2180    4.3940   -0.1750 C.3    48  GLU48       0.1163
     59  CD         8.1500    4.4370    1.0150 C.2    48  GLU48       0.3649
     60  OE1        9.2220    5.0630    0.9040 O.co2  48  GLU48      -0.2457
     61  OE2        7.8100    3.8510    2.0590 O.co2  48  GLU48      -0.2457
     62  N          4.5620    4.7520   -1.9320 N.am   49  ILE49      -0.1977
     63  CA         3.2530    5.1670   -1.4440 C.3    49  ILE49       0.1596
     64  C          3.2480    5.2730    0.0670 C.2    49  ILE49       0.2287
     65  O          3.4330    4.2790    0.7700 O.2    49  ILE49      -0.2864
     66  CB         2.1500    4.2030   -1.8460 C.3    49  ILE49       0.0276
     67  CG1        2.0670    4.0970   -3.3670 C.3    49  ILE49       0.0022
     68  CG2        0.8290    4.6830   -1.2810 C.3    49  ILE49       0.0022
     69  CD1        1.1250    3.0320   -3.8090 C.3    49  ILE49       0.0001
     70  N         -3.4700    7.9800   -1.8800 N.3    54  VAL54      -0.1245
     71  CA        -2.7950    7.5650   -3.0950 C.3    54  VAL54       0.1561
     72  C         -3.1840    6.1420   -3.4800 C.2    54  VAL54       0.2260
     73  O         -3.4650    5.8640   -4.6480 O.2    54  VAL54      -0.2867
     74  CB        -1.2820    7.6640   -2.9410 C.3    54  VAL54       0.0252
     75  CG1       -0.6110    7.4400   -4.2710 C.3    54  VAL54       0.0019
     76  CG2       -0.9170    9.0220   -2.3670 C.3    54  VAL54       0.0019
     77  N         -6.7530    6.2330   -4.8020 N.3    57  LYS57      -0.1231
     78  CA        -6.8100    6.7370   -6.1740 C.3    57  LYS57       0.1693
     79  C         -6.3360    5.7000   -7.1830 C.2    57  LYS57       0.2591
     80  O         -6.9480    5.5270   -8.2410 O.2    57  LYS57      -0.2718
     81  CB        -5.9770    8.0130   -6.3140 C.3    57  LYS57       0.0285
     82  CG        -5.9890    8.6880   -7.6570 C.3    57  LYS57       0.0035
     83  CD        -7.3160    9.3440   -7.8680 C.3    57  LYS57       0.0206
     84  CE        -7.2720   10.2790   -9.0800 C.3    57  LYS57       0.1093
     85  NZ        -7.2450    9.5460  -10.3330 N.3    57  LYS57      -0.1314
     86  N         -5.2470    5.0110   -6.8580 N.am   58  VAL58      -0.1980
     87  CA        -4.6940    4.0180   -7.7720 C.3    58  VAL58       0.1595
     88  C         -5.6800    2.8760   -7.9510 C.2    58  VAL58       0.2287
     89  O         -6.0500    2.5340   -9.0740 O.2    58  VAL58      -0.2864
     90  CB        -3.3410    3.4610   -7.2790 C.3    58  VAL58       0.0276
     91  CG1       -2.8890    2.3240   -8.1730 C.3    58  VAL58       0.0022
     92  CG2       -2.2910    4.5510   -7.2690 C.3    58  VAL58       0.0022
     93  N         -2.5260   -2.2570  -15.3190 N.3    78  PHE78      -0.1241
     94  CA        -1.6210   -1.4640  -14.4960 C.3    78  PHE78       0.1605
     95  C         -0.1890   -1.5900  -15.0210 C.2    78  PHE78       0.2264
     96  O          0.4960   -0.5870  -15.2300 O.2    78  PHE78      -0.2867
     97  CB        -1.6870   -1.9020  -13.0280 C.3    78  PHE78       0.0534
     98  CG        -0.7430   -1.1450  -12.1170 C.ar   78  PHE78      -0.0203
     99  CD1       -0.8540    0.2310  -11.9680 C.ar   78  PHE78      -0.0042
    100  CD2        0.2290   -1.8170  -11.3860 C.ar   78  PHE78      -0.0042
    101  CE1       -0.0010    0.9320  -11.1270 C.ar   78  PHE78      -0.0003
    102  CE2        1.0910   -1.1190  -10.5380 C.ar   78  PHE78      -0.0003
    103  CZ         0.9730    0.2570  -10.4120 C.ar   78  PHE78      -0.0000
    104  N          2.2150    1.4270  -16.4590 N.3    82  VAL82      -0.1245
    105  CA         3.5290    1.7580  -15.9130 C.3    82  VAL82       0.1561
    106  C          4.6420    1.5610  -16.9340 C.2    82  VAL82       0.2260
    107  O          5.4600    2.4470  -17.1480 O.2    82  VAL82      -0.2867
    108  CB         3.8620    0.9080  -14.6740 C.3    82  VAL82       0.0252
    109  CG1        5.2130    1.3300  -14.0930 C.3    82  VAL82       0.0019
    110  CG2        2.7520    1.0330  -13.6330 C.3    82  VAL82       0.0019
    111  N          4.7060    4.2250  -19.5090 N.3    85  ALA85      -0.1231
    112  CA         5.2500    5.4870  -19.0130 C.3    85  ALA85       0.1694
    113  C          6.7770    5.4380  -18.9530 C.2    85  ALA85       0.2592
    114  O          7.4500    6.3700  -19.3820 O.2    85  ALA85      -0.2718
    115  CB         4.6740    5.8180  -17.6540 C.3    85  ALA85       0.0304
    116  N          7.3150    4.3420  -18.4260 N.am   86  CYS86      -0.1970
    117  CA         8.7600    4.1460  -18.3540 C.3    86  CYS86       0.1712
    118  C          9.3990    4.1040  -19.7350 C.2    86  CYS86       0.2296
    119  O         10.5110    4.5880  -19.9280 O.2    86  CYS86      -0.2864
    120  CB         9.0870    2.8550  -17.6040 C.3    86  CYS86       0.0983
    121  SG         8.6620    2.8820  -15.8520 S.3    86  CYS86      -0.0798
    122  N         11.1220    7.1570  -20.9560 N.3    89  PHE89      -0.1241
    123  CA        12.4070    7.5400  -20.3720 C.3    89  PHE89       0.1605
    124  C         13.4850    6.5130  -20.7170 C.2    89  PHE89       0.2264
    125  O         14.2950    6.1500  -19.8620 O.2    89  PHE89      -0.2867
    126  CB        12.3150    7.6790  -18.8420 C.3    89  PHE89       0.0534
    127  CG        11.3170    8.7120  -18.3520 C.ar   89  PHE89      -0.0203
    128  CD1       10.5240    9.4390  -19.2310 C.ar   89  PHE89      -0.0042
    129  CD2       11.1860    8.9540  -16.9910 C.ar   89  PHE89      -0.0042
    130  CE1        9.6150   10.3750  -18.7620 C.ar   89  PHE89      -0.0003
    131  CE2       10.2840    9.8910  -16.5180 C.ar   89  PHE89      -0.0003
    132  CZ         9.4980   10.6020  -17.4040 C.ar   89  PHE89      -0.0000
@<TRIPOS>BOND
     1   122   123    1
     2   124   123    1
     3   124   125    2
     4   123   126    1
     5   119   118    2
     6   118   117    1
     7   111   112    1
     8   114   113    2
     9   128   130   ar
    10   128   127   ar
    11   112   113    1
    12   112   115    1
    13   113   116   am
    14   126   127    1
    15   130   132   ar
    16   116   117    1
    17   117   120    1
    18   127   129   ar
    19   120   121    1
    20   132   131   ar
    21   107   106    2
    22   129   131   ar
    23   106   105    1
    24   104   105    1
    25   105   108    1
    26    93    94    1
    27    96    95    2
    28    95    94    1
    29   108   109    1
    30   108   110    1
    31    94    97    1
    32    35    34   ar
    33    35    33   ar
    34    34    32   ar
    35    33    31   ar
    36    32    30   ar
    37    31    30   ar
    38    97    98    1
    39    30    29    1
    40    98    99   ar
    41    98   100   ar
    42    29    26    1
    43    99   101   ar
    44   100   102   ar
    45    26    27    1
    46    26    25    1
    47    28    27    2
    48   101   103   ar
    49    43    41    1
    50    18    17    2
    51    27    36   am
    52   102   103   ar
    53    85    84    1
    54    25    17   am
    55    17    16    1
    56    41    42    1
    57    41    40    1
    58    19    16    1
    59    19    20    1
    60    36    37    1
    61    84    83    1
    62    89    88    2
    63    16    15    1
    64    37    40    1
    65    37    38    1
    66    20    21   ar
    67    20    22   ar
    68    80    79    2
    69    91    90    1
    70    21    23   ar
    71    15    11   am
    72    88    87    1
    73    22    24   ar
    74    83    82    1
    75    87    90    1
    76    87    86    1
    77    82    81    1
    78    38    44   am
    79    38    39    2
    80    23    24   ar
    81    90    92    1
    82    44    45    1
    83    79    86   am
    84    79    78    1
    85    11    12    2
    86    11    10    1
    87    52    50   ar
    88     9    10    1
    89     6     8    1
    90     6     5    1
    91    81    78    1
    92    78    77    1
    93    50    51   ar
    94    50    49    1
    95    10    13    1
    96     7     5    1
    97    45    48    1
    98    45    46    1
    99    48    49    1
   100     5     2    1
   101     2     1    1
   102     2     3    1
   103     4     3    2
   104    14    13    1
   105    47    46    2
   106    46    53   am
   107    73    72    2
   108    75    74    1
   109    69    67    1
   110    53    54    1
   111    72    71    1
   112    67    66    1
   113    71    74    1
   114    71    70    1
   115    74    76    1
   116    54    55    1
   117    54    57    1
   118    56    55    2
   119    55    62   am
   120    62    63    1
   121    66    63    1
   122    66    68    1
   123    63    64    1
   124    57    58    1
   125    58    59    1
   126    64    65    2
   127    60    59   ar
   128    59    61   ar
