@<TRIPOS>MOLECULE
tmp/5csjA00.pdb
 126 120 0 0 0
SMALL
GASTEIGER

@<TRIPOS>ATOM
      1  N        -15.9290  -16.7730   33.1160 N.3    40  ILE40      -0.1245
      2  CA       -15.0130  -17.8790   32.8790 C.3    40  ILE40       0.1561
      3  C        -15.5660  -19.2380   33.2590 C.2    40  ILE40       0.2260
      4  O        -15.4270  -20.1880   32.4970 O.2    40  ILE40      -0.2867
      5  CB       -13.7230  -17.6900   33.6290 C.3    40  ILE40       0.0252
      6  CG1      -12.9490  -16.5500   33.0030 C.3    40  ILE40       0.0019
      7  CG2      -12.8760  -18.9410   33.5520 C.3    40  ILE40       0.0019
      8  CD1      -11.7730  -16.1080   33.8280 C.3    40  ILE40       0.0001
      9  N        -15.1300  -25.2960   28.6680 N.3    46  HIS46      -0.1226
     10  CA       -14.5270  -26.3180   27.8330 C.3    46  HIS46       0.1752
     11  C        -13.0940  -25.9510   27.4740 C.2    46  HIS46       0.2596
     12  O        -12.3050  -26.7960   27.0680 O.2    46  HIS46      -0.2718
     13  CB       -15.3440  -26.4610   26.5590 C.3    46  HIS46       0.0759
     14  CG       -16.7440  -26.9340   26.7780 C.ar   46  HIS46       0.0818
     15  ND1      -17.8090  -26.0650   26.8690 N.ar   46  HIS46      -0.2268
     16  CD2      -17.2760  -28.1740   26.7890 C.ar   46  HIS46       0.1154
     17  CE1      -18.9300  -26.7460   27.0030 C.ar   46  HIS46       0.1986
     18  NE2      -18.6350  -28.0290   26.9410 N.ar   46  HIS46      -0.2212
     19  N        -12.7660  -24.6800   27.6440 N.am   47  PHE47      -0.1962
     20  CA       -11.4600  -24.1650   27.2780 C.3    47  PHE47       0.1771
     21  C        -10.5660  -23.8930   28.4800 C.2    47  PHE47       0.2619
     22  O         -9.3520  -24.0560   28.4140 O.2    47  PHE47      -0.2715
     23  CB       -11.6690  -22.8960   26.4610 C.3    47  PHE47       0.0574
     24  CG       -12.3110  -23.1530   25.1260 C.ar   47  PHE47      -0.0200
     25  CD1      -12.4690  -24.4470   24.6550 C.ar   47  PHE47      -0.0042
     26  CD2      -12.8550  -22.1160   24.3920 C.ar   47  PHE47      -0.0042
     27  CE1      -13.1040  -24.6960   23.4500 C.ar   47  PHE47      -0.0003
     28  CE2      -13.4920  -22.3610   23.1840 C.ar   47  PHE47      -0.0003
     29  CZ       -13.6160  -23.6540   22.7170 C.ar   47  PHE47      -0.0000
     30  N        -11.1790  -23.4180   29.5610 N.am   48  LEU48      -0.1963
     31  CA       -10.4440  -23.0580   30.7680 C.3    48  LEU48       0.1728
     32  C        -10.8440  -23.8460   32.0020 C.2    48  LEU48       0.2616
     33  O        -12.0070  -24.2030   32.1610 O.2    48  LEU48      -0.2715
     34  CB       -10.6290  -21.5740   31.0380 C.3    48  LEU48       0.0311
     35  CG       -10.0970  -20.7910   29.8500 C.3    48  LEU48       0.0022
     36  CD1      -10.2760  -19.3050   30.0520 C.3    48  LEU48       0.0001
     37  CD2       -8.6310  -21.1450   29.6540 C.3    48  LEU48       0.0001
     38  N         -9.8670  -24.1590   32.8480 N.am   49  GLU49      -0.1977
     39  CA       -10.1540  -24.8650   34.0940 C.3    49  GLU49       0.1602
     40  C        -10.9960  -23.9800   35.0180 C.2    49  GLU49       0.2287
     41  O        -10.7210  -22.7800   35.1320 O.2    49  GLU49      -0.2864
     42  CB        -8.8610  -25.2820   34.7820 C.3    49  GLU49       0.0415
     43  CG        -7.8950  -24.2330   35.1080 C.3    49  GLU49       0.1163
     44  CD        -6.9790  -23.7360   34.0230 C.2    49  GLU49       0.3649
     45  OE1       -7.1920  -23.9210   32.8240 O.co2  49  GLU49      -0.2457
     46  OE2       -5.9290  -23.1270   34.4590 O.co2  49  GLU49      -0.2457
     47  N        -12.5820  -21.8300   37.9390 N.3    51  ILE51      -0.1245
     48  CA       -11.9610  -21.0530   39.0060 C.3    51  ILE51       0.1561
     49  C        -12.7150  -21.1230   40.3230 C.2    51  ILE51       0.2260
     50  O        -13.8930  -20.7700   40.3930 O.2    51  ILE51      -0.2867
     51  CB       -11.8090  -19.5920   38.5890 C.3    51  ILE51       0.0252
     52  CG1      -11.0250  -19.5410   37.2720 C.3    51  ILE51       0.0019
     53  CG2      -11.0750  -18.8100   39.6610 C.3    51  ILE51       0.0019
     54  CD1      -10.7680  -18.1650   36.7410 C.3    51  ILE51       0.0001
     55  N         -6.2720  -17.2910   42.2120 N.3    56  VAL56      -0.1245
     56  CA        -6.3670  -17.3570   40.7470 C.3    56  VAL56       0.1561
     57  C         -6.9800  -16.1530   40.0120 C.2    56  VAL56       0.2260
     58  O         -6.3680  -15.6170   39.0770 O.2    56  VAL56      -0.2867
     59  CB        -7.1970  -18.5940   40.3410 C.3    56  VAL56       0.0252
     60  CG1       -7.4520  -18.5980   38.8480 C.3    56  VAL56       0.0019
     61  CG2       -6.4850  -19.8610   40.7500 C.3    56  VAL56       0.0019
     62  N         -4.8280  -13.1280   39.8830 N.3    59  LYS59      -0.1231
     63  CA        -3.7230  -13.1760   38.9270 C.3    59  LYS59       0.1693
     64  C         -4.1920  -12.9230   37.5070 C.2    59  LYS59       0.2591
     65  O         -3.4790  -12.3030   36.7020 O.2    59  LYS59      -0.2718
     66  CB        -2.9980  -14.5250   38.9920 C.3    59  LYS59       0.0285
     67  CG        -2.5720  -14.8970   40.3870 C.3    59  LYS59       0.0035
     68  CD        -1.2940  -14.2210   40.7700 C.3    59  LYS59       0.0206
     69  CE        -0.7600  -14.6320   42.1350 C.3    59  LYS59       0.1093
     70  NZ        -1.6840  -14.4280   43.2440 N.3    59  LYS59      -0.1314
     71  N         -5.3550  -13.4840   37.1810 N.am   60  VAL60      -0.1980
     72  CA        -5.9610  -13.2760   35.8740 C.3    60  VAL60       0.1595
     73  C         -6.3080  -11.8180   35.6170 C.2    60  VAL60       0.2287
     74  O         -5.9850  -11.2650   34.5600 O.2    60  VAL60      -0.2864
     75  CB        -7.2490  -14.1050   35.7400 C.3    60  VAL60       0.0276
     76  CG1       -7.9260  -13.8170   34.4100 C.3    60  VAL60       0.0022
     77  CG2       -6.9370  -15.5800   35.8730 C.3    60  VAL60       0.0022
     78  N         -3.2130   -9.4620   34.9970 N.3    63  THR63      -0.1218
     79  CA        -2.6820   -9.5470   33.6340 C.3    63  THR63       0.1862
     80  C         -3.5850   -8.8740   32.5710 C.2    63  THR63       0.2287
     81  O         -3.0950   -8.2880   31.6040 O.2    63  THR63      -0.2866
     82  CB        -2.4460  -11.0180   33.2540 C.3    63  THR63       0.1770
     83  OG1       -3.6770  -11.7310   33.3680 O.3    63  THR63      -0.2211
     84  CG2       -1.4790  -11.6660   34.2030 C.3    63  THR63       0.0375
     85  N         -8.4120  -10.6990   26.1210 N.3    80  PHE80      -0.1241
     86  CA        -8.5290  -11.9980   26.7640 C.3    80  PHE80       0.1605
     87  C         -9.0840  -13.0520   25.8000 C.2    80  PHE80       0.2264
     88  O         -8.5240  -14.1490   25.6610 O.2    80  PHE80      -0.2867
     89  CB        -9.4060  -11.8750   28.0120 C.3    80  PHE80       0.0534
     90  CG        -9.7200  -13.1850   28.6730 C.ar   80  PHE80      -0.0203
     91  CD1       -8.7180  -13.9590   29.2190 C.ar   80  PHE80      -0.0042
     92  CD2      -11.0310  -13.6040   28.8270 C.ar   80  PHE80      -0.0042
     93  CE1       -9.0170  -15.1700   29.8420 C.ar   80  PHE80      -0.0003
     94  CE2      -11.3350  -14.8010   29.4650 C.ar   80  PHE80      -0.0003
     95  CZ       -10.3260  -15.5900   29.9630 C.ar   80  PHE80      -0.0000
     96  N         -6.5390  -14.0610   23.2710 N.3    83  MET83      -0.1230
     97  CA        -5.5220  -14.9010   23.8670 C.3    83  MET83       0.1702
     98  C         -5.9750  -16.3600   23.9470 C.2    83  MET83       0.2592
     99  O         -5.2660  -17.2700   23.5340 O.2    83  MET83      -0.2718
    100  CB        -5.2060  -14.3420   25.2560 C.3    83  MET83       0.0401
    101  CG        -3.9530  -14.8160   25.9370 C.3    83  MET83       0.0596
    102  SD        -3.9050  -14.1710   27.6370 S.3    83  MET83      -0.1393
    103  CE        -4.6610  -12.5520   27.4130 C.3    83  MET83       0.0692
    104  N         -7.1530  -16.5660   24.5060 N.am   84  VAL84      -0.1980
    105  CA        -7.7320  -17.8880   24.6390 C.3    84  VAL84       0.1595
    106  C         -7.9690  -18.5790   23.2830 C.2    84  VAL84       0.2287
    107  O         -7.6290  -19.7480   23.1240 O.2    84  VAL84      -0.2864
    108  CB        -9.0610  -17.8120   25.4670 C.3    84  VAL84       0.0276
    109  CG1       -9.7810  -19.1570   25.5020 C.3    84  VAL84       0.0022
    110  CG2       -8.7480  -17.4080   26.8720 C.3    84  VAL84       0.0022
    111  N         -4.8960  -19.8620   21.8080 N.3    87  ALA87      -0.1245
    112  CA        -4.5050  -21.1180   22.4480 C.3    87  ALA87       0.1562
    113  C         -5.2140  -22.4060   21.9500 C.2    87  ALA87       0.2260
    114  O         -4.5580  -23.4250   21.7100 O.2    87  ALA87      -0.2867
    115  CB        -4.7040  -20.9920   23.9340 C.3    87  ALA87       0.0290
    116  N         -3.8780  -25.7120   19.9220 N.3    91  PHE91      -0.1241
    117  CA        -4.1890  -27.0960   20.3040 C.3    91  PHE91       0.1605
    118  C         -5.0890  -27.7890   19.2540 C.2    91  PHE91       0.2264
    119  O         -5.9670  -28.5820   19.5900 O.2    91  PHE91      -0.2867
    120  CB        -4.8600  -27.1450   21.6810 C.3    91  PHE91       0.0534
    121  CG        -4.0090  -27.1300   22.9170 C.ar   91  PHE91      -0.0203
    122  CD1       -2.7050  -26.9380   22.7870 C.ar   91  PHE91      -0.0042
    123  CD2       -4.5530  -27.2160   24.1710 C.ar   91  PHE91      -0.0042
    124  CE1       -1.8470  -26.9000   23.9220 C.ar   91  PHE91      -0.0003
    125  CE2       -3.7060  -27.1290   25.3050 C.ar   91  PHE91      -0.0003
    126  CZ        -2.3840  -27.0100   25.1620 C.ar   91  PHE91      -0.0000
@<TRIPOS>BOND
     1   118   119    2
     2   118   117    1
     3   116   117    1
     4   117   120    1
     5   120   121    1
     6   114   113    2
     7   111   112    1
     8   113   112    1
     9   112   115    1
    10    29    28   ar
    11    29    27   ar
    12   122   121   ar
    13   122   124   ar
    14   121   123   ar
    15   107   106    2
    16    28    26   ar
    17    96    97    1
    18   106   105    1
    19    27    25   ar
    20    99    98    2
    21    97    98    1
    22    97   100    1
    23   124   126   ar
    24    98   104   am
    25   123   125   ar
    26    26    24   ar
    27   104   105    1
    28   105   108    1
    29    25    24   ar
    30    24    23    1
    31   126   125   ar
    32   100   101    1
    33   108   109    1
    34   108   110    1
    35    88    87    2
    36    87    86    1
    37   101   102    1
    38    85    86    1
    39    23    20    1
    40    13    14    1
    41    13    10    1
    42    86    89    1
    43    14    16   ar
    44    14    15   ar
    45    16    18   ar
    46    15    17   ar
    47    18    17   ar
    48    12    11    2
    49    20    19    1
    50    20    21    1
    51   103   102    1
    52    11    19   am
    53    11    10    1
    54    10     9    1
    55    89    90    1
    56    22    21    2
    57    21    30   am
    58    90    92   ar
    59    90    91   ar
    60    92    94   ar
    61    91    93   ar
    62    94    95   ar
    63    30    31    1
    64    37    35    1
    65    93    95   ar
    66    35    36    1
    67    35    34    1
    68    31    34    1
    69    31    32    1
    70    81    80    2
    71    32    33    2
    72    32    38   am
    73     4     3    2
    74    80    79    1
    75    45    44   ar
    76    38    39    1
    77     2     1    1
    78     2     3    1
    79     2     5    1
    80     6     5    1
    81     6     8    1
    82    82    83    1
    83    82    79    1
    84    82    84    1
    85     7     5    1
    86    79    78    1
    87    44    46   ar
    88    44    43    1
    89    39    42    1
    90    39    40    1
    91    76    75    1
    92    74    73    2
    93    42    43    1
    94    40    41    2
    95    73    72    1
    96    75    77    1
    97    75    72    1
    98    72    71    1
    99    65    64    2
   100    54    52    1
   101    71    64   am
   102    52    51    1
   103    64    63    1
   104    47    48    1
   105    51    48    1
   106    51    53    1
   107    60    59    1
   108    63    66    1
   109    63    62    1
   110    66    67    1
   111    48    49    1
   112    58    57    2
   113    57    56    1
   114    49    50    2
   115    59    56    1
   116    59    61    1
   117    67    68    1
   118    56    55    1
   119    68    69    1
   120    69    70    1
