@<TRIPOS>MOLECULE
tmp/5csqA00.pdb
 110 108 0 0 0
SMALL
GASTEIGER

@<TRIPOS>ATOM
      1  N         24.4040   21.0270   35.6600 N.3   123  HIS123     -0.1226
      2  CA        24.1120   19.9370   34.7300 C.3   123  HIS123      0.1752
      3  C         25.3310   19.5560   33.8880 C.2   123  HIS123      0.2597
      4  O         26.3430   20.2550   33.8960 O.2   123  HIS123     -0.2718
      5  CB        22.9670   20.3540   33.7940 C.3   123  HIS123      0.0759
      6  CG        23.3430   21.4350   32.8250 C.ar  123  HIS123      0.0818
      7  ND1       23.2040   22.7750   33.1110 N.ar  123  HIS123     -0.2268
      8  CD2       23.8550   21.3720   31.5740 C.ar  123  HIS123      0.1154
      9  CE1       23.6140   23.4910   32.0790 C.ar  123  HIS123      0.1986
     10  NE2       24.0160   22.6630   31.1320 N.ar  123  HIS123     -0.2212
     11  N         25.1970   18.4630   33.1390 N.am  124  SER124     -0.1938
     12  CA        26.2550   17.9630   32.2610 C.3   124  SER124      0.2055
     13  C         25.9150   18.0630   30.7610 C.2   124  SER124      0.2643
     14  O         26.4840   17.3300   29.9430 O.2   124  SER124     -0.2714
     15  CB        26.5910   16.5160   32.6330 C.3   124  SER124      0.2130
     16  OG        25.4590   15.6760   32.4760 O.3   124  SER124     -0.2179
     17  N         24.9940   18.9650   30.4080 N.am  125  PHE125     -0.1973
     18  CA        24.5860   19.1830   29.0130 C.3   125  PHE125      0.1639
     19  C         25.2820   20.4140   28.4230 C.2   125  PHE125      0.2290
     20  O         24.6370   21.4320   28.1310 O.2   125  PHE125     -0.2864
     21  CB        23.0530   19.3200   28.8850 C.3   125  PHE125      0.0560
     22  CG        22.2870   18.0740   29.2510 C.ar  125  PHE125     -0.0200
     23  CD1       21.9320   17.1500   28.2770 C.ar  125  PHE125     -0.0042
     24  CD2       21.8950   17.8370   30.5700 C.ar  125  PHE125     -0.0042
     25  CE1       21.2200   15.9930   28.6070 C.ar  125  PHE125     -0.0003
     26  CE2       21.1790   16.6800   30.9170 C.ar  125  PHE125     -0.0003
     27  CZ        20.8400   15.7580   29.9380 C.ar  125  PHE125     -0.0000
     28  N         18.8610   13.7560   23.8790 N.3   144  ARG144     -0.1245
     29  CA        18.9190   12.3040   24.0380 C.3   144  ARG144      0.1563
     30  C         17.7140   11.5810   23.4430 C.2   144  ARG144      0.2260
     31  O         17.6480   10.3560   23.4690 O.2   144  ARG144     -0.2867
     32  CB        19.1050   11.9350   25.5170 C.3   144  ARG144      0.0307
     33  CG        20.4500   12.3800   26.1110 C.3   144  ARG144      0.0489
     34  CD        20.4160   12.3950   27.6390 C.3   144  ARG144      0.2205
     35  NE        19.9710   11.1080   28.1790 N.pl3 144  ARG144     -0.0865
     36  CZ        19.2450   10.9540   29.2850 C.cat 144  ARG144      0.5346
     37  NH1       18.8650   12.0120   29.9960 N.pl3 144  ARG144      0.1354
     38  NH2       18.8900    9.7330   29.6740 N.pl3 144  ARG144      0.1354
     39  N         14.5370   11.7410   24.4970 N.3   146  GLU146     -0.1245
     40  CA        13.7100   11.2350   25.5940 C.3   146  GLU146      0.1567
     41  C         12.2270   11.5440   25.3750 C.2   146  GLU146      0.2260
     42  O         11.8840   12.4870   24.6550 O.2   146  GLU146     -0.2867
     43  CB        14.1800   11.8360   26.9150 C.3   146  GLU146      0.0388
     44  CG        15.6770   12.1330   26.9740 C.3   146  GLU146      0.1160
     45  CD        16.0990   12.6870   28.3110 C.2   146  GLU146      0.3649
     46  OE1       15.6330   12.1430   29.3340 O.co2 146  GLU146     -0.2457
     47  OE2       16.8950   13.6510   28.3410 O.co2 146  GLU146     -0.2457
     48  N          9.7190   13.0060   26.7700 N.3   148  GLY148     -0.1210
     49  CA         9.0920   14.3060   27.0200 C.3   148  GLY148      0.1956
     50  C          9.0860   15.2840   25.8500 C.2   148  GLY148      0.2612
     51  O          8.2730   16.2100   25.8190 O.2   148  GLY148     -0.2717
     52  N          9.9800   15.0600   24.8860 N.am  149  GLY149     -0.1956
     53  CA        10.2110   15.9930   23.7780 C.3   149  GLY149      0.1869
     54  C         11.1710   17.0790   24.2000 C.2   149  GLY149      0.2309
     55  O         11.7770   16.9870   25.2790 O.2   149  GLY149     -0.2863
     56  N         12.9240   20.1490   25.7830 N.3   151  TRP151     -0.1241
     57  CA        12.8370   20.5370   27.1800 C.3   151  TRP151      0.1605
     58  C         14.0250   21.4440   27.4320 C.2   151  TRP151      0.2264
     59  O         14.8800   21.6230   26.5610 O.2   151  TRP151     -0.2867
     60  CB        12.8910   19.2890   28.0860 C.3   151  TRP151      0.0550
     61  CG        14.1740   18.5030   27.9540 C.ar  151  TRP151      0.0003
     62  CD1       14.4070   17.4620   27.1200 C.ar  151  TRP151      0.0946
     63  CD2       15.3930   18.7170   28.6780 C.ar  151  TRP151      0.0152
     64  NE1       15.6940   17.0090   27.2670 N.ar  151  TRP151     -0.2442
     65  CE2       16.3250   17.7670   28.2140 C.ar  151  TRP151      0.0810
     66  CE3       15.7850   19.6140   29.6740 C.ar  151  TRP151      0.0012
     67  CZ2       17.6270   17.6870   28.7130 C.ar  151  TRP151      0.0191
     68  CZ3       17.0840   19.5420   30.1620 C.ar  151  TRP151      0.0001
     69  CH2       17.9870   18.5840   29.6770 C.ar  151  TRP151      0.0015
     70  N         16.5140   23.3940   30.9520 N.3   153  PHE153     -0.1241
     71  CA        16.6510   23.7980   32.3300 C.3   153  PHE153      0.1605
     72  C         16.0040   25.1530   32.4570 C.2   153  PHE153      0.2264
     73  O         16.1490   26.0120   31.5860 O.2   153  PHE153     -0.2867
     74  CB        18.1140   23.7710   32.7790 C.3   153  PHE153      0.0534
     75  CG        18.6790   22.3820   32.8170 C.ar  153  PHE153     -0.0203
     76  CD1       18.2750   21.4820   33.7960 C.ar  153  PHE153     -0.0042
     77  CD2       19.5700   21.9570   31.8450 C.ar  153  PHE153     -0.0042
     78  CE1       18.7650   20.1940   33.8170 C.ar  153  PHE153     -0.0003
     79  CE2       20.0760   20.6610   31.8610 C.ar  153  PHE153     -0.0003
     80  CZ        19.6720   19.7820   32.8420 C.ar  153  PHE153     -0.0000
     81  N         13.4870   22.1260   38.1720 N.3   160  ARG160     -0.1231
     82  CA        14.7890   21.8150   37.6040 C.3   160  ARG160      0.1694
     83  C         14.6830   21.8950   36.0800 C.2   160  ARG160      0.2592
     84  O         15.2970   22.7520   35.4360 O.2   160  ARG160     -0.2718
     85  CB        15.2930   20.4400   38.0780 C.3   160  ARG160      0.0321
     86  CG        16.6480   20.0510   37.5090 C.3   160  ARG160      0.0489
     87  CD        17.4520   19.1650   38.4430 C.3   160  ARG160      0.2205
     88  NE        18.6020   18.5890   37.7460 N.pl3 160  ARG160     -0.0865
     89  CZ        19.7600   19.2140   37.5450 C.cat 160  ARG160      0.5346
     90  NH1       19.9520   20.4500   37.9900 N.pl3 160  ARG160      0.1354
     91  NH2       20.7290   18.5970   36.8860 N.pl3 160  ARG160      0.1354
     92  N         13.8600   21.0110   35.5340 N.am  161  TYR161     -0.1976
     93  CA        13.6280   20.9410   34.1200 C.3   161  TYR161      0.1639
     94  C         12.1300   20.7910   33.8620 C.2   161  TYR161      0.2290
     95  O         11.3840   20.2720   34.7010 O.2   161  TYR161     -0.2864
     96  CB        14.4070   19.7660   33.5310 C.3   161  TYR161      0.0560
     97  CG        14.0040   18.4020   34.0600 C.ar  161  TYR161     -0.0198
     98  CD1       14.6020   17.8620   35.2030 C.ar  161  TYR161     -0.0009
     99  CD2       13.0360   17.6400   33.4030 C.ar  161  TYR161     -0.0009
    100  CE1       14.2320   16.6000   35.6810 C.ar  161  TYR161      0.0417
    101  CE2       12.6640   16.3800   33.8660 C.ar  161  TYR161      0.0417
    102  CZ        13.2630   15.8660   35.0030 C.ar  161  TYR161      0.1957
    103  OH        12.8870   14.6210   35.4510 O.3   161  TYR161     -0.2866
    104  N          9.4430   20.2000   30.1790 N.3   163  VAL163     -0.1245
    105  CA         9.2420   20.1690   28.7420 C.3   163  VAL163      0.1561
    106  C          8.7060   21.4950   28.2140 C.2   163  VAL163      0.2260
    107  O          8.1280   22.2980   28.9570 O.2   163  VAL163     -0.2867
    108  CB         8.3560   19.0070   28.3090 C.3   163  VAL163      0.0252
    109  CG1        9.1050   17.7030   28.5130 C.3   163  VAL163      0.0019
    110  CG2        7.0130   19.0170   29.0700 C.3   163  VAL163      0.0019
@<TRIPOS>BOND
     1    30    31    2
     2    30    29    1
     3    53    54    1
     4    53    52    1
     5    28    29    1
     6    29    32    1
     7    54    55    2
     8    39    40    1
     9    42    41    2
    10    52    50   am
    11    41    40    1
    12    32    33    1
    13    40    43    1
    14    56    57    1
    15    51    50    2
    16    50    49    1
    17    33    34    1
    18    59    58    2
    19    48    49    1
    20    43    44    1
    21    44    45    1
    22    62    64   ar
    23    62    61   ar
    24    57    58    1
    25    57    60    1
    26    64    65   ar
    27    34    35    1
    28    61    60    1
    29    61    63   ar
    30    20    19    2
    31    35    36    2
    32   106   105    1
    33   106   107    2
    34    65    63   ar
    35    65    67   ar
    36    23    25   ar
    37    23    22   ar
    38   108   109    1
    39   108   105    1
    40   108   110    1
    41    45    47   ar
    42    45    46   ar
    43    19    18    1
    44    25    27   ar
    45    63    66   ar
    46    67    69   ar
    47   105   104    1
    48    21    18    1
    49    21    22    1
    50    18    17    1
    51    22    24   ar
    52    36    38    1
    53    36    37    1
    54    66    68   ar
    55    69    68   ar
    56    27    26   ar
    57    14    13    2
    58    17    13   am
    59    24    26   ar
    60    13    12    1
    61    70    71    1
    62    10     8   ar
    63    10     9   ar
    64     8     6   ar
    65    73    72    2
    66    77    79   ar
    67    77    75   ar
    68    79    80   ar
    69     9     7   ar
    70    12    15    1
    71    12    11    1
    72    71    72    1
    73    71    74    1
    74    16    15    1
    75    74    75    1
    76    75    76   ar
    77     6     7   ar
    78     6     5    1
    79    80    78   ar
    80    11     3   am
    81    99   101   ar
    82    99    97   ar
    83    96    97    1
    84    96    93    1
    85     5     2    1
    86    76    78   ar
    87    94    93    1
    88    94    95    2
    89   101   102   ar
    90     3     4    2
    91     3     2    1
    92    97    98   ar
    93    93    92    1
    94     2     1    1
    95   102   103    1
    96   102   100   ar
    97    98   100   ar
    98    84    83    2
    99    92    83   am
   100    83    82    1
   101    91    89    1
   102    86    85    1
   103    86    87    1
   104    89    88    2
   105    89    90    1
   106    82    85    1
   107    82    81    1
   108    88    87    1
