@<TRIPOS>MOLECULE
tmp/5cssA00.pdb
 124 117 0 0 0
SMALL
GASTEIGER

@<TRIPOS>ATOM
      1  N         41.0300    2.2190   27.9700 N.3     7  ASN7       -0.1240
      2  CA        41.3500    2.7200   26.6400 C.3     7  ASN7        0.1653
      3  C         41.4930    1.5340   25.7350 C.2     7  ASN7        0.2266
      4  O         42.4030    0.7220   25.9190 O.2     7  ASN7       -0.2867
      5  CB        42.6380    3.5220   26.6860 C.3     7  ASN7        0.1155
      6  CG        43.0320    4.0880   25.3470 C.2     7  ASN7        0.2627
      7  OD1       42.3410    3.9210   24.3270 O.2     7  ASN7       -0.2716
      8  ND2       44.1160    4.8240   25.3500 N.am    7  ASN7       -0.0877
      9  N         42.0550    1.5840   22.5830 N.3     9  LYS9       -0.1245
     10  CA        43.0320    1.8880   21.5370 C.3     9  LYS9        0.1561
     11  C         42.4970    1.4090   20.2020 C.2     9  LYS9        0.2260
     12  O         41.3390    1.6530   19.8900 O.2     9  LYS9       -0.2867
     13  CB        44.3930    1.3190   21.8790 C.3     9  LYS9        0.0271
     14  CG        44.8910    1.8810   23.2170 C.3     9  LYS9        0.0035
     15  CD        46.3570    1.6730   23.4710 C.3     9  LYS9        0.0206
     16  CE        46.7340    2.4030   24.7560 C.3     9  LYS9        0.1093
     17  NZ        48.1880    2.2380   25.0670 N.3     9  LYS9       -0.1314
     18  N         42.9010   -1.9850   19.4500 N.3    11  TYR11      -0.1241
     19  CA        43.1640   -3.4230   19.6430 C.3    11  TYR11       0.1605
     20  C         42.1120   -4.2350   18.9010 C.2    11  TYR11       0.2264
     21  O         40.9120   -3.9250   18.9320 O.2    11  TYR11      -0.2867
     22  CB        43.2050   -3.7890   21.1000 C.3    11  TYR11       0.0534
     23  CG        44.4600   -3.4050   21.8380 C.ar   11  TYR11      -0.0201
     24  CD1       45.6760   -3.8520   21.4520 C.ar   11  TYR11      -0.0009
     25  CD2       44.3930   -2.6370   23.0190 C.ar   11  TYR11      -0.0009
     26  CE1       46.8310   -3.4870   22.1500 C.ar   11  TYR11       0.0417
     27  CE2       45.5400   -2.2760   23.7350 C.ar   11  TYR11       0.0417
     28  CZ        46.7400   -2.7280   23.3020 C.ar   11  TYR11       0.1957
     29  OH        47.8780   -2.3880   23.9980 O.3    11  TYR11      -0.2866
     30  N         39.9370   11.8290   25.4340 N.3    86  ILE86      -0.1245
     31  CA        41.3430   11.8090   25.7350 C.3    86  ILE86       0.1561
     32  C         42.0250   12.7610   24.7190 C.2    86  ILE86       0.2260
     33  O         41.6020   12.8660   23.5940 O.2    86  ILE86      -0.2867
     34  CB        41.9060   10.3900   25.6170 C.3    86  ILE86       0.0252
     35  CG1       41.2570    9.4470   26.6250 C.3    86  ILE86       0.0019
     36  CG2       43.4250   10.3560   25.8060 C.3    86  ILE86       0.0019
     37  CD1       41.5720    7.9480   26.4070 C.3    86  ILE86       0.0001
     38  N         47.4340   11.8300   23.9460 N.3    89  HIS89      -0.1241
     39  CA        47.9850   10.5150   24.2990 C.3    89  HIS89       0.1621
     40  C         49.4160   10.4050   23.6950 C.2    89  HIS89       0.2264
     41  O         49.6940   10.9790   22.6600 O.2    89  HIS89      -0.2867
     42  CB        47.0890    9.3880   23.7800 C.3    89  HIS89       0.0745
     43  CG        47.3500    8.0620   24.4190 C.ar   89  HIS89       0.0817
     44  ND1       48.3150    7.1820   23.9680 N.ar   89  HIS89      -0.2268
     45  CD2       46.7880    7.4720   25.5040 C.ar   89  HIS89       0.1154
     46  CE1       48.3680    6.1330   24.7660 C.ar   89  HIS89       0.1986
     47  NE2       47.4330    6.2780   25.6980 N.ar   89  HIS89      -0.2212
     48  N         51.1540    9.4840   32.0030 N.3   137  GLU137     -0.1245
     49  CA        51.5650    8.1850   31.4590 C.3   137  GLU137      0.1567
     50  C         52.9830    8.2660   30.8790 C.2   137  GLU137      0.2260
     51  O         53.1730    8.8810   29.8490 O.2   137  GLU137     -0.2867
     52  CB        50.6510    7.6860   30.3240 C.3   137  GLU137      0.0388
     53  CG        49.1940    7.5970   30.6140 C.3   137  GLU137      0.1160
     54  CD        48.4430    6.8790   29.4660 C.2   137  GLU137      0.3649
     55  OE1       47.3340    7.3330   29.0660 O.co2 137  GLU137     -0.2457
     56  OE2       48.9350    5.8210   29.0050 O.co2 137  GLU137     -0.2457
     57  N         54.2410    2.2160   28.6320 N.3   142  ILE142     -0.1231
     58  CA        52.9360    1.8970   28.1020 C.3   142  ILE142      0.1692
     59  C         52.9620    0.5290   27.4220 C.2   142  ILE142      0.2592
     60  O         53.8060    0.2500   26.6460 O.2   142  ILE142     -0.2718
     61  CB        52.4650    3.0050   27.1480 C.3   142  ILE142      0.0266
     62  CG1       52.1340    4.2720   27.9420 C.3   142  ILE142      0.0019
     63  CG2       51.2660    2.5240   26.3360 C.3   142  ILE142      0.0020
     64  CD1       52.0270    5.4800   27.0470 C.3   142  ILE142      0.0001
     65  N         51.9810   -0.3080   27.7200 N.am  143  GLY143     -0.1957
     66  CA        51.9240   -1.6550   27.1470 C.3   143  GLY143      0.1869
     67  C         52.7950   -2.6900   27.8510 C.2   143  GLY143      0.2309
     68  O         52.7450   -3.8880   27.5240 O.2   143  GLY143     -0.2863
     69  N         49.8400    3.3970   32.5730 N.3   174  ALA174     -0.1231
     70  CA        50.9550    2.6270   31.9960 C.3   174  ALA174      0.1694
     71  C         51.2540    1.4140   32.8780 C.2   174  ALA174      0.2593
     72  O         51.6680    1.5370   34.0320 O.2   174  ALA174     -0.2718
     73  CB        52.1990    3.4660   31.7600 C.3   174  ALA174      0.0304
     74  N         50.9760    0.2380   32.3170 N.am  175  GLY175     -0.1942
     75  CA        51.3970   -1.0500   32.8920 C.3   175  GLY175      0.2014
     76  C         50.6410   -1.4970   34.1130 C.2   175  GLY175      0.2639
     77  O         51.1100   -2.3750   34.8810 O.2   175  GLY175     -0.2714
     78  N         49.4950   -0.8620   34.3290 N.am  176  ILE176     -0.1963
     79  CA        48.6290   -1.2160   35.4380 C.3   176  ILE176      0.1727
     80  C         47.9400   -2.5360   35.1500 C.2   176  ILE176      0.2616
     81  O         47.2150   -2.6950   34.1230 O.2   176  ILE176     -0.2715
     82  CB        47.6370   -0.1140   35.6790 C.3   176  ILE176      0.0290
     83  CG1       48.4010    1.0750   36.2360 C.3   176  ILE176      0.0022
     84  CG2       46.5550   -0.5890   36.6300 C.3   176  ILE176      0.0023
     85  CD1       47.5490    2.2670   36.5520 C.3   176  ILE176      0.0001
     86  N         48.2190   -3.5000   36.0390 N.am  177  LYS177     -0.1977
     87  CA        47.7320   -4.9070   35.9200 C.3   177  LYS177      0.1596
     88  C         46.9330   -5.4200   37.1000 C.2   177  LYS177      0.2287
     89  O         46.0380   -6.2440   36.9260 O.2   177  LYS177     -0.2864
     90  CB        48.8870   -5.8950   35.7410 C.3   177  LYS177      0.0298
     91  CG        49.8800   -5.5860   34.6270 C.3   177  LYS177      0.0038
     92  CD        49.2540   -5.6920   33.2600 C.3   177  LYS177      0.0206
     93  CE        50.2770   -5.3500   32.1930 C.3   177  LYS177      0.1093
     94  NZ        49.6680   -4.8470   30.9240 N.3   177  LYS177     -0.1314
     95  N         44.2360    4.8960   34.2610 N.3   194  LEU194     -0.1231
     96  CA        43.9790    4.4870   32.8760 C.3   194  LEU194      0.1693
     97  C         44.6310    3.1640   32.6490 C.2   194  LEU194      0.2592
     98  O         45.7590    2.9020   33.1060 O.2   194  LEU194     -0.2718
     99  CB        44.5190    5.4470   31.8760 C.3   194  LEU194      0.0284
    100  CG        44.0660    6.8830   32.0740 C.3   194  LEU194      0.0019
    101  CD1       45.0830    7.5840   32.9590 C.3   194  LEU194      0.0001
    102  CD2       43.8970    7.5830   30.7080 C.3   194  LEU194      0.0001
    103  N         43.9360    2.3450   31.8920 N.am  195  VAL195     -0.1966
    104  CA        44.3920    1.0110   31.6170 C.3   195  VAL195      0.1727
    105  C         43.9720    0.6210   30.2050 C.2   195  VAL195      0.2616
    106  O         42.8900    0.9510   29.7520 O.2   195  VAL195     -0.2715
    107  CB        43.9020    0.0160   32.6920 C.3   195  VAL195      0.0290
    108  CG1       42.3940   -0.0860   32.7150 C.3   195  VAL195      0.0023
    109  CG2       44.4820   -1.3670   32.4280 C.3   195  VAL195      0.0023
    110  N         44.8400   -0.0940   29.5280 N.am  196  ALA196     -0.1963
    111  CA        44.5120   -0.7050   28.2480 C.3   196  ALA196      0.1728
    112  C         44.8060   -2.2120   28.2030 C.2   196  ALA196      0.2617
    113  O         43.9060   -3.0240   28.3460 O.2   196  ALA196     -0.2715
    114  CB        45.2280    0.0170   27.1370 C.3   196  ALA196      0.0334
    115  N         46.0580   -2.5990   27.9700 N.am  197  SER197     -0.1936
    116  CA        46.3890   -4.0340   27.7170 C.3   197  SER197      0.2055
    117  C         45.9750   -4.9570   28.8770 C.2   197  SER197      0.2643
    118  O         45.5250   -6.0700   28.6370 O.2   197  SER197     -0.2714
    119  CB        47.8670   -4.2230   27.4030 C.3   197  SER197      0.2130
    120  OG        48.6610   -3.6290   28.4010 O.3   197  SER197     -0.2179
    121  N         46.0780   -4.4540   30.1070 N.am  198  GLY198     -0.1954
    122  CA        45.7870   -5.2370   31.3120 C.3   198  GLY198      0.1869
    123  C         44.3730   -5.7680   31.3370 C.2   198  GLY198      0.2309
    124  O         44.0580   -6.8190   31.9350 O.2   198  GLY198     -0.2863
@<TRIPOS>BOND
     1    20    21    2
     2    20    19    1
     3    18    19    1
     4    19    22    1
     5    12    11    2
     6    11    10    1
     7    22    23    1
     8    24    23   ar
     9    24    26   ar
    10    10    13    1
    11    10     9    1
    12    23    25   ar
    13    13    14    1
    14    26    28   ar
    15    41    40    2
    16    25    27   ar
    17    14    15    1
    18    28    27   ar
    19    28    29    1
    20    15    16    1
    21    33    32    2
    22    40    39    1
    23    42    39    1
    24    42    43    1
    25    38    39    1
    26    44    43   ar
    27    44    46   ar
    28     7     6    2
    29    43    45   ar
    30    32    31    1
    31    16    17    1
    32    46    47   ar
    33     6     8   am
    34     6     5    1
    35    30    31    1
    36    45    47   ar
    37    34    31    1
    38    34    36    1
    39    34    35    1
    40     3     4    2
    41     3     2    1
    42    63    61    1
    43    37    35    1
    44     2     5    1
    45     2     1    1
    46    60    59    2
    47    64    62    1
    48   114   111    1
    49    66    65    1
    50    66    67    1
    51    61    62    1
    52    61    58    1
    53   119   116    1
    54   119   120    1
    55    59    65   am
    56    59    58    1
    57    68    67    2
    58   116   115    1
    59   116   117    1
    60   115   112   am
    61    58    57    1
    62   112   111    1
    63   112   113    2
    64   111   110    1
    65   118   117    2
    66   117   121   am
    67    56    54   ar
    68    55    54   ar
    69    54    53    1
    70   110   105   am
    71   106   105    2
    72    51    50    2
    73   121   122    1
    74   105   104    1
    75    52    53    1
    76    52    49    1
    77   102   100    1
    78    50    49    1
    79    94    93    1
    80   122   123    1
    81   123   124    2
    82    49    48    1
    83   104   103    1
    84   104   107    1
    85    73    70    1
    86    99   100    1
    87    99    96    1
    88   103    97   am
    89    70    69    1
    90    70    71    1
    91   100   101    1
    92    93    92    1
    93    74    71   am
    94    74    75    1
    95   109   107    1
    96    97    96    1
    97    97    98    2
    98   107   108    1
    99    96    95    1
   100    71    72    2
   101    75    76    1
   102    92    91    1
   103    76    78   am
   104    76    77    2
   105    81    80    2
   106    78    79    1
   107    91    90    1
   108    80    79    1
   109    80    86   am
   110    79    82    1
   111    82    83    1
   112    82    84    1
   113    90    87    1
   114    87    86    1
   115    87    88    1
   116    83    85    1
   117    89    88    2
