@<TRIPOS>MOLECULE
tmp/5cstA01.pdb
 135 131 0 0 0
SMALL
GASTEIGER

@<TRIPOS>ATOM
      1  N        -21.7190  -19.4420   -0.4070 N.3    69  VAL69      -0.1231
      2  CA       -21.3960  -18.1130   -1.0180 C.3    69  VAL69       0.1692
      3  C        -19.9600  -17.7190   -0.6140 C.2    69  VAL69       0.2592
      4  O        -19.6710  -16.5080   -0.5130 O.2    69  VAL69      -0.2718
      5  CB       -22.4050  -16.9490   -0.6850 C.3    69  VAL69       0.0266
      6  CG1      -22.5090  -16.0750   -1.9110 C.3    69  VAL69       0.0020
      7  CG2      -23.8170  -17.4900   -0.2990 C.3    69  VAL69       0.0020
      8  N        -19.1200  -18.7060   -0.2810 N.am   70  TYR70      -0.1962
      9  CA       -17.7140  -18.4180    0.0080 C.3    70  TYR70       0.1771
     10  C        -16.9100  -18.1960   -1.2380 C.2    70  TYR70       0.2619
     11  O        -16.9760  -18.9150   -2.1690 O.2    70  TYR70      -0.2715
     12  CB       -17.0760  -19.5460    0.7590 C.3    70  TYR70       0.0574
     13  CG       -17.4280  -19.6420    2.2350 C.ar   70  TYR70      -0.0198
     14  CD1      -16.5550  -20.2700    3.1080 C.ar   70  TYR70      -0.0009
     15  CD2      -18.6390  -19.2030    2.7510 C.ar   70  TYR70      -0.0009
     16  CE1      -16.8690  -20.4220    4.4660 C.ar   70  TYR70       0.0417
     17  CE2      -18.9840  -19.3330    4.1060 C.ar   70  TYR70       0.0417
     18  CZ       -18.0970  -19.9470    4.9650 C.ar   70  TYR70       0.1957
     19  OH       -18.3830  -20.0890    6.3100 O.3    70  TYR70      -0.2866
     20  N        -16.0910  -17.1560   -1.2520 N.am   71  ILE71      -0.1963
     21  CA       -15.2030  -16.9600   -2.3910 C.3    71  ILE71       0.1727
     22  C        -14.0020  -17.8910   -2.1730 C.2    71  ILE71       0.2616
     23  O        -13.4590  -17.9150   -1.0650 O.2    71  ILE71      -0.2715
     24  CB       -14.7290  -15.4810   -2.4080 C.3    71  ILE71       0.0290
     25  CG1      -15.8910  -14.6420   -2.9720 C.3    71  ILE71       0.0022
     26  CG2      -13.5140  -15.3110   -3.2930 C.3    71  ILE71       0.0023
     27  CD1      -15.6450  -13.1480   -2.8850 C.3    71  ILE71       0.0001
     28  N        -13.6920  -18.6630   -3.1830 N.am   72  MET72      -0.1977
     29  CA       -12.6050  -19.6830   -3.1320 C.3    72  MET72       0.1605
     30  C        -11.2580  -19.1040   -3.7010 C.2    72  MET72       0.2287
     31  O        -10.1720  -19.5370   -3.2780 O.2    72  MET72      -0.2864
     32  CB       -12.9880  -20.8980   -3.9660 C.3    72  MET72       0.0413
     33  CG       -14.1100  -21.8140   -3.3560 C.3    72  MET72       0.0598
     34  SD       -13.6880  -22.4630   -1.7530 S.3    72  MET72      -0.1393
     35  CE       -14.4130  -21.2940   -0.6560 C.3    72  MET72       0.0692
     36  N         -7.3260  -19.1850   -1.9040 N.3    83  PHE83      -0.1241
     37  CA        -7.0770  -19.1470   -0.4710 C.3    83  PHE83       0.1605
     38  C         -6.3220  -20.4210   -0.0230 C.2    83  PHE83       0.2264
     39  O         -6.4910  -21.4920   -0.6590 O.2    83  PHE83      -0.2867
     40  CB        -8.4160  -19.0180    0.3000 C.3    83  PHE83       0.0534
     41  CG        -9.0230  -17.6200    0.2360 C.ar   83  PHE83      -0.0203
     42  CD1       -8.2520  -16.5240    0.6860 C.ar   83  PHE83      -0.0042
     43  CD2      -10.2780  -17.3900   -0.3140 C.ar   83  PHE83      -0.0042
     44  CE1       -8.7170  -15.2180    0.5640 C.ar   83  PHE83      -0.0003
     45  CE2      -10.7990  -16.0990   -0.3060 C.ar   83  PHE83      -0.0003
     46  CZ       -10.0210  -15.0330    0.0690 C.ar   83  PHE83      -0.0000
     47  N         -6.5170  -22.9350    2.0200 N.3    85  GLU85      -0.1245
     48  CA        -7.5370  -23.7280    2.7870 C.3    85  GLU85       0.1567
     49  C         -8.0240  -24.8780    1.9270 C.2    85  GLU85       0.2260
     50  O         -8.0070  -24.8400    0.6660 O.2    85  GLU85      -0.2867
     51  CB        -8.7030  -22.8660    3.2880 C.3    85  GLU85       0.0388
     52  CG        -9.5550  -22.3810    2.1140 C.3    85  GLU85       0.1160
     53  CD       -10.4600  -21.1750    2.3990 C.2    85  GLU85       0.3649
     54  OE1      -10.2520  -20.4320    3.3770 O.co2  85  GLU85      -0.2457
     55  OE2      -11.4210  -21.0000    1.6150 O.co2  85  GLU85      -0.2457
     56  N         -9.5090  -17.6540    3.8250 N.3   109  GLY109     -0.1210
     57  CA       -10.4850  -16.6240    3.4570 C.3   109  GLY109      0.1956
     58  C        -11.3800  -16.1420    4.5670 C.2   109  GLY109      0.2612
     59  O        -12.2570  -15.3580    4.3380 O.2   109  GLY109     -0.2717
     60  N        -11.2070  -16.5560    5.7720 N.am  110  ASN110     -0.1960
     61  CA       -12.1160  -16.0210    6.7690 C.3   110  ASN110      0.1819
     62  C        -11.7240  -14.6470    7.2740 C.2   110  ASN110      0.2621
     63  O        -10.5490  -14.2130    7.1890 O.2   110  ASN110     -0.2715
     64  CB       -12.2320  -16.9340    7.8940 C.3   110  ASN110      0.1195
     65  CG       -10.9550  -17.1510    8.5220 C.2   110  ASN110      0.2630
     66  OD1      -10.1810  -17.9180    7.9970 O.2   110  ASN110     -0.2716
     67  ND2      -10.6910  -16.4740    9.6310 N.am  110  ASN110     -0.0877
     68  N        -12.7380  -13.9020    7.6650 N.am  111  TYR111     -0.1974
     69  CA       -12.5130  -12.5160    8.0560 C.3   111  TYR111      0.1639
     70  C        -11.3900  -12.2990    9.0400 C.2   111  TYR111      0.2290
     71  O        -10.6320  -11.3130    8.8970 O.2   111  TYR111     -0.2864
     72  CB       -13.7860  -11.9940    8.6750 C.3   111  TYR111      0.0560
     73  CG       -14.8730  -11.6460    7.6680 C.ar  111  TYR111     -0.0198
     74  CD1      -14.5960  -10.9920    6.5280 C.ar  111  TYR111     -0.0009
     75  CD2      -16.2240  -11.9240    7.9530 C.ar  111  TYR111     -0.0009
     76  CE1      -15.6190  -10.6000    5.6420 C.ar  111  TYR111      0.0417
     77  CE2      -17.2600  -11.5420    7.1120 C.ar  111  TYR111      0.0417
     78  CZ       -16.9850  -10.8900    5.9350 C.ar  111  TYR111      0.1957
     79  OH       -17.9990  -10.4730    5.0410 O.3   111  TYR111     -0.2866
     80  N        -15.6510   -9.4350   -0.7420 N.3   155  ILE155     -0.1245
     81  CA       -16.5510  -10.4030   -0.0350 C.3   155  ILE155      0.1561
     82  C        -17.8500   -9.6870    0.4070 C.2   155  ILE155      0.2260
     83  O        -18.9400  -10.1660    0.1430 O.2   155  ILE155     -0.2867
     84  CB       -15.8630  -11.0930    1.1250 C.3   155  ILE155      0.0252
     85  CG1      -14.8550  -12.0990    0.5300 C.3   155  ILE155      0.0019
     86  CG2      -16.8620  -11.7420    2.0950 C.3   155  ILE155      0.0019
     87  CD1      -13.8360  -12.5060    1.5720 C.3   155  ILE155      0.0001
     88  N        -20.8710  -11.3080   -1.9360 N.3   159  ALA159     -0.1231
     89  CA       -21.5130  -12.3390   -1.1160 C.3   159  ALA159      0.1694
     90  C        -22.3900  -11.8020   -0.0420 C.2   159  ALA159      0.2591
     91  O        -23.5840  -12.2360    0.1010 O.2   159  ALA159     -0.2718
     92  CB       -20.4680  -13.3090   -0.5050 C.3   159  ALA159      0.0304
     93  N        -21.9340  -10.8240    0.7270 N.am  160  GLU160     -0.1979
     94  CA       -22.6690  -10.4170    1.9350 C.3   160  GLU160      0.1602
     95  C        -23.9170   -9.6100    1.4940 C.2   160  GLU160      0.2287
     96  O        -24.9830   -9.7470    2.0860 O.2   160  GLU160     -0.2864
     97  CB       -21.8190   -9.5650    2.9060 C.3   160  GLU160      0.0415
     98  CG       -20.6400  -10.3170    3.5370 C.3   160  GLU160      0.1163
     99  CD       -20.9680  -11.4300    4.5210 C.2   160  GLU160      0.3649
    100  OE1      -22.1690  -11.8300    4.5690 O.co2 160  GLU160     -0.2457
    101  OE2      -20.0510  -11.8460    5.2880 O.co2 160  GLU160     -0.2457
    102  N        -26.4970  -12.0930    0.4980 N.3   163  ARG163     -0.1301
    103  CA       -27.1550  -12.7000    1.6520 C.3   163  ARG163      0.1248
    104  C        -28.2060  -11.8240    2.3350 C.3   163  ARG163      0.2009
    105  O        -29.1420  -12.3760    3.0250 O.3   163  ARG163     -0.2188
    106  CB       -26.1240  -13.1300    2.6920 C.3   163  ARG163      0.0254
    107  CG       -25.1620  -14.1850    2.1620 C.3   163  ARG163      0.0485
    108  CD       -24.0000  -14.3210    3.1240 C.3   163  ARG163      0.2205
    109  NE       -23.1100  -15.4250    2.7790 N.pl3 163  ARG163     -0.0865
    110  CZ       -21.8210  -15.4810    3.1570 C.cat 163  ARG163      0.5346
    111  NH1      -21.3090  -14.4950    3.8800 N.pl3 163  ARG163      0.1354
    112  NH2      -21.0330  -16.4930    2.8130 N.pl3 163  ARG163      0.1354
    113  N        -23.1840   -9.8400    8.9470 N.3   189  GLU189     -0.1245
    114  CA       -22.1280  -10.7150    8.4320 C.3   189  GLU189      0.1567
    115  C        -21.7460  -11.7950    9.4140 C.2   189  GLU189      0.2260
    116  O        -21.6110  -12.9910    9.0240 O.2   189  GLU189     -0.2867
    117  CB       -20.8550   -9.8840    8.0310 C.3   189  GLU189      0.0388
    118  CG       -21.1220   -8.9060    6.8910 C.3   189  GLU189      0.1160
    119  CD       -19.9880   -7.9020    6.6940 C.2   189  GLU189      0.3649
    120  OE1      -19.0630   -7.9620    7.5310 O.co2 189  GLU189     -0.2457
    121  OE2      -20.0360   -7.1600    5.6810 O.co2 189  GLU189     -0.2457
    122  N        -24.6750  -14.6930   10.0380 N.3   192  TRP192     -0.1241
    123  CA       -25.3280  -15.3260    8.9230 C.3   192  TRP192      0.1605
    124  C        -25.5410  -16.8390    9.1540 C.2   192  TRP192      0.2264
    125  O        -26.6750  -17.3650    8.9510 O.2   192  TRP192     -0.2867
    126  CB       -24.6220  -15.1110    7.6350 C.3   192  TRP192      0.0550
    127  CG       -25.2920  -15.7590    6.4440 C.ar  192  TRP192      0.0003
    128  CD1      -26.5300  -15.4570    6.0010 C.ar  192  TRP192      0.0946
    129  CD2      -24.8070  -16.7820    5.5290 C.ar  192  TRP192      0.0152
    130  NE1      -26.8440  -16.1800    4.8860 N.ar  192  TRP192     -0.2442
    131  CE2      -25.8130  -17.0030    4.5760 C.ar  192  TRP192      0.0810
    132  CE3      -23.6060  -17.5090    5.4070 C.ar  192  TRP192      0.0012
    133  CZ2      -25.6750  -17.9260    3.4970 C.ar  192  TRP192      0.0191
    134  CZ3      -23.4640  -18.3770    4.3850 C.ar  192  TRP192      0.0001
    135  CH2      -24.4790  -18.5940    3.4300 C.ar  192  TRP192      0.0015
@<TRIPOS>BOND
     1    32    33    1
     2    32    29    1
     3    30    31    2
     4    30    29    1
     5    33    34    1
     6    26    24    1
     7    28    29    1
     8    28    22   am
     9    25    27    1
    10    25    24    1
    11    24    21    1
    12    21    22    1
    13    21    20    1
    14    22    23    2
    15    11    10    2
    16    88    89    1
    17     6     5    1
    18    36    37    1
    19    34    35    1
    20    20    10   am
    21    10     9    1
    22    89    92    1
    23    89    90    1
    24     2     5    1
    25     2     3    1
    26     2     1    1
    27    80    81    1
    28     5     7    1
    29    39    38    2
    30     3     4    2
    31     3     8   am
    32    37    38    1
    33    37    40    1
    34    43    45   ar
    35    43    41   ar
    36    45    46   ar
    37     8     9    1
    38    90    91    2
    39    90    93   am
    40    81    82    1
    41    81    84    1
    42     9    12    1
    43    46    44   ar
    44    83    82    2
    45    41    40    1
    46    41    42   ar
    47   102   103    1
    48    85    84    1
    49    85    87    1
    50    44    42   ar
    51    50    49    2
    52    93    94    1
    53    12    13    1
    54    84    86    1
    55    95    94    1
    56    95    96    2
    57    55    53   ar
    58   103   104    1
    59   103   106    1
    60    49    48    1
    61    94    97    1
    62    47    48    1
    63    52    53    1
    64    52    51    1
    65   107   106    1
    66   107   108    1
    67    13    15   ar
    68    13    14   ar
    69   104   105    1
    70    53    54   ar
    71    15    17   ar
    72   109   108    1
    73   109   110    2
    74    48    51    1
    75   112   110    1
    76    97    98    1
    77    14    16   ar
    78   110   111    1
    79   135   133   ar
    80   135   134   ar
    81    57    56    1
    82    57    58    1
    83   133   131   ar
    84    98    99    1
    85    17    18   ar
    86    59    58    2
    87   134   132   ar
    88    16    18   ar
    89    99   100   ar
    90    99   101   ar
    91    58    60   am
    92   131   130   ar
    93   131   129   ar
    94   130   128   ar
    95    18    19    1
    96    79    78    1
    97   132   129   ar
    98   129   127   ar
    99    76    78   ar
   100    76    74   ar
   101   121   119   ar
   102    60    61    1
   103    78    77   ar
   104   128   127   ar
   105   127   126    1
   106    74    73   ar
   107   119   118    1
   108   119   120   ar
   109    61    62    1
   110    61    64    1
   111   118   117    1
   112    77    75   ar
   113    63    62    2
   114    62    68   am
   115   126   123    1
   116    68    69    1
   117    73    75   ar
   118    73    72    1
   119    64    65    1
   120    66    65    2
   121   117   114    1
   122    69    72    1
   123    69    70    1
   124   114   113    1
   125   114   115    1
   126    65    67   am
   127    71    70    2
   128   123   124    1
   129   123   122    1
   130   125   124    2
   131   116   115    2
