@<TRIPOS>MOLECULE
tmp/5csuA05.pdb
 115 109 0 0 0
SMALL
GASTEIGER

@<TRIPOS>ATOM
      1  N         40.6020   16.0670    6.5720 N.3   268  VAL268     -0.1245
      2  CA        40.8390   17.4010    7.1320 C.3   268  VAL268      0.1561
      3  C         42.3110   17.7360    6.9860 C.2   268  VAL268      0.2260
      4  O         43.1480   16.8310    7.0400 O.2   268  VAL268     -0.2867
      5  CB        40.4070   17.5280    8.6220 C.3   268  VAL268      0.0252
      6  CG1       38.8910   17.4580    8.7650 C.3   268  VAL268      0.0019
      7  CG2       41.0600   16.4730    9.4970 C.3   268  VAL268      0.0019
      8  N         46.6950   18.7590   11.2280 N.3   271  ASP271     -0.1225
      9  CA        46.0280   19.0580   12.5010 C.3   271  ASP271      0.1805
     10  C         46.7820   18.3990   13.6810 C.2   271  ASP271      0.2598
     11  O         47.9430   17.9890   13.5290 O.2   271  ASP271     -0.2718
     12  CB        44.5470   18.6020   12.3970 C.3   271  ASP271      0.1424
     13  CG        44.3760   17.0600   12.3490 C.2   271  ASP271      0.3668
     14  OD1       45.1030   16.3550   11.6180 O.co2 271  ASP271     -0.2456
     15  OD2       43.4900   16.5360   13.0530 O.co2 271  ASP271     -0.2456
     16  N         46.1250   18.2740   14.8380 N.am  272  LEU272     -0.1966
     17  CA        46.7240   17.6340   16.0200 C.3   272  LEU272      0.1728
     18  C         47.1220   16.1860   15.8030 C.2   272  LEU272      0.2616
     19  O         48.1410   15.7510   16.3220 O.2   272  LEU272     -0.2715
     20  CB        45.7530   17.6710   17.2050 C.3   272  LEU272      0.0311
     21  CG        46.3440   17.3300   18.5840 C.3   272  LEU272      0.0022
     22  CD1       47.0830   18.5400   19.1350 C.3   272  LEU272      0.0001
     23  CD2       45.2630   16.8760   19.5430 C.3   272  LEU272      0.0001
     24  N         46.3080   15.4470   15.0500 N.am  273  PHE273     -0.1974
     25  CA        46.4750   13.9910   14.8990 C.3   273  PHE273      0.1639
     26  C         47.4220   13.5610   13.7960 C.2   273  PHE273      0.2290
     27  O         47.9900   12.4830   13.8870 O.2   273  PHE273     -0.2864
     28  CB        45.1080   13.2980   14.7550 C.3   273  PHE273      0.0560
     29  CG        44.2110   13.5160   15.9500 C.ar  273  PHE273     -0.0200
     30  CD1       44.5490   12.9970   17.1990 C.ar  273  PHE273     -0.0042
     31  CD2       43.0580   14.2980   15.8490 C.ar  273  PHE273     -0.0042
     32  CE1       43.7410   13.2260   18.3060 C.ar  273  PHE273     -0.0003
     33  CE2       42.2380   14.5140   16.9570 C.ar  273  PHE273     -0.0003
     34  CZ        42.5820   13.9790   18.1860 C.ar  273  PHE273     -0.0000
     35  N         44.2890   14.1690    8.0000 N.3   278  GLN278     -0.1245
     36  CA        43.5860   12.8860    8.0760 C.3   278  GLN278      0.1566
     37  C         42.8470   12.7190    6.7710 C.2   278  GLN278      0.2260
     38  O         41.9590   13.5060    6.4640 O.2   278  GLN278     -0.2867
     39  CB        42.5410   12.8870    9.2120 C.3   278  GLN278      0.0367
     40  CG        43.0200   13.2850   10.5880 C.3   278  GLN278      0.0905
     41  CD        41.8550   13.3600   11.5750 C.2   278  GLN278      0.2608
     42  OE1       41.0050   12.4410   11.6290 O.2   278  GLN278     -0.2717
     43  NE2       41.8110   14.4430   12.3790 N.am  278  GLN278     -0.0878
     44  N         31.2120   16.0890   12.7320 N.3   316  HIS316     -0.1241
     45  CA        31.8600   17.0390   11.8530 C.3   316  HIS316      0.1621
     46  C         30.8720   18.0640   11.3330 C.2   316  HIS316      0.2264
     47  O         30.7450   18.2610   10.1030 O.2   316  HIS316     -0.2867
     48  CB        32.5060   16.2930   10.6770 C.3   316  HIS316      0.0745
     49  CG        33.5590   17.0830    9.9780 C.ar  316  HIS316      0.0817
     50  ND1       34.6770   17.5680   10.6290 N.ar  316  HIS316     -0.2268
     51  CD2       33.6720   17.4770    8.6930 C.ar  316  HIS316      0.1154
     52  CE1       35.4400   18.2140    9.7720 C.ar  316  HIS316      0.1986
     53  NE2       34.8500   18.1780    8.5910 N.ar  316  HIS316     -0.2212
     54  N         28.7510   18.8090   16.8080 N.3   362  GLU362     -0.1245
     55  CA        30.1520   18.5000   17.0670 C.3   362  GLU362      0.1567
     56  C         31.0000   19.4760   16.2680 C.2   362  GLU362      0.2260
     57  O         31.3660   19.2170   15.1270 O.2   362  GLU362     -0.2867
     58  CB        30.4660   17.0430   16.7060 C.3   362  GLU362      0.0388
     59  CG        31.8440   16.5880   17.1400 C.3   362  GLU362      0.1160
     60  CD        32.8510   16.5500   15.9940 C.2   362  GLU362      0.3649
     61  OE1       32.8580   15.5720   15.2020 O.co2 362  GLU362     -0.2457
     62  OE2       33.6430   17.5090   15.8900 O.co2 362  GLU362     -0.2457
     63  N         34.1000   20.7420   16.4810 N.3   364  LEU364     -0.1231
     64  CA        35.4980   20.6820   16.8430 C.3   364  LEU364      0.1693
     65  C         36.3360   20.7440   15.5810 C.2   364  LEU364      0.2593
     66  O         35.9390   20.2530   14.5150 O.2   364  LEU364     -0.2718
     67  CB        35.8000   19.4030   17.6100 C.3   364  LEU364      0.0284
     68  CG        35.0780   19.2150   18.9500 C.3   364  LEU364      0.0019
     69  CD1       35.2960   17.7910   19.4410 C.3   364  LEU364      0.0001
     70  CD2       35.5300   20.2240   19.9980 C.3   364  LEU364      0.0001
     71  N         37.4910   21.3770   15.7130 N.am  365  GLY365     -0.1942
     72  CA        38.5170   21.3670   14.6930 C.3   365  GLY365      0.2014
     73  C         38.8980   22.7840   14.3870 C.2   365  GLY365      0.2638
     74  O         39.1440   23.5660   15.3020 O.2   365  GLY365     -0.2714
     75  N         38.9250   23.1040   13.1040 N.am  366  VAL366     -0.1977
     76  CA        39.1750   24.4520   12.6270 C.3   366  VAL366      0.1596
     77  C         37.8110   25.1130   12.5940 C.2   366  VAL366      0.2287
     78  O         36.9510   24.6870   11.8340 O.2   366  VAL366     -0.2864
     79  CB        39.7900   24.4310   11.2060 C.3   366  VAL366      0.0276
     80  CG1       40.0320   25.8490   10.6960 C.3   366  VAL366      0.0022
     81  CG2       41.0880   23.6210   11.1990 C.3   366  VAL366      0.0022
     82  N         41.4360   19.3760   25.5270 N.3   388  PHE388     -0.1241
     83  CA        42.0310   20.4840   24.7250 C.3   388  PHE388      0.1605
     84  C         42.1140   21.8310   25.4350 C.2   388  PHE388      0.2264
     85  O         42.3280   22.8310   24.7820 O.2   388  PHE388     -0.2867
     86  CB        41.2480   20.6740   23.4180 C.3   388  PHE388      0.0534
     87  CG        41.1280   19.4310   22.5910 C.ar  388  PHE388     -0.0203
     88  CD1       42.2430   18.6710   22.2930 C.ar  388  PHE388     -0.0042
     89  CD2       39.9000   19.0430   22.0730 C.ar  388  PHE388     -0.0042
     90  CE1       42.1310   17.5360   21.5150 C.ar  388  PHE388     -0.0003
     91  CE2       39.7760   17.9060   21.2990 C.ar  388  PHE388     -0.0003
     92  CZ        40.8970   17.1520   21.0220 C.ar  388  PHE388     -0.0000
     93  N         36.2470   12.7970   24.0720 N.3   413  THR413     -0.1218
     94  CA        35.5200   12.0020   23.1080 C.3   413  THR413      0.1862
     95  C         36.2020   10.6360   22.8760 C.2   413  THR413      0.2287
     96  O         37.2940   10.3410   23.3640 O.2   413  THR413     -0.2866
     97  CB        35.4040   12.7310   21.7530 C.3   413  THR413      0.1770
     98  OG1       36.7020   12.8260   21.1330 O.3   413  THR413     -0.2211
     99  CG2       34.7960   14.1260   21.9130 C.3   413  THR413      0.0375
    100  N         37.5220    9.9600   20.1660 N.3   415  ASP415     -0.1225
    101  CA        38.7720   10.3120   19.4360 C.3   415  ASP415      0.1805
    102  C         39.9840   10.6500   20.3240 C.2   415  ASP415      0.2597
    103  O         41.1270   10.6560   19.8400 O.2   415  ASP415     -0.2718
    104  CB        38.5270   11.5180   18.5180 C.3   415  ASP415      0.1424
    105  CG        37.5470   11.2180   17.3880 C.2   415  ASP415      0.3668
    106  OD1       37.6420   10.1100   16.7950 O.co2 415  ASP415     -0.2456
    107  OD2       36.7130   12.1030   17.0720 O.co2 415  ASP415     -0.2456
    108  N         39.7570   10.9430   21.6000 N.am  416  ASN416     -0.1974
    109  CA        40.8470   11.3080   22.5030 C.3   416  ASN416      0.1688
    110  C         41.3020   10.0770   23.2440 C.2   416  ASN416      0.2292
    111  O         40.5720    9.0860   23.3170 O.2   416  ASN416     -0.2864
    112  CB        40.3930   12.3570   23.5130 C.3   416  ASN416      0.1181
    113  CG        39.6970   13.5230   22.8690 C.2   416  ASN416      0.2629
    114  OD1       38.5430   13.8090   23.1560 O.2   416  ASN416     -0.2716
    115  ND2       40.3920   14.2060   21.9840 N.am  416  ASN416     -0.0877
@<TRIPOS>BOND
     1    38    37    2
     2     1     2    1
     3    37    36    1
     4     3     4    2
     5     3     2    1
     6     2     5    1
     7    35    36    1
     8    36    39    1
     9    53    51   ar
    10    53    52   ar
    11     5     6    1
    12     5     7    1
    13    51    49   ar
    14    39    40    1
    15    52    50   ar
    16    49    50   ar
    17    49    48    1
    18    47    46    2
    19    40    41    1
    20    48    45    1
    21    80    79    1
    22    81    79    1
    23    79    76    1
    24     8     9    1
    25    46    45    1
    26    41    42    2
    27    41    43   am
    28    14    13   ar
    29    78    77    2
    30    45    44    1
    31    13    12    1
    32    13    15   ar
    33    12     9    1
    34     9    10    1
    35    77    76    1
    36    76    75    1
    37    75    73   am
    38    11    10    2
    39    10    16   am
    40    26    27    2
    41    26    25    1
    42    73    72    1
    43    73    74    2
    44    66    65    2
    45    72    71    1
    46    28    25    1
    47    28    29    1
    48    16    17    1
    49    25    24    1
    50    24    18   am
    51    57    56    2
    52    61    60   ar
    53    65    71   am
    54    65    64    1
    55    18    17    1
    56    18    19    2
    57    31    29   ar
    58    31    33   ar
    59    62    60   ar
    60    29    30   ar
    61    60    59    1
    62    17    20    1
    63    56    55    1
    64    63    64    1
    65    58    55    1
    66    58    59    1
    67   106   105   ar
    68    54    55    1
    69    64    67    1
    70    33    34   ar
    71   107   105   ar
    72    30    32   ar
    73    20    21    1
    74   105   104    1
    75    67    68    1
    76    34    32   ar
    77   104   101    1
    78    21    22    1
    79    21    23    1
    80    68    69    1
    81    68    70    1
    82   101   100    1
    83   101   102    1
    84   103   102    2
    85   102   108   am
    86    92    91   ar
    87    92    90   ar
    88    98    97    1
    89    91    89   ar
    90    90    88   ar
    91   108   109    1
    92    97    99    1
    93    97    94    1
    94   115   113   am
    95    89    87   ar
    96    88    87   ar
    97   109   110    1
    98   109   112    1
    99    87    86    1
   100   113   114    2
   101   113   112    1
   102    95    94    1
   103    95    96    2
   104    94    93    1
   105   110   111    2
   106    86    83    1
   107    83    84    1
   108    83    82    1
   109    85    84    2
