@<TRIPOS>MOLECULE
tmp/5csuA06.pdb
 91 90 0 0 0
SMALL
GASTEIGER

@<TRIPOS>ATOM
      1  N         46.6950   18.7590   11.2280 N.3   271  ASP271     -0.1225
      2  CA        46.0280   19.0580   12.5010 C.3   271  ASP271      0.1805
      3  C         46.7820   18.3990   13.6810 C.2   271  ASP271      0.2598
      4  O         47.9430   17.9890   13.5290 O.2   271  ASP271     -0.2718
      5  CB        44.5470   18.6020   12.3970 C.3   271  ASP271      0.1424
      6  CG        44.3760   17.0600   12.3490 C.2   271  ASP271      0.3668
      7  OD1       45.1030   16.3550   11.6180 O.co2 271  ASP271     -0.2456
      8  OD2       43.4900   16.5360   13.0530 O.co2 271  ASP271     -0.2456
      9  N         46.1250   18.2740   14.8380 N.am  272  LEU272     -0.1966
     10  CA        46.7240   17.6340   16.0200 C.3   272  LEU272      0.1728
     11  C         47.1220   16.1860   15.8030 C.2   272  LEU272      0.2616
     12  O         48.1410   15.7510   16.3220 O.2   272  LEU272     -0.2715
     13  CB        45.7530   17.6710   17.2050 C.3   272  LEU272      0.0311
     14  CG        46.3440   17.3300   18.5840 C.3   272  LEU272      0.0022
     15  CD1       47.0830   18.5400   19.1350 C.3   272  LEU272      0.0001
     16  CD2       45.2630   16.8760   19.5430 C.3   272  LEU272      0.0001
     17  N         46.3080   15.4470   15.0500 N.am  273  PHE273     -0.1974
     18  CA        46.4750   13.9910   14.8990 C.3   273  PHE273      0.1639
     19  C         47.4220   13.5610   13.7960 C.2   273  PHE273      0.2290
     20  O         47.9900   12.4830   13.8870 O.2   273  PHE273     -0.2864
     21  CB        45.1080   13.2980   14.7550 C.3   273  PHE273      0.0560
     22  CG        44.2110   13.5160   15.9500 C.ar  273  PHE273     -0.0200
     23  CD1       44.5490   12.9970   17.1990 C.ar  273  PHE273     -0.0042
     24  CD2       43.0580   14.2980   15.8490 C.ar  273  PHE273     -0.0042
     25  CE1       43.7410   13.2260   18.3060 C.ar  273  PHE273     -0.0003
     26  CE2       42.2380   14.5140   16.9570 C.ar  273  PHE273     -0.0003
     27  CZ        42.5820   13.9790   18.1860 C.ar  273  PHE273     -0.0000
     28  N         31.2730   20.6190   16.8750 N.3   363  ASP363     -0.1225
     29  CA        31.9240   21.7410   16.1930 C.3   363  ASP363      0.1805
     30  C         33.3730   21.8360   16.6620 C.2   363  ASP363      0.2598
     31  O         33.8160   22.8520   17.2010 O.2   363  ASP363     -0.2718
     32  CB        31.1410   23.0620   16.4090 C.3   363  ASP363      0.1424
     33  CG        31.0220   23.4660   17.8910 C.2   363  ASP363      0.3668
     34  OD1       31.1060   22.5680   18.7660 O.co2 363  ASP363     -0.2456
     35  OD2       30.8420   24.6840   18.1750 O.co2 363  ASP363     -0.2456
     36  N         34.1000   20.7420   16.4810 N.am  364  LEU364     -0.1966
     37  CA        35.4980   20.6820   16.8430 C.3   364  LEU364      0.1728
     38  C         36.3360   20.7440   15.5810 C.2   364  LEU364      0.2616
     39  O         35.9390   20.2530   14.5150 O.2   364  LEU364     -0.2715
     40  CB        35.8000   19.4030   17.6100 C.3   364  LEU364      0.0311
     41  CG        35.0780   19.2150   18.9500 C.3   364  LEU364      0.0022
     42  CD1       35.2960   17.7910   19.4410 C.3   364  LEU364      0.0001
     43  CD2       35.5300   20.2240   19.9980 C.3   364  LEU364      0.0001
     44  N         37.4910   21.3770   15.7130 N.am  365  GLY365     -0.1955
     45  CA        38.5170   21.3670   14.6930 C.3   365  GLY365      0.1869
     46  C         38.8980   22.7840   14.3870 C.2   365  GLY365      0.2309
     47  O         39.1440   23.5660   15.3020 O.2   365  GLY365     -0.2863
     48  N         37.6060   26.1290   13.4260 N.3   367  ILE367     -0.1245
     49  CA        36.3130   26.7930   13.5190 C.3   367  ILE367      0.1561
     50  C         36.4280   28.1920   12.9300 C.2   367  ILE367      0.2260
     51  O         37.0480   29.0800   13.5240 O.2   367  ILE367     -0.2867
     52  CB        35.7830   26.8490   14.9730 C.3   367  ILE367      0.0252
     53  CG1       35.9410   25.4990   15.6860 C.3   367  ILE367      0.0019
     54  CG2       34.3170   27.2340   14.9800 C.3   367  ILE367      0.0019
     55  CD1       35.2830   24.3160   14.9750 C.3   367  ILE367      0.0001
     56  N         41.4360   19.3760   25.5270 N.3   388  PHE388     -0.1241
     57  CA        42.0310   20.4840   24.7250 C.3   388  PHE388      0.1605
     58  C         42.1140   21.8310   25.4350 C.2   388  PHE388      0.2264
     59  O         42.3280   22.8310   24.7820 O.2   388  PHE388     -0.2867
     60  CB        41.2480   20.6740   23.4180 C.3   388  PHE388      0.0534
     61  CG        41.1280   19.4310   22.5910 C.ar  388  PHE388     -0.0203
     62  CD1       42.2430   18.6710   22.2930 C.ar  388  PHE388     -0.0042
     63  CD2       39.9000   19.0430   22.0730 C.ar  388  PHE388     -0.0042
     64  CE1       42.1310   17.5360   21.5150 C.ar  388  PHE388     -0.0003
     65  CE2       39.7760   17.9060   21.2990 C.ar  388  PHE388     -0.0003
     66  CZ        40.8970   17.1520   21.0220 C.ar  388  PHE388     -0.0000
     67  N         41.2660   30.1750   25.5590 N.3   396  ASN396     -0.1226
     68  CA        40.9330   28.8320   25.1060 C.3   396  ASN396      0.1770
     69  C         39.4760   28.4530   25.4820 C.2   396  ASN396      0.2439
     70  O         39.1720   28.2990   26.6660 O.2   396  ASN396     -0.2733
     71  CB        41.9170   27.8280   25.7200 C.3   396  ASN396      0.1168
     72  CG        41.7050   26.3930   25.2110 C.2   396  ASN396      0.2627
     73  OD1       40.5730   25.9680   24.9500 O.2   396  ASN396     -0.2716
     74  ND2       42.7960   25.6380   25.0840 N.am  396  ASN396     -0.0877
     75  N         38.5830   28.2720   24.4780 N.am  397  PRO397     -0.2718
     76  CA        37.1400   28.0690   24.7540 C.3   397  PRO397      0.1535
     77  C         36.7620   26.8170   25.5250 C.2   397  PRO397      0.2598
     78  O         35.6070   26.7310   25.9910 O.2   397  PRO397     -0.2715
     79  CB        36.5110   28.0060   23.3510 C.3   397  PRO397      0.0310
     80  CG        37.6130   27.5830   22.4670 C.3   397  PRO397      0.0237
     81  CD        38.8550   28.2300   23.0300 C.3   397  PRO397      0.0939
     82  N         37.6950   25.8660   25.6420 N.am  398  HIS398     -0.1974
     83  CA        37.4810   24.6360   26.3790 C.3   398  HIS398      0.1656
     84  C         37.7010   24.7950   27.8910 C.2   398  HIS398      0.2291
     85  O         37.3290   23.9070   28.6510 O.2   398  HIS398     -0.2864
     86  CB        38.3910   23.5200   25.8430 C.3   398  HIS398      0.0771
     87  CG        38.2220   23.2680   24.3930 C.ar  398  HIS398      0.0820
     88  ND1       37.0660   22.7340   23.8770 N.ar  398  HIS398     -0.2267
     89  CD2       39.0140   23.5430   23.3380 C.ar  398  HIS398      0.1154
     90  CE1       37.1610   22.6580   22.5640 C.ar  398  HIS398      0.1986
     91  NE2       38.3360   23.1450   22.2120 N.ar  398  HIS398     -0.2212
@<TRIPOS>BOND
     1     1     2    1
     2     7     6   ar
     3     6     5    1
     4     6     8   ar
     5     5     2    1
     6     2     3    1
     7    50    49    1
     8    50    51    2
     9    48    49    1
    10    49    52    1
    11     4     3    2
    12     3     9   am
    13    19    20    2
    14    19    18    1
    15    46    45    1
    16    46    47    2
    17    39    38    2
    18    45    44    1
    19    21    18    1
    20    21    22    1
    21     9    10    1
    22    18    17    1
    23    52    54    1
    24    52    53    1
    25    55    53    1
    26    17    11   am
    27    38    44   am
    28    38    37    1
    29    11    10    1
    30    11    12    2
    31    24    22   ar
    32    24    26   ar
    33    22    23   ar
    34    10    13    1
    35    29    32    1
    36    29    30    1
    37    29    28    1
    38    32    33    1
    39    36    30   am
    40    36    37    1
    41    30    31    2
    42    37    40    1
    43    26    27   ar
    44    23    25   ar
    45    13    14    1
    46    40    41    1
    47    33    35   ar
    48    33    34   ar
    49    27    25   ar
    50    14    15    1
    51    14    16    1
    52    41    42    1
    53    41    43    1
    54    66    65   ar
    55    66    64   ar
    56    65    63   ar
    57    64    62   ar
    58    63    61   ar
    59    91    90   ar
    60    91    89   ar
    61    62    61   ar
    62    80    81    1
    63    80    79    1
    64    90    88   ar
    65    61    60    1
    66    81    75    1
    67    89    87   ar
    68    79    76    1
    69    60    57    1
    70    88    87   ar
    71    87    86    1
    72    75    76    1
    73    75    69   am
    74    57    58    1
    75    57    56    1
    76    76    77    1
    77    59    58    2
    78    73    72    2
    79    74    72   am
    80    68    69    1
    81    68    67    1
    82    68    71    1
    83    72    71    1
    84    69    70    2
    85    77    82   am
    86    77    78    2
    87    82    83    1
    88    86    83    1
    89    83    84    1
    90    84    85    2
