@<TRIPOS>MOLECULE
tmp/5csuA03.pdb
 140 138 0 0 0
SMALL
GASTEIGER

@<TRIPOS>ATOM
      1  N         32.1520    5.2710   11.3550 N.3    78  TYR78      -0.1241
      2  CA        32.1750    6.5270   10.6090 C.3    78  TYR78       0.1605
      3  C         32.5000    6.3820    9.1190 C.2    78  TYR78       0.2264
      4  O         32.5590    7.3790    8.4110 O.2    78  TYR78      -0.2867
      5  CB        33.1090    7.5200   11.3080 C.3    78  TYR78       0.0534
      6  CG        32.6190    7.8600   12.6890 C.ar   78  TYR78      -0.0201
      7  CD1       31.6000    8.8040   12.8750 C.ar   78  TYR78      -0.0009
      8  CD2       33.1520    7.2460   13.8100 C.ar   78  TYR78      -0.0009
      9  CE1       31.1350    9.1180   14.1420 C.ar   78  TYR78       0.0417
     10  CE2       32.7070    7.5750   15.0720 C.ar   78  TYR78       0.0417
     11  CZ        31.6870    8.4960   15.2250 C.ar   78  TYR78       0.1957
     12  OH        31.2280    8.7810   16.4750 O.3    78  TYR78      -0.2866
     13  N         28.9450   11.9990    9.3490 N.3   238  ILE238     -0.1231
     14  CA        28.7290   12.9470    8.2620 C.3   238  ILE238      0.1692
     15  C         28.8280   12.2530    6.9220 C.2   238  ILE238      0.2592
     16  O         28.0590   12.5440    6.0110 O.2   238  ILE238     -0.2718
     17  CB        29.7070   14.1670    8.3040 C.3   238  ILE238      0.0266
     18  CG1       29.3100   15.1930    7.2420 C.3   238  ILE238      0.0019
     19  CG2       31.1680   13.7610    8.1160 C.3   238  ILE238      0.0020
     20  CD1       29.8950   16.5640    7.4430 C.3   238  ILE238      0.0001
     21  N         29.7880   11.3480    6.7940 N.am  239  TYR239     -0.1976
     22  CA        30.0060   10.6560    5.5440 C.3   239  TYR239      0.1639
     23  C         29.7320    9.1610    5.6560 C.2   239  TYR239      0.2290
     24  O         29.8190    8.5480    6.7260 O.2   239  TYR239     -0.2864
     25  CB        31.4310   10.9170    5.0510 C.3   239  TYR239      0.0560
     26  CG        31.7060   12.3750    4.7690 C.ar  239  TYR239     -0.0198
     27  CD1       30.8500   13.1190    3.9650 C.ar  239  TYR239     -0.0009
     28  CD2       32.8320   13.0090    5.2800 C.ar  239  TYR239     -0.0009
     29  CE1       31.0830   14.4600    3.7020 C.ar  239  TYR239      0.0417
     30  CE2       33.0720   14.3540    5.0220 C.ar  239  TYR239      0.0417
     31  CZ        32.1960   15.0690    4.2230 C.ar  239  TYR239      0.1957
     32  OH        32.4390   16.3900    3.9320 O.3   239  TYR239     -0.2866
     33  N         44.2890   14.1690    8.0000 N.3   278  GLN278     -0.1245
     34  CA        43.5860   12.8860    8.0760 C.3   278  GLN278      0.1566
     35  C         42.8470   12.7190    6.7710 C.2   278  GLN278      0.2260
     36  O         41.9590   13.5060    6.4640 O.2   278  GLN278     -0.2867
     37  CB        42.5410   12.8870    9.2120 C.3   278  GLN278      0.0367
     38  CG        43.0200   13.2850   10.5880 C.3   278  GLN278      0.0905
     39  CD        41.8550   13.3600   11.5750 C.2   278  GLN278      0.2608
     40  OE1       41.0050   12.4410   11.6290 O.2   278  GLN278     -0.2717
     41  NE2       41.8110   14.4430   12.3790 N.am  278  GLN278     -0.0878
     42  N         40.2440   10.6210    5.1880 N.3   280  TRP280     -0.1241
     43  CA        39.2010    9.6390    5.5800 C.3   280  TRP280      0.1605
     44  C         38.8640    8.7240    4.4080 C.2   280  TRP280      0.2264
     45  O         38.6700    7.5310    4.6110 O.2   280  TRP280     -0.2867
     46  CB        37.9270   10.3180    6.1290 C.3   280  TRP280      0.0550
     47  CG        38.1580   11.1210    7.3740 C.ar  280  TRP280      0.0003
     48  CD1       39.0620   10.8580    8.3700 C.ar  280  TRP280      0.0946
     49  CD2       37.4620   12.3030    7.7750 C.ar  280  TRP280      0.0152
     50  NE1       38.9800   11.8050    9.3480 N.ar  280  TRP280     -0.2442
     51  CE2       38.0200   12.7160    9.0040 C.ar  280  TRP280      0.0810
     52  CE3       36.4440   13.0690    7.1990 C.ar  280  TRP280      0.0012
     53  CZ2       37.5790   13.8560    9.6890 C.ar  280  TRP280      0.0191
     54  CZ3       36.0130   14.2070    7.8630 C.ar  280  TRP280      0.0001
     55  CH2       36.5730   14.5820    9.1130 C.ar  280  TRP280      0.0015
     56  N         23.9310   13.6690   17.9560 N.3   313  ARG313     -0.1245
     57  CA        25.1760   14.3620   17.6870 C.3   313  ARG313      0.1563
     58  C         25.3860   14.3620   16.1860 C.2   313  ARG313      0.2260
     59  O         25.2580   13.3270   15.5380 O.2   313  ARG313     -0.2867
     60  CB        26.3230   13.6480   18.4210 C.3   313  ARG313      0.0307
     61  CG        27.7700   14.0770   18.1150 C.3   313  ARG313      0.0489
     62  CD        28.7010   13.1160   18.8620 C.3   313  ARG313      0.2205
     63  NE        30.1300   13.3380   18.6710 N.pl3 313  ARG313     -0.0865
     64  CZ        30.8170   13.0480   17.5590 C.cat 313  ARG313      0.5346
     65  NH1       30.2150   12.5260   16.4870 N.pl3 313  ARG313      0.1354
     66  NH2       32.1250   13.2990   17.5080 N.pl3 313  ARG313      0.1354
     67  N         28.0680   14.6660   13.5870 N.3   315  ASP315     -0.1225
     68  CA        29.4960   14.5140   13.4310 C.3   315  ASP315      0.1805
     69  C         30.0640   15.5080   12.4040 C.2   315  ASP315      0.2597
     70  O         29.4450   15.7780   11.3730 O.2   315  ASP315     -0.2718
     71  CB        29.7970   13.0930   12.9750 C.3   315  ASP315      0.1424
     72  CG        31.2480   12.7410   13.1330 C.2   315  ASP315      0.3668
     73  OD1       31.7110   12.8440   14.3040 O.co2 315  ASP315     -0.2456
     74  OD2       31.9070   12.3690   12.1210 O.co2 315  ASP315     -0.2456
     75  N         31.2120   16.0890   12.7320 N.am  316  HIS316     -0.1975
     76  CA        31.8600   17.0390   11.8530 C.3   316  HIS316      0.1656
     77  C         30.8720   18.0640   11.3330 C.2   316  HIS316      0.2291
     78  O         30.7450   18.2610   10.1030 O.2   316  HIS316     -0.2864
     79  CB        32.5060   16.2930   10.6770 C.3   316  HIS316      0.0771
     80  CG        33.5590   17.0830    9.9780 C.ar  316  HIS316      0.0820
     81  ND1       34.6770   17.5680   10.6290 N.ar  316  HIS316     -0.2267
     82  CD2       33.6720   17.4770    8.6930 C.ar  316  HIS316      0.1154
     83  CE1       35.4400   18.2140    9.7720 C.ar  316  HIS316      0.1986
     84  NE2       34.8500   18.1780    8.5910 N.ar  316  HIS316     -0.2212
     85  N         28.7510   18.8090   16.8080 N.3   362  GLU362     -0.1245
     86  CA        30.1520   18.5000   17.0670 C.3   362  GLU362      0.1567
     87  C         31.0000   19.4760   16.2680 C.2   362  GLU362      0.2260
     88  O         31.3660   19.2170   15.1270 O.2   362  GLU362     -0.2867
     89  CB        30.4660   17.0430   16.7060 C.3   362  GLU362      0.0388
     90  CG        31.8440   16.5880   17.1400 C.3   362  GLU362      0.1160
     91  CD        32.8510   16.5500   15.9940 C.2   362  GLU362      0.3649
     92  OE1       32.8580   15.5720   15.2020 O.co2 362  GLU362     -0.2457
     93  OE2       33.6430   17.5090   15.8900 O.co2 362  GLU362     -0.2457
     94  N         35.5090    9.8160   22.1080 N.3   414  HIS414     -0.1226
     95  CA        36.0410    8.5720   21.5750 C.3   414  HIS414      0.1752
     96  C         37.3050    8.7580   20.7100 C.2   414  HIS414      0.2596
     97  O         38.0440    7.8060   20.5230 O.2   414  HIS414     -0.2718
     98  CB        34.9550    7.8720   20.7580 C.3   414  HIS414      0.0759
     99  CG        34.5900    8.6080   19.5100 C.ar  414  HIS414      0.0818
    100  ND1       33.6680    9.6280   19.4950 N.ar  414  HIS414     -0.2268
    101  CD2       35.0550    8.5020   18.2480 C.ar  414  HIS414      0.1154
    102  CE1       33.5630   10.1030   18.2700 C.ar  414  HIS414      0.1986
    103  NE2       34.3990    9.4420   17.4970 N.ar  414  HIS414     -0.2212
    104  N         37.5220    9.9600   20.1660 N.am  415  ASP415     -0.1974
    105  CA        38.7720   10.3120   19.4360 C.3   415  ASP415      0.1709
    106  C         39.9840   10.6500   20.3240 C.2   415  ASP415      0.2293
    107  O         41.1270   10.6560   19.8400 O.2   415  ASP415     -0.2864
    108  CB        38.5270   11.5180   18.5180 C.3   415  ASP415      0.1436
    109  CG        37.5470   11.2180   17.3880 C.2   415  ASP415      0.3671
    110  OD1       37.6420   10.1100   16.7950 O.co2 415  ASP415     -0.2456
    111  OD2       36.7130   12.1030   17.0720 O.co2 415  ASP415     -0.2456
    112  N         39.4430    5.0760   19.9140 N.3   479  ASN479     -0.1240
    113  CA        39.9880    5.3770   18.6000 C.3   479  ASN479      0.1653
    114  C         41.1400    6.3560   18.6480 C.2   479  ASN479      0.2266
    115  O         41.1030    7.3210   19.4220 O.2   479  ASN479     -0.2867
    116  CB        38.9150    5.9520   17.6850 C.3   479  ASN479      0.1155
    117  CG        39.4450    6.2200   16.2810 C.2   479  ASN479      0.2627
    118  OD1       40.2590    5.4500   15.7530 O.2   479  ASN479     -0.2716
    119  ND2       39.0180    7.3350   15.6840 N.am  479  ASN479     -0.0877
    120  N         42.5680    8.8300   15.7620 N.3   481  PRO481     -0.2116
    121  CA        42.4020    9.3240   14.4190 C.3   481  PRO481      0.1372
    122  C         43.6950    9.2880   13.6150 C.2   481  PRO481      0.2244
    123  O         44.7630    9.5490   14.1800 O.2   481  PRO481     -0.2868
    124  CB        41.9730   10.7810   14.6200 C.3   481  PRO481      0.0268
    125  CG        41.3370   10.8120   15.9370 C.3   481  PRO481      0.0207
    126  CD        42.1300    9.8380   16.7520 C.3   481  PRO481      0.0892
    127  N         38.2360    0.8110   17.8640 N.3   488  TRP488     -0.1241
    128  CA        36.8310    0.4180   17.9780 C.3   488  TRP488      0.1605
    129  C         36.6360   -0.9260   18.6670 C.2   488  TRP488      0.2264
    130  O         35.5460   -1.5290   18.5850 O.2   488  TRP488     -0.2867
    131  CB        36.1720    0.4050   16.5930 C.3   488  TRP488      0.0550
    132  CG        36.5530    1.5830   15.7410 C.ar  488  TRP488      0.0003
    133  CD1       37.3050    1.5690   14.5920 C.ar  488  TRP488      0.0946
    134  CD2       36.2240    2.9550   16.0000 C.ar  488  TRP488      0.0152
    135  NE1       37.4380    2.8360   14.1140 N.ar  488  TRP488     -0.2442
    136  CE2       36.8010    3.7190   14.9510 C.ar  488  TRP488      0.0810
    137  CE3       35.4880    3.6120   17.0120 C.ar  488  TRP488      0.0012
    138  CZ2       36.6550    5.1050   14.8590 C.ar  488  TRP488      0.0191
    139  CZ3       35.3400    4.9860   16.9260 C.ar  488  TRP488      0.0001
    140  CH2       35.9310    5.7240   15.8480 C.ar  488  TRP488      0.0015
@<TRIPOS>BOND
     1    29    27   ar
     2    29    31   ar
     3    32    31    1
     4    27    26   ar
     5    31    30   ar
     6    44    45    2
     7    44    43    1
     8    26    25    1
     9    26    28   ar
    10    30    28   ar
    11    25    22    1
    12    42    43    1
    13    22    23    1
    14    22    21    1
    15    43    46    1
    16    23    24    2
    17    16    15    2
    18    46    47    1
    19    36    35    2
    20    35    34    1
    21    21    15   am
    22    15    14    1
    23    52    49   ar
    24    52    54   ar
    25    18    20    1
    26    18    17    1
    27    47    49   ar
    28    47    48   ar
    29    49    51   ar
    30    54    55   ar
    31    33    34    1
    32    34    37    1
    33    19    17    1
    34    14    17    1
    35    14    13    1
    36    48    50   ar
    37     4     3    2
    38    84    82   ar
    39    84    83   ar
    40    82    80   ar
    41    51    50   ar
    42    51    53   ar
    43    55    53   ar
    44     3     2    1
    45    37    38    1
    46    83    81   ar
    47    80    81   ar
    48    80    79    1
    49    78    77    2
    50    38    39    1
    51     2     5    1
    52     2     1    1
    53    79    76    1
    54     5     6    1
    55    77    76    1
    56    70    69    2
    57    39    40    2
    58    39    41   am
    59    76    75    1
    60    74    72   ar
    61    69    75   am
    62    69    68    1
    63     6     7   ar
    64     6     8   ar
    65     7     9   ar
    66    71    72    1
    67    71    68    1
    68    72    73   ar
    69    68    67    1
    70   122   123    2
    71   122   121    1
    72     8    10   ar
    73   135   133   ar
    74   135   136   ar
    75     9    11   ar
    76   121   124    1
    77   121   120    1
    78   133   132   ar
    79   124   125    1
    80   138   136   ar
    81   138   140   ar
    82   136   134   ar
    83    10    11   ar
    84    88    87    2
    85    92    91   ar
    86    11    12    1
    87    59    58    2
    88   119   117   am
    89   132   134   ar
    90   132   131    1
    91   118   117    2
    92   120   126    1
    93   140   139   ar
    94    93    91   ar
    95   125   126    1
    96    91    90    1
    97   134   137   ar
    98    58    57    1
    99    87    86    1
   100   117   116    1
   101    65    64    1
   102   131   128    1
   103    89    86    1
   104    89    90    1
   105   110   109   ar
   106    85    86    1
   107   139   137   ar
   108   111   109   ar
   109   109   108    1
   110   103   101   ar
   111   103   102   ar
   112    66    64    1
   113    64    63    2
   114   116   113    1
   115    57    56    1
   116    57    60    1
   117   127   128    1
   118   128   129    1
   119    61    60    1
   120    61    62    1
   121   101    99   ar
   122   102   100   ar
   123   108   105    1
   124   130   129    2
   125   113   114    1
   126   113   112    1
   127   114   115    2
   128    63    62    1
   129   105   104    1
   130   105   106    1
   131   100    99   ar
   132    99    98    1
   133   107   106    2
   134   104    96   am
   135    97    96    2
   136    96    95    1
   137    98    95    1
   138    95    94    1
