@<TRIPOS>MOLECULE
tmp/5csuA04.pdb
 135 129 0 0 0
SMALL
GASTEIGER

@<TRIPOS>ATOM
      1  N         40.6020   16.0670    6.5720 N.3   268  VAL268     -0.1245
      2  CA        40.8390   17.4010    7.1320 C.3   268  VAL268      0.1561
      3  C         42.3110   17.7360    6.9860 C.2   268  VAL268      0.2260
      4  O         43.1480   16.8310    7.0400 O.2   268  VAL268     -0.2867
      5  CB        40.4070   17.5280    8.6220 C.3   268  VAL268      0.0252
      6  CG1       38.8910   17.4580    8.7650 C.3   268  VAL268      0.0019
      7  CG2       41.0600   16.4730    9.4970 C.3   268  VAL268      0.0019
      8  N         46.6950   18.7590   11.2280 N.3   271  ASP271     -0.1239
      9  CA        46.0280   19.0580   12.5010 C.3   271  ASP271      0.1674
     10  C         46.7820   18.3990   13.6810 C.2   271  ASP271      0.2266
     11  O         47.9430   17.9890   13.5290 O.2   271  ASP271     -0.2867
     12  CB        44.5470   18.6020   12.3970 C.3   271  ASP271      0.1410
     13  CG        44.3760   17.0600   12.3490 C.2   271  ASP271      0.3668
     14  OD1       45.1030   16.3550   11.6180 O.co2 271  ASP271     -0.2456
     15  OD2       43.4900   16.5360   13.0530 O.co2 271  ASP271     -0.2456
     16  N         46.3080   15.4470   15.0500 N.3   273  PHE273     -0.1241
     17  CA        46.4750   13.9910   14.8990 C.3   273  PHE273      0.1605
     18  C         47.4220   13.5610   13.7960 C.2   273  PHE273      0.2264
     19  O         47.9900   12.4830   13.8870 O.2   273  PHE273     -0.2867
     20  CB        45.1080   13.2980   14.7550 C.3   273  PHE273      0.0534
     21  CG        44.2110   13.5160   15.9500 C.ar  273  PHE273     -0.0203
     22  CD1       44.5490   12.9970   17.1990 C.ar  273  PHE273     -0.0042
     23  CD2       43.0580   14.2980   15.8490 C.ar  273  PHE273     -0.0042
     24  CE1       43.7410   13.2260   18.3060 C.ar  273  PHE273     -0.0003
     25  CE2       42.2380   14.5140   16.9570 C.ar  273  PHE273     -0.0003
     26  CZ        42.5820   13.9790   18.1860 C.ar  273  PHE273     -0.0000
     27  N         44.2890   14.1690    8.0000 N.3   278  GLN278     -0.1245
     28  CA        43.5860   12.8860    8.0760 C.3   278  GLN278      0.1566
     29  C         42.8470   12.7190    6.7710 C.2   278  GLN278      0.2260
     30  O         41.9590   13.5060    6.4640 O.2   278  GLN278     -0.2867
     31  CB        42.5410   12.8870    9.2120 C.3   278  GLN278      0.0367
     32  CG        43.0200   13.2850   10.5880 C.3   278  GLN278      0.0905
     33  CD        41.8550   13.3600   11.5750 C.2   278  GLN278      0.2608
     34  OE1       41.0050   12.4410   11.6290 O.2   278  GLN278     -0.2717
     35  NE2       41.8110   14.4430   12.3790 N.am  278  GLN278     -0.0878
     36  N         40.2440   10.6210    5.1880 N.3   280  TRP280     -0.1241
     37  CA        39.2010    9.6390    5.5800 C.3   280  TRP280      0.1605
     38  C         38.8640    8.7240    4.4080 C.2   280  TRP280      0.2264
     39  O         38.6700    7.5310    4.6110 O.2   280  TRP280     -0.2867
     40  CB        37.9270   10.3180    6.1290 C.3   280  TRP280      0.0550
     41  CG        38.1580   11.1210    7.3740 C.ar  280  TRP280      0.0003
     42  CD1       39.0620   10.8580    8.3700 C.ar  280  TRP280      0.0946
     43  CD2       37.4620   12.3030    7.7750 C.ar  280  TRP280      0.0152
     44  NE1       38.9800   11.8050    9.3480 N.ar  280  TRP280     -0.2442
     45  CE2       38.0200   12.7160    9.0040 C.ar  280  TRP280      0.0810
     46  CE3       36.4440   13.0690    7.1990 C.ar  280  TRP280      0.0012
     47  CZ2       37.5790   13.8560    9.6890 C.ar  280  TRP280      0.0191
     48  CZ3       36.0130   14.2070    7.8630 C.ar  280  TRP280      0.0001
     49  CH2       36.5730   14.5820    9.1130 C.ar  280  TRP280      0.0015
     50  N         23.9310   13.6690   17.9560 N.3   313  ARG313     -0.1245
     51  CA        25.1760   14.3620   17.6870 C.3   313  ARG313      0.1563
     52  C         25.3860   14.3620   16.1860 C.2   313  ARG313      0.2260
     53  O         25.2580   13.3270   15.5380 O.2   313  ARG313     -0.2867
     54  CB        26.3230   13.6480   18.4210 C.3   313  ARG313      0.0307
     55  CG        27.7700   14.0770   18.1150 C.3   313  ARG313      0.0489
     56  CD        28.7010   13.1160   18.8620 C.3   313  ARG313      0.2205
     57  NE        30.1300   13.3380   18.6710 N.pl3 313  ARG313     -0.0865
     58  CZ        30.8170   13.0480   17.5590 C.cat 313  ARG313      0.5346
     59  NH1       30.2150   12.5260   16.4870 N.pl3 313  ARG313      0.1354
     60  NH2       32.1250   13.2990   17.5080 N.pl3 313  ARG313      0.1354
     61  N         28.0680   14.6660   13.5870 N.3   315  ASP315     -0.1225
     62  CA        29.4960   14.5140   13.4310 C.3   315  ASP315      0.1805
     63  C         30.0640   15.5080   12.4040 C.2   315  ASP315      0.2597
     64  O         29.4450   15.7780   11.3730 O.2   315  ASP315     -0.2718
     65  CB        29.7970   13.0930   12.9750 C.3   315  ASP315      0.1424
     66  CG        31.2480   12.7410   13.1330 C.2   315  ASP315      0.3668
     67  OD1       31.7110   12.8440   14.3040 O.co2 315  ASP315     -0.2456
     68  OD2       31.9070   12.3690   12.1210 O.co2 315  ASP315     -0.2456
     69  N         31.2120   16.0890   12.7320 N.am  316  HIS316     -0.1975
     70  CA        31.8600   17.0390   11.8530 C.3   316  HIS316      0.1656
     71  C         30.8720   18.0640   11.3330 C.2   316  HIS316      0.2291
     72  O         30.7450   18.2610   10.1030 O.2   316  HIS316     -0.2864
     73  CB        32.5060   16.2930   10.6770 C.3   316  HIS316      0.0771
     74  CG        33.5590   17.0830    9.9780 C.ar  316  HIS316      0.0820
     75  ND1       34.6770   17.5680   10.6290 N.ar  316  HIS316     -0.2267
     76  CD2       33.6720   17.4770    8.6930 C.ar  316  HIS316      0.1154
     77  CE1       35.4400   18.2140    9.7720 C.ar  316  HIS316      0.1986
     78  NE2       34.8500   18.1780    8.5910 N.ar  316  HIS316     -0.2212
     79  N         31.0460   21.2020   11.3150 N.3   318  ARG318     -0.1245
     80  CA        31.7220   22.2620   10.5070 C.3   318  ARG318      0.1563
     81  C         31.6540   22.0040    8.9920 C.2   318  ARG318      0.2260
     82  O         31.5290   22.9560    8.2080 O.2   318  ARG318     -0.2867
     83  CB        33.1740   22.5010   10.9810 C.3   318  ARG318      0.0307
     84  CG        34.2180   21.4090   10.6680 C.3   318  ARG318      0.0489
     85  CD        35.4600   21.9400    9.9750 C.3   318  ARG318      0.2205
     86  NE        35.0090   22.7560    8.8560 N.pl3 318  ARG318     -0.0865
     87  CZ        35.1950   24.0630    8.6580 C.cat 318  ARG318      0.5346
     88  NH1       35.9420   24.8180    9.4370 N.pl3 318  ARG318      0.1354
     89  NH2       34.6280   24.6020    7.6060 N.pl3 318  ARG318      0.1354
     90  N         28.7510   18.8090   16.8080 N.3   362  GLU362     -0.1245
     91  CA        30.1520   18.5000   17.0670 C.3   362  GLU362      0.1567
     92  C         31.0000   19.4760   16.2680 C.2   362  GLU362      0.2260
     93  O         31.3660   19.2170   15.1270 O.2   362  GLU362     -0.2867
     94  CB        30.4660   17.0430   16.7060 C.3   362  GLU362      0.0388
     95  CG        31.8440   16.5880   17.1400 C.3   362  GLU362      0.1160
     96  CD        32.8510   16.5500   15.9940 C.2   362  GLU362      0.3649
     97  OE1       32.8580   15.5720   15.2020 O.co2 362  GLU362     -0.2457
     98  OE2       33.6430   17.5090   15.8900 O.co2 362  GLU362     -0.2457
     99  N         34.1000   20.7420   16.4810 N.3   364  LEU364     -0.1231
    100  CA        35.4980   20.6820   16.8430 C.3   364  LEU364      0.1693
    101  C         36.3360   20.7440   15.5810 C.2   364  LEU364      0.2592
    102  O         35.9390   20.2530   14.5150 O.2   364  LEU364     -0.2718
    103  CB        35.8000   19.4030   17.6100 C.3   364  LEU364      0.0284
    104  CG        35.0780   19.2150   18.9500 C.3   364  LEU364      0.0019
    105  CD1       35.2960   17.7910   19.4410 C.3   364  LEU364      0.0001
    106  CD2       35.5300   20.2240   19.9980 C.3   364  LEU364      0.0001
    107  N         37.4910   21.3770   15.7130 N.am  365  GLY365     -0.1957
    108  CA        38.5170   21.3670   14.6930 C.3   365  GLY365      0.1869
    109  C         38.8980   22.7840   14.3870 C.2   365  GLY365      0.2309
    110  O         39.1440   23.5660   15.3020 O.2   365  GLY365     -0.2863
    111  N         35.5090    9.8160   22.1080 N.3   414  HIS414     -0.1226
    112  CA        36.0410    8.5720   21.5750 C.3   414  HIS414      0.1752
    113  C         37.3050    8.7580   20.7100 C.2   414  HIS414      0.2596
    114  O         38.0440    7.8060   20.5230 O.2   414  HIS414     -0.2718
    115  CB        34.9550    7.8720   20.7580 C.3   414  HIS414      0.0759
    116  CG        34.5900    8.6080   19.5100 C.ar  414  HIS414      0.0818
    117  ND1       33.6680    9.6280   19.4950 N.ar  414  HIS414     -0.2268
    118  CD2       35.0550    8.5020   18.2480 C.ar  414  HIS414      0.1154
    119  CE1       33.5630   10.1030   18.2700 C.ar  414  HIS414      0.1986
    120  NE2       34.3990    9.4420   17.4970 N.ar  414  HIS414     -0.2212
    121  N         37.5220    9.9600   20.1660 N.am  415  ASP415     -0.1974
    122  CA        38.7720   10.3120   19.4360 C.3   415  ASP415      0.1709
    123  C         39.9840   10.6500   20.3240 C.2   415  ASP415      0.2293
    124  O         41.1270   10.6560   19.8400 O.2   415  ASP415     -0.2864
    125  CB        38.5270   11.5180   18.5180 C.3   415  ASP415      0.1436
    126  CG        37.5470   11.2180   17.3880 C.2   415  ASP415      0.3671
    127  OD1       37.6420   10.1100   16.7950 O.co2 415  ASP415     -0.2456
    128  OD2       36.7130   12.1030   17.0720 O.co2 415  ASP415     -0.2456
    129  N         42.5680    8.8300   15.7620 N.3   481  PRO481     -0.2116
    130  CA        42.4020    9.3240   14.4190 C.3   481  PRO481      0.1372
    131  C         43.6950    9.2880   13.6150 C.2   481  PRO481      0.2244
    132  O         44.7630    9.5490   14.1800 O.2   481  PRO481     -0.2868
    133  CB        41.9730   10.7810   14.6200 C.3   481  PRO481      0.0268
    134  CG        41.3370   10.8120   15.9370 C.3   481  PRO481      0.0207
    135  CD        42.1300    9.8380   16.7520 C.3   481  PRO481      0.0892
@<TRIPOS>BOND
     1    38    39    2
     2    38    37    1
     3    36    37    1
     4    37    40    1
     5    40    41    1
     6    30    29    2
     7     1     2    1
     8    29    28    1
     9     3     4    2
    10     3     2    1
    11     2     5    1
    12    46    43   ar
    13    46    48   ar
    14    41    43   ar
    15    41    42   ar
    16    89    87    1
    17    43    45   ar
    18    48    49   ar
    19    27    28    1
    20    28    31    1
    21    82    81    2
    22    42    44   ar
    23    78    76   ar
    24    78    77   ar
    25     5     6    1
    26     5     7    1
    27    87    86    2
    28    87    88    1
    29    76    74   ar
    30    86    85    1
    31    81    80    1
    32    45    44   ar
    33    45    47   ar
    34    49    47   ar
    35    31    32    1
    36    77    75   ar
    37    85    84    1
    38    74    75   ar
    39    74    73    1
    40    72    71    2
    41    80    83    1
    42    80    79    1
    43    32    33    1
    44    84    83    1
    45    73    70    1
    46     8     9    1
    47    71    70    1
    48    64    63    2
    49    33    34    2
    50    33    35   am
    51    14    13   ar
    52    70    69    1
    53    68    66   ar
    54    13    12    1
    55    13    15   ar
    56    12     9    1
    57    63    69   am
    58    63    62    1
    59     9    10    1
    60    65    66    1
    61    65    62    1
    62    66    67   ar
    63    62    61    1
    64    11    10    2
    65   131   132    2
    66   131   130    1
    67    18    19    2
    68    18    17    1
    69   109   108    1
    70   109   110    2
    71   130   133    1
    72   130   129    1
    73   102   101    2
    74   133   134    1
    75   108   107    1
    76    20    17    1
    77    20    21    1
    78    17    16    1
    79    93    92    2
    80    97    96   ar
    81    53    52    2
    82   101   107   am
    83   101   100    1
    84   129   135    1
    85    23    21   ar
    86    23    25   ar
    87    98    96   ar
    88   134   135    1
    89    21    22   ar
    90    96    95    1
    91    52    51    1
    92    92    91    1
    93    99   100    1
    94    59    58    1
    95    94    91    1
    96    94    95    1
    97   127   126   ar
    98    90    91    1
    99   100   103    1
   100    25    26   ar
   101   128   126   ar
   102    22    24   ar
   103   126   125    1
   104   120   118   ar
   105   120   119   ar
   106    60    58    1
   107    58    57    2
   108   103   104    1
   109    51    50    1
   110    51    54    1
   111    55    54    1
   112    55    56    1
   113    26    24   ar
   114   118   116   ar
   115   119   117   ar
   116   125   122    1
   117    57    56    1
   118   104   105    1
   119   104   106    1
   120   122   121    1
   121   122   123    1
   122   117   116   ar
   123   116   115    1
   124   124   123    2
   125   121   113   am
   126   114   113    2
   127   113   112    1
   128   115   112    1
   129   112   111    1
