@<TRIPOS>MOLECULE
tmp/5csuA02.pdb
 128 128 0 0 0
SMALL
GASTEIGER

@<TRIPOS>ATOM
      1  N         32.8140   -0.4920    9.0600 N.3    72  ASP72      -0.1239
      2  CA        33.7300   -1.0160    8.0650 C.3    72  ASP72       0.1674
      3  C         34.5010   -2.1760    8.6920 C.2    72  ASP72       0.2266
      4  O         34.2890   -2.5020    9.8600 O.2    72  ASP72      -0.2867
      5  CB        34.6130    0.0810    7.4550 C.3    72  ASP72       0.1410
      6  CG        35.8820    0.3600    8.2390 C.2    72  ASP72       0.3668
      7  OD1       35.9750    0.0490    9.4370 O.co2  72  ASP72      -0.2456
      8  OD2       36.8090    0.9090    7.6170 O.co2  72  ASP72      -0.2456
      9  N         34.8970    0.5230   12.1390 N.3    76  SER76      -0.1217
     10  CA        34.6130    1.9520   12.2410 C.3    76  SER76       0.1889
     11  C         33.1750    2.3000   11.9090 C.2    76  SER76       0.2288
     12  O         32.7350    2.0780   10.7960 O.2    76  SER76      -0.2866
     13  CB        35.5090    2.7700   11.3300 C.3    76  SER76       0.2089
     14  OG        35.1570    4.1380   11.4060 O.3    76  SER76      -0.2183
     15  N         32.1520    5.2710   11.3550 N.3    78  TYR78      -0.1227
     16  CA        32.1750    6.5270   10.6090 C.3    78  TYR78       0.1736
     17  C         32.5000    6.3820    9.1190 C.2    78  TYR78       0.2595
     18  O         32.5590    7.3790    8.4110 O.2    78  TYR78      -0.2718
     19  CB        33.1090    7.5200   11.3080 C.3    78  TYR78       0.0548
     20  CG        32.6190    7.8600   12.6890 C.ar   78  TYR78      -0.0200
     21  CD1       31.6000    8.8040   12.8750 C.ar   78  TYR78      -0.0009
     22  CD2       33.1520    7.2460   13.8100 C.ar   78  TYR78      -0.0009
     23  CE1       31.1350    9.1180   14.1420 C.ar   78  TYR78       0.0417
     24  CE2       32.7070    7.5750   15.0720 C.ar   78  TYR78       0.0417
     25  CZ        31.6870    8.4960   15.2250 C.ar   78  TYR78       0.1957
     26  OH        31.2280    8.7810   16.4750 O.3    78  TYR78      -0.2866
     27  N         32.7010    5.1590    8.6370 N.am   79  ALA79      -0.1980
     28  CA        32.6720    4.8690    7.1730 C.3    79  ALA79       0.1597
     29  C         31.9050    3.5620    6.9600 C.2    79  ALA79       0.2287
     30  O         32.4160    2.6040    6.3990 O.2    79  ALA79      -0.2864
     31  CB        34.0720    4.7770    6.5800 C.3    79  ALA79       0.0319
     32  N         44.2890   14.1690    8.0000 N.3   278  GLN278     -0.1231
     33  CA        43.5860   12.8860    8.0760 C.3   278  GLN278      0.1698
     34  C         42.8470   12.7190    6.7710 C.2   278  GLN278      0.2592
     35  O         41.9590   13.5060    6.4640 O.2   278  GLN278     -0.2718
     36  CB        42.5410   12.8870    9.2120 C.3   278  GLN278      0.0381
     37  CG        43.0200   13.2850   10.5880 C.3   278  GLN278      0.0905
     38  CD        41.8550   13.3600   11.5750 C.2   278  GLN278      0.2608
     39  OE1       41.0050   12.4410   11.6290 O.2   278  GLN278     -0.2717
     40  NE2       41.8110   14.4430   12.3790 N.am  278  GLN278     -0.0878
     41  N         43.2020   11.6880    6.0240 N.am  279  LEU279     -0.1966
     42  CA        42.5270   11.3740    4.7930 C.3   279  LEU279      0.1728
     43  C         41.5180   10.2740    5.1080 C.2   279  LEU279      0.2616
     44  O         41.8880    9.1320    5.3040 O.2   279  LEU279     -0.2715
     45  CB        43.5700   10.9220    3.7620 C.3   279  LEU279      0.0311
     46  CG        43.1190   10.5810    2.3450 C.3   279  LEU279      0.0022
     47  CD1       42.4520   11.7630    1.6660 C.3   279  LEU279      0.0001
     48  CD2       44.3200   10.1150    1.5290 C.3   279  LEU279      0.0001
     49  N         40.2440   10.6210    5.1880 N.am  280  TRP280     -0.1974
     50  CA        39.2010    9.6390    5.5800 C.3   280  TRP280      0.1640
     51  C         38.8640    8.7240    4.4080 C.2   280  TRP280      0.2290
     52  O         38.6700    7.5310    4.6110 O.2   280  TRP280     -0.2864
     53  CB        37.9270   10.3180    6.1290 C.3   280  TRP280      0.0576
     54  CG        38.1580   11.1210    7.3740 C.ar  280  TRP280      0.0006
     55  CD1       39.0620   10.8580    8.3700 C.ar  280  TRP280      0.0946
     56  CD2       37.4620   12.3030    7.7750 C.ar  280  TRP280      0.0152
     57  NE1       38.9800   11.8050    9.3480 N.ar  280  TRP280     -0.2442
     58  CE2       38.0200   12.7160    9.0040 C.ar  280  TRP280      0.0810
     59  CE3       36.4440   13.0690    7.1990 C.ar  280  TRP280      0.0012
     60  CZ2       37.5790   13.8560    9.6890 C.ar  280  TRP280      0.0191
     61  CZ3       36.0130   14.2070    7.8630 C.ar  280  TRP280      0.0001
     62  CH2       36.5730   14.5820    9.1130 C.ar  280  TRP280      0.0015
     63  N         35.5090    9.8160   22.1080 N.3   414  HIS414     -0.1226
     64  CA        36.0410    8.5720   21.5750 C.3   414  HIS414      0.1752
     65  C         37.3050    8.7580   20.7100 C.2   414  HIS414      0.2596
     66  O         38.0440    7.8060   20.5230 O.2   414  HIS414     -0.2718
     67  CB        34.9550    7.8720   20.7580 C.3   414  HIS414      0.0759
     68  CG        34.5900    8.6080   19.5100 C.ar  414  HIS414      0.0818
     69  ND1       33.6680    9.6280   19.4950 N.ar  414  HIS414     -0.2268
     70  CD2       35.0550    8.5020   18.2480 C.ar  414  HIS414      0.1154
     71  CE1       33.5630   10.1030   18.2700 C.ar  414  HIS414      0.1986
     72  NE2       34.3990    9.4420   17.4970 N.ar  414  HIS414     -0.2212
     73  N         37.5220    9.9600   20.1660 N.am  415  ASP415     -0.1974
     74  CA        38.7720   10.3120   19.4360 C.3   415  ASP415      0.1709
     75  C         39.9840   10.6500   20.3240 C.2   415  ASP415      0.2293
     76  O         41.1270   10.6560   19.8400 O.2   415  ASP415     -0.2864
     77  CB        38.5270   11.5180   18.5180 C.3   415  ASP415      0.1436
     78  CG        37.5470   11.2180   17.3880 C.2   415  ASP415      0.3671
     79  OD1       37.6420   10.1100   16.7950 O.co2 415  ASP415     -0.2456
     80  OD2       36.7130   12.1030   17.0720 O.co2 415  ASP415     -0.2456
     81  N         39.4430    5.0760   19.9140 N.3   479  ASN479     -0.1225
     82  CA        39.9880    5.3770   18.6000 C.3   479  ASN479      0.1785
     83  C         41.1400    6.3560   18.6480 C.2   479  ASN479      0.2598
     84  O         41.1030    7.3210   19.4220 O.2   479  ASN479     -0.2718
     85  CB        38.9150    5.9520   17.6850 C.3   479  ASN479      0.1169
     86  CG        39.4450    6.2200   16.2810 C.2   479  ASN479      0.2627
     87  OD1       40.2590    5.4500   15.7530 O.2   479  ASN479     -0.2716
     88  ND2       39.0180    7.3350   15.6840 N.am  479  ASN479     -0.0877
     89  N         42.1530    6.1080   17.8060 N.am  480  THR480     -0.1939
     90  CA        43.1750    7.1180   17.4540 C.3   480  THR480      0.2013
     91  C         42.9350    7.5520   15.9990 C.2   480  THR480      0.2484
     92  O         43.0580    6.7390   15.1130 O.2   480  THR480     -0.2729
     93  CB        44.5990    6.5630   17.6510 C.3   480  THR480      0.1807
     94  OG1       44.6910    5.9760   18.9520 O.3   480  THR480     -0.2208
     95  CG2       45.6680    7.6570   17.5280 C.3   480  THR480      0.0379
     96  N         42.5680    8.8300   15.7620 N.am  481  PRO481     -0.2715
     97  CA        42.4020    9.3240   14.4190 C.3   481  PRO481      0.1536
     98  C         43.6950    9.2880   13.6150 C.2   481  PRO481      0.2598
     99  O         44.7630    9.5490   14.1800 O.2   481  PRO481     -0.2715
    100  CB        41.9730   10.7810   14.6200 C.3   481  PRO481      0.0310
    101  CG        41.3370   10.8120   15.9370 C.3   481  PRO481      0.0237
    102  CD        42.1300    9.8380   16.7520 C.3   481  PRO481      0.0939
    103  N         43.5590    9.0170   12.3110 N.am  482  ALA482     -0.1964
    104  CA        44.6710    8.8750   11.3590 C.3   482  ALA482      0.1728
    105  C         45.4820    7.6190   11.6390 C.2   482  ALA482      0.2616
    106  O         46.7080    7.6070   11.5020 O.2   482  ALA482     -0.2715
    107  CB        45.5600   10.1230   11.3110 C.3   482  ALA482      0.0334
    108  N         44.7820    6.5630   12.0200 N.am  483  THR483     -0.1951
    109  CA        45.3520    5.2250   12.1420 C.3   483  THR483      0.1897
    110  C         44.2960    4.2400   11.6280 C.2   483  THR483      0.2313
    111  O         43.0970    4.5280   11.6370 O.2   483  THR483     -0.2863
    112  CB        45.7620    4.8870   13.6090 C.3   483  THR483      0.1794
    113  OG1       44.6050    4.7880   14.4320 O.3   483  THR483     -0.2208
    114  CG2       46.6950    5.9550   14.2070 C.3   483  THR483      0.0378
    115  N         38.2360    0.8110   17.8640 N.3   488  TRP488     -0.1241
    116  CA        36.8310    0.4180   17.9780 C.3   488  TRP488      0.1605
    117  C         36.6360   -0.9260   18.6670 C.2   488  TRP488      0.2264
    118  O         35.5460   -1.5290   18.5850 O.2   488  TRP488     -0.2867
    119  CB        36.1720    0.4050   16.5930 C.3   488  TRP488      0.0550
    120  CG        36.5530    1.5830   15.7410 C.ar  488  TRP488      0.0003
    121  CD1       37.3050    1.5690   14.5920 C.ar  488  TRP488      0.0946
    122  CD2       36.2240    2.9550   16.0000 C.ar  488  TRP488      0.0152
    123  NE1       37.4380    2.8360   14.1140 N.ar  488  TRP488     -0.2442
    124  CE2       36.8010    3.7190   14.9510 C.ar  488  TRP488      0.0810
    125  CE3       35.4880    3.6120   17.0120 C.ar  488  TRP488      0.0012
    126  CZ2       36.6550    5.1050   14.8590 C.ar  488  TRP488      0.0191
    127  CZ3       35.3400    4.9860   16.9260 C.ar  488  TRP488      0.0001
    128  CH2       35.9310    5.7240   15.8480 C.ar  488  TRP488      0.0015
@<TRIPOS>BOND
     1    48    46    1
     2    47    46    1
     3    46    45    1
     4    45    42    1
     5    51    52    2
     6    51    50    1
     7    42    43    1
     8    42    41    1
     9    43    49   am
    10    43    44    2
    11    49    50    1
    12    50    53    1
    13    41    34   am
    14    53    54    1
    15    30    29    2
    16    35    34    2
    17    31    28    1
    18    34    33    1
    19    29    28    1
    20    28    27    1
    21    59    56   ar
    22    59    61   ar
    23    54    56   ar
    24    54    55   ar
    25     5     2    1
    26     5     6    1
    27     8     6   ar
    28    56    58   ar
    29    61    62   ar
    30    32    33    1
    31     2     3    1
    32     2     1    1
    33    33    36    1
    34     6     7   ar
    35    55    57   ar
    36    18    17    2
    37    27    17   am
    38     3     4    2
    39    58    57   ar
    40    58    60   ar
    41    62    60   ar
    42    17    16    1
    43    36    37    1
    44    37    38    1
    45    16    19    1
    46    16    15    1
    47    12    11    2
    48    19    20    1
    49   107   104    1
    50    13    14    1
    51    13    10    1
    52   104   105    1
    53   104   103    1
    54   106   105    2
    55    38    39    2
    56    38    40   am
    57   110   111    2
    58   110   109    1
    59   105   108   am
    60    11    10    1
    61   108   109    1
    62     9    10    1
    63   109   112    1
    64   103    98   am
    65    20    21   ar
    66    20    22   ar
    67    21    23   ar
    68   112   114    1
    69   112   113    1
    70    98    99    2
    71    98    97    1
    72    22    24   ar
    73   123   121   ar
    74   123   124   ar
    75    23    25   ar
    76    97   100    1
    77    97    96    1
    78   121   120   ar
    79   100   101    1
    80   126   124   ar
    81   126   128   ar
    82   124   122   ar
    83    24    25   ar
    84    92    91    2
    85    25    26    1
    86    88    86   am
    87   120   122   ar
    88   120   119    1
    89    87    86    2
    90    96    91   am
    91    96   102    1
    92   128   127   ar
    93   101   102    1
    94    91    90    1
    95   122   125   ar
    96    86    85    1
    97   119   116    1
    98    79    78   ar
    99   127   125   ar
   100    80    78   ar
   101    78    77    1
   102    90    93    1
   103    90    89    1
   104    72    70   ar
   105    72    71   ar
   106    95    93    1
   107    93    94    1
   108    85    82    1
   109    89    83   am
   110   115   116    1
   111   116   117    1
   112    70    68   ar
   113    71    69   ar
   114    77    74    1
   115   118   117    2
   116    82    83    1
   117    82    81    1
   118    83    84    2
   119    74    73    1
   120    74    75    1
   121    69    68   ar
   122    68    67    1
   123    76    75    2
   124    73    65   am
   125    66    65    2
   126    65    64    1
   127    67    64    1
   128    64    63    1
