@<TRIPOS>MOLECULE
tmp/5csuA01.pdb
 75 72 0 0 0
SMALL
GASTEIGER

@<TRIPOS>ATOM
      1  N         32.8140   -0.4920    9.0600 N.3    72  ASP72      -0.1239
      2  CA        33.7300   -1.0160    8.0650 C.3    72  ASP72       0.1674
      3  C         34.5010   -2.1760    8.6920 C.2    72  ASP72       0.2266
      4  O         34.2890   -2.5020    9.8600 O.2    72  ASP72      -0.2867
      5  CB        34.6130    0.0810    7.4550 C.3    72  ASP72       0.1410
      6  CG        35.8820    0.3600    8.2390 C.2    72  ASP72       0.3668
      7  OD1       35.9750    0.0490    9.4370 O.co2  72  ASP72      -0.2456
      8  OD2       36.8090    0.9090    7.6170 O.co2  72  ASP72      -0.2456
      9  N         34.8970    0.5230   12.1390 N.3    76  SER76      -0.1217
     10  CA        34.6130    1.9520   12.2410 C.3    76  SER76       0.1889
     11  C         33.1750    2.3000   11.9090 C.2    76  SER76       0.2288
     12  O         32.7350    2.0780   10.7960 O.2    76  SER76      -0.2866
     13  CB        35.5090    2.7700   11.3300 C.3    76  SER76       0.2089
     14  OG        35.1570    4.1380   11.4060 O.3    76  SER76      -0.2183
     15  N         32.7010    5.1590    8.6370 N.3    79  ALA79      -0.1245
     16  CA        32.6720    4.8690    7.1730 C.3    79  ALA79       0.1562
     17  C         31.9050    3.5620    6.9600 C.2    79  ALA79       0.2260
     18  O         32.4160    2.6040    6.3990 O.2    79  ALA79      -0.2867
     19  CB        34.0720    4.7770    6.5800 C.3    79  ALA79       0.0290
     20  N         44.2890   14.1690    8.0000 N.3   278  GLN278     -0.1231
     21  CA        43.5860   12.8860    8.0760 C.3   278  GLN278      0.1698
     22  C         42.8470   12.7190    6.7710 C.2   278  GLN278      0.2592
     23  O         41.9590   13.5060    6.4640 O.2   278  GLN278     -0.2718
     24  CB        42.5410   12.8870    9.2120 C.3   278  GLN278      0.0381
     25  CG        43.0200   13.2850   10.5880 C.3   278  GLN278      0.0905
     26  CD        41.8550   13.3600   11.5750 C.2   278  GLN278      0.2608
     27  OE1       41.0050   12.4410   11.6290 O.2   278  GLN278     -0.2717
     28  NE2       41.8110   14.4430   12.3790 N.am  278  GLN278     -0.0878
     29  N         43.2020   11.6880    6.0240 N.am  279  LEU279     -0.1966
     30  CA        42.5270   11.3740    4.7930 C.3   279  LEU279      0.1728
     31  C         41.5180   10.2740    5.1080 C.2   279  LEU279      0.2616
     32  O         41.8880    9.1320    5.3040 O.2   279  LEU279     -0.2715
     33  CB        43.5700   10.9220    3.7620 C.3   279  LEU279      0.0311
     34  CG        43.1190   10.5810    2.3450 C.3   279  LEU279      0.0022
     35  CD1       42.4520   11.7630    1.6660 C.3   279  LEU279      0.0001
     36  CD2       44.3200   10.1150    1.5290 C.3   279  LEU279      0.0001
     37  N         40.2440   10.6210    5.1880 N.am  280  TRP280     -0.1960
     38  CA        39.2010    9.6390    5.5800 C.3   280  TRP280      0.1771
     39  C         38.8640    8.7240    4.4080 C.2   280  TRP280      0.2620
     40  O         38.6700    7.5310    4.6110 O.2   280  TRP280     -0.2715
     41  CB        37.9270   10.3180    6.1290 C.3   280  TRP280      0.0590
     42  CG        38.1580   11.1210    7.3740 C.ar  280  TRP280      0.0006
     43  CD1       39.0620   10.8580    8.3700 C.ar  280  TRP280      0.0946
     44  CD2       37.4620   12.3030    7.7750 C.ar  280  TRP280      0.0152
     45  NE1       38.9800   11.8050    9.3480 N.ar  280  TRP280     -0.2442
     46  CE2       38.0200   12.7160    9.0040 C.ar  280  TRP280      0.0810
     47  CE3       36.4440   13.0690    7.1990 C.ar  280  TRP280      0.0012
     48  CZ2       37.5790   13.8560    9.6890 C.ar  280  TRP280      0.0191
     49  CZ3       36.0130   14.2070    7.8630 C.ar  280  TRP280      0.0001
     50  CH2       36.5730   14.5820    9.1130 C.ar  280  TRP280      0.0015
     51  N         38.8020    9.2960    3.1990 N.am  281  GLY281     -0.1954
     52  CA        38.6330    8.5250    1.9730 C.3   281  GLY281      0.1869
     53  C         37.2150    8.4130    1.4520 C.2   281  GLY281      0.2309
     54  O         36.9850    7.8640    0.3800 O.2   281  GLY281     -0.2863
     55  N         43.5590    9.0170   12.3110 N.3   482  ALA482     -0.1231
     56  CA        44.6710    8.8750   11.3590 C.3   482  ALA482      0.1694
     57  C         45.4820    7.6190   11.6390 C.2   482  ALA482      0.2593
     58  O         46.7080    7.6070   11.5020 O.2   482  ALA482     -0.2718
     59  CB        45.5600   10.1230   11.3110 C.3   482  ALA482      0.0304
     60  N         44.7820    6.5630   12.0200 N.am  483  THR483     -0.1939
     61  CA        45.3520    5.2250   12.1420 C.3   483  THR483      0.2028
     62  C         44.2960    4.2400   11.6280 C.2   483  THR483      0.2642
     63  O         43.0970    4.5280   11.6370 O.2   483  THR483     -0.2714
     64  CB        45.7620    4.8870   13.6090 C.3   483  THR483      0.1808
     65  OG1       44.6050    4.7880   14.4320 O.3   483  THR483     -0.2208
     66  CG2       46.6950    5.9550   14.2070 C.3   483  THR483      0.0379
     67  N         44.7540    3.0900   11.1540 N.am  484  GLU484     -0.1976
     68  CA        43.8870    2.1110   10.5040 C.3   484  GLU484      0.1602
     69  C         43.7000    0.8180   11.3030 C.2   484  GLU484      0.2287
     70  O         42.7460    0.0850   11.0350 O.2   484  GLU484     -0.2864
     71  CB        44.4330    1.7990    9.1050 C.3   484  GLU484      0.0415
     72  CG        44.2290    2.8120    7.9980 C.3   484  GLU484      0.1163
     73  CD        45.3650    3.7850    7.8270 C.2   484  GLU484      0.3649
     74  OE1       46.4580    3.2830    7.4900 O.co2 484  GLU484     -0.2457
     75  OE2       45.2010    5.0100    7.9700 O.co2 484  GLU484     -0.2457
@<TRIPOS>BOND
     1    54    53    2
     2    53    52    1
     3    36    34    1
     4    35    34    1
     5    52    51    1
     6    34    33    1
     7    51    39   am
     8    33    30    1
     9    39    40    2
    10    39    38    1
    11    30    31    1
    12    30    29    1
    13    31    37   am
    14    31    32    2
    15    37    38    1
    16    38    41    1
    17    29    22   am
    18    41    42    1
    19    18    17    2
    20    23    22    2
    21    19    16    1
    22    22    21    1
    23    17    16    1
    24    16    15    1
    25    47    44   ar
    26    47    49   ar
    27    42    44   ar
    28    42    43   ar
    29     5     2    1
    30     5     6    1
    31    74    73   ar
    32     8     6   ar
    33    44    46   ar
    34    73    75   ar
    35    73    72    1
    36    49    50   ar
    37    72    71    1
    38    20    21    1
    39     2     3    1
    40     2     1    1
    41    21    24    1
    42     6     7   ar
    43    43    45   ar
    44     3     4    2
    45    46    45   ar
    46    46    48   ar
    47    71    68    1
    48    50    48   ar
    49    24    25    1
    50    68    67    1
    51    68    69    1
    52    25    26    1
    53    12    11    2
    54    70    69    2
    55    67    62   am
    56    59    56    1
    57    13    14    1
    58    13    10    1
    59    56    57    1
    60    56    55    1
    61    58    57    2
    62    26    27    2
    63    26    28   am
    64    62    63    2
    65    62    61    1
    66    57    60   am
    67    11    10    1
    68    60    61    1
    69     9    10    1
    70    61    64    1
    71    64    66    1
    72    64    65    1
