@<TRIPOS>MOLECULE
tmp/5csvA00.pdb
 122 115 0 0 0
SMALL
GASTEIGER

@<TRIPOS>ATOM
      1  N         98.3910   21.2270  136.2920 N.3    43  LEU43      -0.1245
      2  CA        96.9980   21.6170  136.0450 C.3    43  LEU43       0.1561
      3  C         96.0860   21.2680  137.2030 C.2    43  LEU43       0.2260
      4  O         95.1280   22.0030  137.4760 O.2    43  LEU43      -0.2867
      5  CB        96.4580   21.0100  134.7490 C.3    43  LEU43       0.0270
      6  CG        97.1370   21.4400  133.4650 C.3    43  LEU43       0.0019
      7  CD1       96.5070   20.7400  132.2650 C.3    43  LEU43       0.0001
      8  CD2       97.0860   22.9590  133.2750 C.3    43  LEU43       0.0001
      9  N         98.0910   16.0100  137.2080 N.3    51  VAL51      -0.1245
     10  CA        97.9710   16.2920  135.7930 C.3    51  VAL51       0.1561
     11  C         98.7650   17.5260  135.4390 C.2    51  VAL51       0.2260
     12  O         98.7150   18.5200  136.1780 O.2    51  VAL51      -0.2867
     13  CB        96.4680   16.3840  135.3920 C.3    51  VAL51       0.0252
     14  CG1       96.2960   16.7980  133.9510 C.3    51  VAL51       0.0019
     15  CG2       95.7400   15.0600  135.6490 C.3    51  VAL51       0.0019
     16  N         99.0350   16.5610  127.5160 N.3    64  VAL64      -0.1245
     17  CA        98.6490   16.5050  128.9060 C.3    64  VAL64       0.1561
     18  C         99.2880   15.2450  129.4730 C.2    64  VAL64       0.2260
     19  O         99.1960   14.1710  128.8640 O.2    64  VAL64      -0.2867
     20  CB        97.0990   16.5320  129.0790 C.3    64  VAL64       0.0252
     21  CG1       96.7130   16.2860  130.5220 C.3    64  VAL64       0.0019
     22  CG2       96.5140   17.8620  128.5780 C.3    64  VAL64       0.0019
     23  N         99.4770   12.7190  132.7620 N.3    66  LYS66      -0.1245
     24  CA        98.8220   12.3180  133.9740 C.3    66  LYS66       0.1561
     25  C         99.7450   11.3540  134.6980 C.2    66  LYS66       0.2260
     26  O         99.9530   10.2190  134.2580 O.2    66  LYS66      -0.2867
     27  CB        97.4490   11.7170  133.6100 C.3    66  LYS66       0.0271
     28  CG        96.6380   11.2000  134.7500 C.3    66  LYS66       0.0035
     29  CD        95.3900   10.5350  134.1430 C.3    66  LYS66       0.0206
     30  CE        94.4450   10.0460  135.1910 C.3    66  LYS66       0.1093
     31  NZ        93.1540    9.6580  134.5540 N.3    66  LYS66      -0.1314
     32  N         89.0940   10.6830  124.6640 N.3    93  ILE93      -0.1245
     33  CA        90.4420   11.2500  124.7810 C.3    93  ILE93       0.1561
     34  C         91.4670   10.2470  124.2230 C.2    93  ILE93       0.2260
     35  O         91.3520    9.0340  124.4490 O.2    93  ILE93      -0.2867
     36  CB        90.7640   11.6490  126.2400 C.3    93  ILE93       0.0252
     37  CG1       92.0190   12.5930  126.3170 C.3    93  ILE93       0.0019
     38  CG2       90.9590   10.4660  127.1880 C.3    93  ILE93       0.0019
     39  CD1       91.6990   13.9940  125.7780 C.3    93  ILE93       0.0001
     40  N         98.4070   12.2820  127.0020 N.3   111  PHE111     -0.1227
     41  CA        97.1950   12.4560  126.2110 C.3   111  PHE111      0.1736
     42  C         97.3220   13.5800  125.2100 C.2   111  PHE111      0.2595
     43  O         98.0460   14.5470  125.4590 O.2   111  PHE111     -0.2718
     44  CB        96.0190   12.7960  127.1280 C.3   111  PHE111      0.0547
     45  CG        95.6640   11.7100  128.0960 C.ar  111  PHE111     -0.0202
     46  CD1       94.9410   10.5890  127.6800 C.ar  111  PHE111     -0.0042
     47  CD2       96.0510   11.7850  129.4270 C.ar  111  PHE111     -0.0042
     48  CE1       94.5690    9.6070  128.5910 C.ar  111  PHE111     -0.0003
     49  CE2       95.7270   10.7630  130.3270 C.ar  111  PHE111     -0.0003
     50  CZ        94.9540    9.6960  129.9080 C.ar  111  PHE111     -0.0000
     51  N         96.5210   13.5310  124.1270 N.am  112  GLU112     -0.1979
     52  CA        96.4450   14.6300  123.1600 C.3   112  GLU112      0.1602
     53  C         95.9990   15.8570  123.9380 C.2   112  GLU112      0.2287
     54  O         95.2720   15.7390  124.9360 O.2   112  GLU112     -0.2864
     55  CB        95.3970   14.3350  122.0660 C.3   112  GLU112      0.0415
     56  CG        93.9540   14.4290  122.5730 C.3   112  GLU112      0.1163
     57  CD        92.8560   14.0630  121.6000 C.2   112  GLU112      0.3649
     58  OE1       92.8840   14.5540  120.4480 O.co2 112  GLU112     -0.2457
     59  OE2       91.9450   13.3040  122.0070 O.co2 112  GLU112     -0.2457
     60  N         93.9660   18.9710  125.0770 N.3   114  VAL114     -0.1245
     61  CA        92.6270   19.5340  125.0500 C.3   114  VAL114      0.1561
     62  C         92.7530   20.8190  125.8580 C.2   114  VAL114      0.2260
     63  O         93.6710   20.9320  126.6780 O.2   114  VAL114     -0.2867
     64  CB        91.4710   18.6070  125.5300 C.3   114  VAL114      0.0252
     65  CG1       90.1120   19.2120  125.1790 C.3   114  VAL114      0.0019
     66  CG2       91.5740   17.2310  124.8950 C.3   114  VAL114      0.0019
     67  N         92.4190   23.6510  128.6470 N.3   116  ASN116     -0.1240
     68  CA        92.3620   23.4540  130.0970 C.3   116  ASN116      0.1653
     69  C         91.0200   23.9480  130.7010 C.2   116  ASN116      0.2266
     70  O         90.9930   24.5180  131.7980 O.2   116  ASN116     -0.2867
     71  CB        93.5950   24.0590  130.7990 C.3   116  ASN116      0.1155
     72  CG        93.6990   23.7290  132.2760 C.2   116  ASN116      0.2627
     73  OD1       93.4160   22.6070  132.7220 O.2   116  ASN116     -0.2716
     74  ND2       94.0510   24.7220  133.0770 N.am  116  ASN116     -0.0877
     75  N         83.2420   17.6930  135.1630 N.3   158  HIS158     -0.1241
     76  CA        84.6870   17.7790  135.1580 C.3   158  HIS158      0.1621
     77  C         85.3900   16.7760  134.2580 C.2   158  HIS158      0.2264
     78  O         86.4990   16.9880  133.8680 O.2   158  HIS158     -0.2867
     79  CB        85.2650   17.6890  136.5850 C.3   158  HIS158      0.0745
     80  CG        86.7620   17.7430  136.6120 C.ar  158  HIS158      0.0817
     81  ND1       87.4660   18.8690  136.9830 N.ar  158  HIS158     -0.2268
     82  CD2       87.6950   16.8160  136.2770 C.ar  158  HIS158      0.1154
     83  CE1       88.7620   18.6220  136.9080 C.ar  158  HIS158      0.1986
     84  NE2       88.9250   17.4000  136.4290 N.ar  158  HIS158     -0.2212
     85  N         85.9420   17.4910  128.6430 N.3   161  MET161     -0.1245
     86  CA        86.7880   18.6370  128.3290 C.3   161  MET161      0.1570
     87  C         86.2060   19.2500  127.0710 C.2   161  MET161      0.2261
     88  O         85.8980   18.5420  126.1040 O.2   161  MET161     -0.2867
     89  CB        88.2630   18.2140  128.1650 C.3   161  MET161      0.0387
     90  CG        88.9770   17.8780  129.5080 C.3   161  MET161      0.0595
     91  SD        89.1270   19.2830  130.6490 S.3   161  MET161     -0.1393
     92  CE        89.2950   18.5170  132.1870 C.3   161  MET161      0.0692
     93  N         86.9900   12.2830  129.2580 N.3   172  ILE172     -0.1231
     94  CA        88.2880   11.9810  129.8720 C.3   172  ILE172      0.1692
     95  C         88.1170   11.1980  131.1740 C.2   172  ILE172      0.2592
     96  O         86.9950   10.8680  131.5990 O.2   172  ILE172     -0.2718
     97  CB        89.1030   13.3090  130.1340 C.3   172  ILE172      0.0266
     98  CG1       88.3980   14.2010  131.1790 C.3   172  ILE172      0.0019
     99  CG2       89.3710   14.0800  128.8290 C.3   172  ILE172      0.0020
    100  CD1       89.3600   15.0460  132.0200 C.3   172  ILE172      0.0001
    101  N         89.2640   10.9230  131.8370 N.am  173  ASP173     -0.1960
    102  CA        89.4190   10.2510  133.1220 C.3   173  ASP173      0.1840
    103  C         88.7140    8.9210  133.1550 C.2   173  ASP173      0.2622
    104  O         87.6480    8.7500  133.8010 O.2   173  ASP173     -0.2715
    105  CB        89.0820   11.0880  134.3680 C.3   173  ASP173      0.1450
    106  CG        89.8390   10.5790  135.6100 C.2   173  ASP173      0.3671
    107  OD1       90.2300    9.3670  135.6370 O.co2 173  ASP173     -0.2456
    108  OD2       90.1260   11.4000  136.5080 O.co2 173  ASP173     -0.2456
    109  N         89.3980    7.9640  132.5300 N.am  174  TRP174     -0.1974
    110  CA        88.9470    6.5860  132.4470 C.3   174  TRP174      0.1640
    111  C         89.4710    5.7150  133.6170 C.2   174  TRP174      0.2290
    112  O         89.4010    4.4880  133.5350 O.2   174  TRP174     -0.2864
    113  CB        89.3110    6.0190  131.0700 C.3   174  TRP174      0.0576
    114  CG        88.6180    6.7490  129.9590 C.ar  174  TRP174      0.0006
    115  CD1       88.9620    7.9590  129.4280 C.ar  174  TRP174      0.0946
    116  CD2       87.3430    6.4020  129.3860 C.ar  174  TRP174      0.0152
    117  NE1       88.0090    8.3620  128.5030 N.ar  174  TRP174     -0.2442
    118  CE2       87.0170    7.4080  128.4470 C.ar  174  TRP174      0.0810
    119  CE3       86.5070    5.2720  129.4870 C.ar  174  TRP174      0.0012
    120  CZ2       85.8480    7.3720  127.6840 C.ar  174  TRP174      0.0191
    121  CZ3       85.3380    5.2440  128.7490 C.ar  174  TRP174      0.0001
    122  CH2       85.0030    6.2880  127.8730 C.ar  174  TRP174      0.0015
@<TRIPOS>BOND
     1    58    57   ar
     2    57    59   ar
     3    57    56    1
     4    55    56    1
     5    55    52    1
     6    52    53    1
     7    52    51    1
     8    53    54    2
     9    51    42   am
    10    34    35    2
    11    34    33    1
    12    32    33    1
    13    33    36    1
    14    66    64    1
    15    61    60    1
    16    61    64    1
    17    61    62    1
    18    65    64    1
    19    42    43    2
    20    42    41    1
    21    39    37    1
    22    62    63    2
    23    88    87    2
    24    41    40    1
    25    41    44    1
    26    36    37    1
    27    36    38    1
    28    87    86    1
    29    44    45    1
    30    16    17    1
    31    46    45   ar
    32    46    48   ar
    33   120   122   ar
    34   120   118   ar
    35   122   121   ar
    36    45    47   ar
    37    89    86    1
    38    89    90    1
    39    86    85    1
    40   118   117   ar
    41   118   116   ar
    42   117   115   ar
    43    22    20    1
    44    48    50   ar
    45    67    68    1
    46   121   119   ar
    47    99    97    1
    48    19    18    2
    49    17    20    1
    50    17    18    1
    51    20    21    1
    52    93    94    1
    53   116   119   ar
    54   116   114   ar
    55    47    49   ar
    56   115   114   ar
    57    90    91    1
    58    94    97    1
    59    94    95    1
    60    50    49   ar
    61   114   113    1
    62    68    69    1
    63    68    71    1
    64    97    98    1
    65    91    92    1
    66    69    70    2
    67    71    72    1
    68   113   110    1
    69    95    96    2
    70    95   101   am
    71    98   100    1
    72   101   102    1
    73     7     6    1
    74    72    73    2
    75    72    74   am
    76   110   109    1
    77   110   111    1
    78   109   103   am
    79    23    24    1
    80   102   103    1
    81   102   105    1
    82   103   104    2
    83     8     6    1
    84     6     5    1
    85   112   111    2
    86    27    24    1
    87    27    28    1
    88    78    77    2
    89    14    13    1
    90    24    25    1
    91    29    28    1
    92    29    30    1
    93    26    25    2
    94    77    76    1
    95   105   106    1
    96    31    30    1
    97     5     2    1
    98    76    75    1
    99    76    79    1
   100    13    15    1
   101    13    10    1
   102    11    10    1
   103    11    12    2
   104   106   107   ar
   105   106   108   ar
   106    10     9    1
   107     2     1    1
   108     2     3    1
   109    82    84   ar
   110    82    80   ar
   111    84    83   ar
   112    79    80    1
   113    80    81   ar
   114    83    81   ar
   115     3     4    2
