@<TRIPOS>MOLECULE
tmp/5cswA00.pdb
 202 193 0 0 0
SMALL
GASTEIGER

@<TRIPOS>ATOM
      1  N        -22.3810   18.2020   41.8210 N.3    15  ILE15      -0.1231
      2  CA       -23.3210   17.0700   41.9240 C.3    15  ILE15       0.1692
      3  C        -23.2790   16.4680   43.3250 C.2    15  ILE15       0.2593
      4  O        -24.3230   16.3030   43.9660 O.2    15  ILE15      -0.2718
      5  CB       -23.0290   15.9550   40.8740 C.3    15  ILE15       0.0266
      6  CG1      -23.6600   16.2830   39.5170 C.3    15  ILE15       0.0019
      7  CG2      -23.6350   14.6260   41.3020 C.3    15  ILE15       0.0020
      8  CD1      -23.3430   17.6430   38.9640 C.3    15  ILE15       0.0001
      9  N        -22.0740   16.1220   43.7770 N.am   16  GLY16      -0.1942
     10  CA       -21.8560   15.6180   45.1390 C.3    16  GLY16       0.2014
     11  C        -20.5260   14.9060   45.3360 C.2    16  GLY16       0.2640
     12  O        -19.5870   15.0890   44.5390 O.2    16  GLY16      -0.2714
     13  N        -20.4590   14.0870   46.3940 N.am   17  SER17      -0.1935
     14  CA       -19.2300   13.3860   46.8040 C.3    17  SER17       0.2055
     15  C        -19.4700   11.9640   47.3230 C.2    17  SER17       0.2643
     16  O        -20.5240   11.6630   47.8750 O.2    17  SER17      -0.2714
     17  CB       -18.4980   14.2010   47.8680 C.3    17  SER17       0.2130
     18  OG       -19.3790   14.5790   48.9040 O.3    17  SER17      -0.2179
     19  N        -18.4620   11.1070   47.1490 N.am   18  GLY18      -0.1954
     20  CA       -18.5440    9.6680   47.4630 C.3    18  GLY18       0.1869
     21  C        -17.3750    9.1840   48.3180 C.2    18  GLY18       0.2309
     22  O        -17.0790    9.7890   49.3610 O.2    18  GLY18      -0.2863
     23  N        -13.9160    8.8960   47.5760 N.3    20  PHE20      -0.1241
     24  CA       -12.9700   10.0150   47.4810 C.3    20  PHE20       0.1605
     25  C        -13.4690   11.0850   46.4960 C.2    20  PHE20       0.2264
     26  O        -14.3870   10.8380   45.7210 O.2    20  PHE20      -0.2867
     27  CB       -11.5440    9.5250   47.1430 C.3    20  PHE20       0.0534
     28  CG       -11.4030    8.8580   45.7920 C.ar   20  PHE20      -0.0203
     29  CD1      -11.7630    7.5170   45.6120 C.ar   20  PHE20      -0.0042
     30  CD2      -10.8630    9.5570   44.7070 C.ar   20  PHE20      -0.0042
     31  CE1      -11.6190    6.8920   44.3470 C.ar   20  PHE20      -0.0003
     32  CE2      -10.7190    8.9480   43.4610 C.ar   20  PHE20      -0.0003
     33  CZ       -11.1030    7.6080   43.2810 C.ar   20  PHE20      -0.0000
     34  N        -17.5220   15.6670   43.0950 N.3    23  VAL23      -0.1245
     35  CA       -17.8650   15.5260   41.6680 C.3    23  VAL23       0.1561
     36  C        -18.6650   16.7040   41.1100 C.2    23  VAL23       0.2260
     37  O        -19.6060   17.1700   41.7520 O.2    23  VAL23      -0.2867
     38  CB       -18.6390   14.2340   41.4090 C.3    23  VAL23       0.0252
     39  CG1      -19.0680   14.1490   39.9610 C.3    23  VAL23       0.0019
     40  CG2      -17.7890   13.0180   41.7740 C.3    23  VAL23       0.0019
     41  N        -17.9410   14.5230   33.5570 N.3    33  ALA33      -0.1245
     42  CA       -17.9240   14.7280   35.0070 C.3    33  ALA33       0.1562
     43  C        -16.4910   15.0880   35.3780 C.2    33  ALA33       0.2260
     44  O        -15.5360   14.6320   34.7330 O.2    33  ALA33      -0.2867
     45  CB       -18.3730   13.4870   35.7760 C.3    33  ALA33       0.0290
     46  N        -14.1400   15.1940   38.7650 N.3    35  LYS35      -0.1245
     47  CA       -13.9230   14.8330   40.1580 C.3    35  LYS35       0.1561
     48  C        -12.7430   15.6420   40.6690 C.2    35  LYS35       0.2260
     49  O        -11.6030   15.3800   40.2810 O.2    35  LYS35      -0.2867
     50  CB       -13.6390   13.3400   40.2510 C.3    35  LYS35       0.0271
     51  CG       -13.7040   12.7590   41.6310 C.3    35  LYS35       0.0035
     52  CD       -13.8030   11.2470   41.5260 C.3    35  LYS35       0.0206
     53  CE       -14.1630   10.6100   42.8150 C.3    35  LYS35       0.1093
     54  NZ       -14.4680    9.1630   42.6210 N.3    35  LYS35      -0.1314
     55  N         -7.0070    3.8120   36.9670 N.3    57  LEU57      -0.1245
     56  CA        -8.1670    4.1700   36.1390 C.3    57  LEU57       0.1561
     57  C         -7.8700    4.0100   34.6270 C.2    57  LEU57       0.2260
     58  O         -8.6980    3.4610   33.8930 O.2    57  LEU57      -0.2867
     59  CB        -8.6170    5.5980   36.4280 C.3    57  LEU57       0.0270
     60  CG        -8.9120    5.9760   37.8840 C.3    57  LEU57       0.0019
     61  CD1       -9.3610    7.4330   37.9670 C.3    57  LEU57       0.0001
     62  CD2       -9.9310    5.0520   38.5050 C.3    57  LEU57       0.0001
     63  N         -8.3700    0.7410   32.5440 N.3    60  THR60      -0.1218
     64  CA        -9.7090    0.2650   32.1900 C.3    60  THR60       0.1862
     65  C        -10.2310    0.8810   30.8860 C.2    60  THR60       0.2287
     66  O        -10.3940    2.1090   30.7850 O.2    60  THR60      -0.2866
     67  CB       -10.7400    0.5320   33.3270 C.3    60  THR60       0.1770
     68  OG1      -11.1370    1.9130   33.3370 O.3    60  THR60      -0.2211
     69  CG2      -10.1560    0.1420   34.6790 C.3    60  THR60       0.0375
     70  N        -17.7210   -0.0550   32.4410 N.3    65  ILE65      -0.1231
     71  CA       -16.9450    0.6960   33.4170 C.3    65  ILE65       0.1692
     72  C        -16.9340    2.1580   32.9980 C.2    65  ILE65       0.2591
     73  O        -16.7020    2.4650   31.8290 O.2    65  ILE65      -0.2718
     74  CB       -15.4890    0.1770   33.5190 C.3    65  ILE65       0.0266
     75  CG1      -15.4780   -1.2850   33.9750 C.3    65  ILE65       0.0019
     76  CG2      -14.6580    1.0330   34.5020 C.3    65  ILE65       0.0020
     77  CD1      -16.2060   -1.5520   35.3070 C.3    65  ILE65       0.0001
     78  N        -17.1820    3.0480   33.9610 N.am   66  LEU66      -0.1980
     79  CA       -17.1990    4.4850   33.7250 C.3    66  LEU66       0.1596
     80  C        -15.9190    4.8430   32.9820 C.2    66  LEU66       0.2287
     81  O        -14.8480    4.3060   33.3030 O.2    66  LEU66      -0.2864
     82  CB       -17.3050    5.2250   35.0560 C.3    66  LEU66       0.0297
     83  CG       -17.4320    6.7460   35.0800 C.3    66  LEU66       0.0022
     84  CD1      -18.5950    7.2600   34.2560 C.3    66  LEU66       0.0001
     85  CD2      -17.5840    7.1910   36.5290 C.3    66  LEU66       0.0001
     86  N        -12.7300    6.5400   31.9250 N.3    68  PHE68      -0.1241
     87  CA       -11.6500    7.4690   32.2680 C.3    68  PHE68       0.1605
     88  C        -11.2540    8.2640   31.0260 C.2    68  PHE68       0.2264
     89  O        -10.9930    7.6670   30.0070 O.2    68  PHE68      -0.2867
     90  CB       -10.4140    6.7340   32.8050 C.3    68  PHE68       0.0534
     91  CG        -9.2160    7.6130   32.9110 C.ar   68  PHE68      -0.0203
     92  CD1       -9.1460    8.5800   33.8990 C.ar   68  PHE68      -0.0042
     93  CD2       -8.1800    7.5220   31.9890 C.ar   68  PHE68      -0.0042
     94  CE1       -8.0450    9.4280   33.9890 C.ar   68  PHE68      -0.0003
     95  CE2       -7.0760    8.3580   32.0850 C.ar   68  PHE68      -0.0003
     96  CZ        -7.0130    9.3170   33.0830 C.ar   68  PHE68      -0.0000
     97  N         -9.8050   14.7290   37.9490 N.3    79  ILE79      -0.1245
     98  CA        -9.9790   13.6140   37.0100 C.3    79  ILE79       0.1561
     99  C        -11.2230   13.8540   36.1670 C.2    79  ILE79       0.2260
    100  O        -12.2860   14.1410   36.7170 O.2    79  ILE79      -0.2867
    101  CB       -10.1660   12.2730   37.7400 C.3    79  ILE79       0.0252
    102  CG1       -8.9750   11.9970   38.6610 C.3    79  ILE79       0.0019
    103  CG2      -10.3440   11.1380   36.7350 C.3    79  ILE79       0.0019
    104  CD1       -8.9920   10.6100   39.2780 C.3    79  ILE79       0.0001
    105  N        -13.9400   12.2380   33.4570 N.3    81  THR81      -0.1203
    106  CA       -14.5640   11.0070   32.9510 C.3    81  THR81       0.1994
    107  C        -15.7400   11.3380   32.0210 C.2    81  THR81       0.2618
    108  O        -16.1280   12.5030   31.9090 O.2    81  THR81      -0.2717
    109  CB       -15.1030   10.1680   34.1020 C.3    81  THR81       0.1784
    110  OG1      -16.2560   10.8060   34.6650 O.3    81  THR81      -0.2211
    111  CG2      -14.0460   10.0050   35.1680 C.3    81  THR81       0.0376
    112  N        -16.3070   10.3130   31.3710 N.am   82  GLN82      -0.1965
    113  CA       -17.5740   10.4660   30.6210 C.3    82  GLN82       0.1733
    114  C        -18.7000   10.8600   31.5620 C.2    82  GLN82       0.2616
    115  O        -18.6880   10.5020   32.7290 O.2    82  GLN82      -0.2715
    116  CB       -17.9720    9.1880   29.8900 C.3    82  GLN82       0.0408
    117  CG       -18.7230    8.1620   30.7380 C.3    82  GLN82       0.0908
    118  CD       -19.0470    6.8670   30.0100 C.2    82  GLN82       0.2608
    119  OE1      -19.0260    5.8000   30.6130 O.2    82  GLN82      -0.2717
    120  NE2      -19.3710    6.9580   28.7190 N.am   82  GLN82      -0.0878
    121  N        -19.6630   11.6010   31.0400 N.am   83  TRP83      -0.1960
    122  CA       -20.8160   12.0500   31.8160 C.3    83  TRP83       0.1771
    123  C        -21.9420   11.0820   31.5670 C.2    83  TRP83       0.2619
    124  O        -22.3400   10.9020   30.4220 O.2    83  TRP83      -0.2715
    125  CB       -21.2510   13.4400   31.3790 C.3    83  TRP83       0.0590
    126  CG       -22.4810   13.8800   32.0690 C.ar   83  TRP83       0.0006
    127  CD1      -23.7460   13.9120   31.5540 C.ar   83  TRP83       0.0946
    128  CD2      -22.5840   14.3290   33.4250 C.ar   83  TRP83       0.0152
    129  NE1      -24.6280   14.3690   32.5020 N.ar   83  TRP83      -0.2442
    130  CE2      -23.9460   14.6310   33.6590 C.ar   83  TRP83       0.0810
    131  CE3      -21.6580   14.5100   34.4620 C.ar   83  TRP83       0.0012
    132  CZ2      -24.4100   15.0940   34.8850 C.ar   83  TRP83       0.0191
    133  CZ3      -22.1220   14.9700   35.6920 C.ar   83  TRP83       0.0001
    134  CH2      -23.4910   15.2550   35.8890 C.ar   83  TRP83       0.0015
    135  N        -22.4490   10.4600   32.6310 N.am   84  CYS84      -0.1968
    136  CA       -23.6580    9.6240   32.5350 C.3    84  CYS84       0.1712
    137  C        -24.9390   10.4590   32.5910 C.2    84  CYS84       0.2296
    138  O        -25.2120   11.1530   33.5730 O.2    84  CYS84      -0.2864
    139  CB       -23.6740    8.5600   33.6230 C.3    84  CYS84       0.0983
    140  SG       -22.2850    7.4150   33.4630 S.3    84  CYS84      -0.0798
    141  N        -28.7890   10.4660   33.0160 N.3    86  GLY86      -0.1225
    142  CA       -29.7490    9.6390   33.7430 C.3    86  GLY86       0.1811
    143  C        -29.4400    9.6680   35.2240 C.2    86  GLY86       0.2280
    144  O        -28.9470   10.6740   35.7270 O.2    86  GLY86      -0.2866
    145  N        -25.9500    2.3430   44.3640 N.3   132  ASN132     -0.1225
    146  CA       -25.5960    3.7710   44.2370 C.3   132  ASN132      0.1785
    147  C        -24.4920    4.1120   43.2060 C.2   132  ASN132      0.2597
    148  O        -24.4400    5.2440   42.7220 O.2   132  ASN132     -0.2718
    149  CB       -25.1270    4.3080   45.6040 C.3   132  ASN132      0.1169
    150  CG       -26.2620    4.5230   46.5750 C.2   132  ASN132      0.2627
    151  OD1      -27.0960    5.4000   46.3590 O.2   132  ASN132     -0.2716
    152  ND2      -26.2900    3.7450   47.6720 N.am  132  ASN132     -0.0877
    153  N        -23.5890    3.1680   42.9410 N.am  133  ASN133     -0.1974
    154  CA       -22.4480    3.3600   42.0300 C.3   133  ASN133      0.1688
    155  C        -22.6140    2.6660   40.6860 C.2   133  ASN133      0.2292
    156  O        -21.6860    2.6820   39.8650 O.2   133  ASN133     -0.2864
    157  CB       -21.1810    2.7920   42.6620 C.3   133  ASN133      0.1181
    158  CG       -20.9230    3.3380   44.0110 C.2   133  ASN133      0.2629
    159  OD1      -21.5600    4.2930   44.4380 O.2   133  ASN133     -0.2716
    160  ND2      -19.9670    2.7650   44.6950 N.am  133  ASN133     -0.0877
    161  N        -24.4590    3.2370   37.6690 N.3   135  PHE135     -0.1241
    162  CA       -25.1530    4.2940   36.9290 C.3   135  PHE135      0.1605
    163  C        -25.7670    3.6920   35.6770 C.2   135  PHE135      0.2264
    164  O        -25.0470    3.0580   34.9100 O.2   135  PHE135     -0.2867
    165  CB       -24.1810    5.4030   36.4970 C.3   135  PHE135      0.0534
    166  CG       -23.3320    5.9660   37.6190 C.ar  135  PHE135     -0.0203
    167  CD1      -23.9120    6.7150   38.6510 C.ar  135  PHE135     -0.0042
    168  CD2      -21.9500    5.7700   37.6410 C.ar  135  PHE135     -0.0042
    169  CE1      -23.1250    7.2480   39.6980 C.ar  135  PHE135     -0.0003
    170  CE2      -21.1590    6.3080   38.6790 C.ar  135  PHE135     -0.0003
    171  CZ       -21.7540    7.0430   39.7050 C.ar  135  PHE135     -0.0000
    172  N        -20.2710    1.3360   35.9670 N.3   144  ILE144     -0.1231
    173  CA       -19.7470    1.1680   37.3240 C.3   144  ILE144      0.1692
    174  C        -18.6660    2.1960   37.5730 C.2   144  ILE144      0.2593
    175  O        -17.7880    2.3610   36.7440 O.2   144  ILE144     -0.2718
    176  CB       -19.1060   -0.2140   37.5290 C.3   144  ILE144      0.0266
    177  CG1      -20.1430   -1.3020   37.2670 C.3   144  ILE144      0.0019
    178  CG2      -18.5310   -0.3100   38.9330 C.3   144  ILE144      0.0020
    179  CD1      -19.7140   -2.6930   37.6170 C.3   144  ILE144      0.0001
    180  N        -18.7300    2.8660   38.7170 N.am  145  GLY145     -0.1942
    181  CA       -17.6760    3.7780   39.1630 C.3   145  GLY145      0.2014
    182  C        -17.6630    3.9310   40.6730 C.2   145  GLY145      0.2639
    183  O        -18.0930    3.0420   41.3900 O.2   145  GLY145     -0.2714
    184  N        -17.1970    5.0780   41.1450 N.am  146  ASP146     -0.1957
    185  CA       -16.9950    5.3710   42.5620 C.3   146  ASP146      0.1840
    186  C        -16.1590    4.3270   43.3000 C.2   146  ASP146      0.2622
    187  O        -16.6150    3.7410   44.2780 O.2   146  ASP146     -0.2715
    188  CB       -18.3430    5.5760   43.2610 C.3   146  ASP146      0.1450
    189  CG       -18.2200    6.3570   44.5590 C.2   146  ASP146      0.3671
    190  OD1      -17.7950    7.5290   44.4940 O.co2 146  ASP146     -0.2456
    191  OD2      -18.5600    5.8140   45.6360 O.co2 146  ASP146     -0.2456
    192  N        -14.9300    4.1120   42.8320 N.am  147  PHE147     -0.1974
    193  CA       -13.9770    3.2370   43.5340 C.3   147  PHE147      0.1639
    194  C        -13.5530    3.8800   44.8470 C.2   147  PHE147      0.2290
    195  O        -13.5020    3.2060   45.8720 O.2   147  PHE147     -0.2864
    196  CB       -12.7200    2.9290   42.6970 C.3   147  PHE147      0.0560
    197  CG       -12.9920    2.3140   41.3320 C.ar  147  PHE147     -0.0200
    198  CD1      -14.2560    1.8340   40.9570 C.ar  147  PHE147     -0.0042
    199  CD2      -11.9460    2.1990   40.4190 C.ar  147  PHE147     -0.0042
    200  CE1      -14.4520    1.2780   39.6820 C.ar  147  PHE147     -0.0003
    201  CE2      -12.1390    1.6520   39.1550 C.ar  147  PHE147     -0.0003
    202  CZ       -13.3820    1.1880   38.7820 C.ar  147  PHE147     -0.0000
@<TRIPOS>BOND
     1   120   118   am
     2   116   113    1
     3   116   117    1
     4    89    88    2
     5   118   119    2
     6   118   117    1
     7   124   123    2
     8   113   112    1
     9   113   114    1
    10    66    65    2
    11    65    64    1
    12    88    87    1
    13   121   114   am
    14   121   122    1
    15   112   107   am
    16   125   122    1
    17   125   126    1
    18   127   126   ar
    19   127   129   ar
    20   114   115    2
    21   123   122    1
    22   123   135   am
    23    73    72    2
    24   108   107    2
    25    86    87    1
    26    93    95   ar
    27    93    91   ar
    28   107   106    1
    29   126   128   ar
    30    95    96   ar
    31    64    63    1
    32    64    67    1
    33    87    90    1
    34    70    71    1
    35   129   130   ar
    36   136   137    1
    37   136   135    1
    38   136   139    1
    39   137   138    2
    40    90    91    1
    41    91    92   ar
    42   106   105    1
    43   106   109    1
    44    80    81    2
    45    80    79    1
    46    72    71    1
    47    72    78   am
    48   141   142    1
    49    96    94   ar
    50    67    68    1
    51    67    69    1
    52    71    74    1
    53   128   130   ar
    54   128   131   ar
    55   140   139    1
    56    74    75    1
    57    74    76    1
    58    41    42    1
    59   130   132   ar
    60    79    78    1
    61    79    82    1
    62   142   143    1
    63    58    57    2
    64    92    94   ar
    65    75    77    1
    66   109   110    1
    67   109   111    1
    68    84    83    1
    69   131   133   ar
    70    57    56    1
    71    44    43    2
    72   132   134   ar
    73   164   163    2
    74    42    43    1
    75    42    45    1
    76    82    83    1
    77    83    85    1
    78   143   144    2
    79   163   162    1
    80   133   134   ar
    81   172   173    1
    82    56    59    1
    83    56    55    1
    84    99   100    2
    85    99    98    1
    86    59    60    1
    87   165   162    1
    88   165   166    1
    89   103   101    1
    90   175   174    2
    91   162   161    1
    92    98   101    1
    93    98    97    1
    94   177   176    1
    95   177   179    1
    96   173   176    1
    97   173   174    1
    98   176   178    1
    99   174   180   am
   100   166   168   ar
   101   166   167   ar
   102   168   170   ar
   103   101   102    1
   104    60    61    1
   105    60    62    1
   106   167   169   ar
   107   102   104    1
   108   170   171   ar
   109   180   181    1
   110    46    47    1
   111   202   201   ar
   112   202   200   ar
   113     8     6    1
   114   201   199   ar
   115   181   182    1
   116     6     5    1
   117   200   198   ar
   118   169   171   ar
   119   156   155    2
   120    39    38    1
   121    47    50    1
   122    47    48    1
   123    50    51    1
   124    49    48    2
   125   199   197   ar
   126   182   184   am
   127   182   183    2
   128   155   154    1
   129     5     7    1
   130     5     2    1
   131   198   197   ar
   132    36    35    1
   133    36    37    2
   134   184   185    1
   135   197   196    1
   136    38    35    1
   137    38    40    1
   138    52    51    1
   139    52    53    1
   140    35    34    1
   141     1     2    1
   142     2     3    1
   143   154   157    1
   144   154   153    1
   145   185   188    1
   146   185   186    1
   147    54    53    1
   148   157   158    1
   149   196   193    1
   150   148   147    2
   151   192   186   am
   152   192   193    1
   153   153   147   am
   154   147   146    1
   155   188   189    1
   156    33    32   ar
   157    33    31   ar
   158   186   187    2
   159     3     9   am
   160     3     4    2
   161    32    30   ar
   162   193   194    1
   163     9    10    1
   164   158   159    2
   165   158   160   am
   166   146   145    1
   167   146   149    1
   168    31    29   ar
   169   190   189   ar
   170    12    11    2
   171   189   191   ar
   172    30    28   ar
   173   194   195    2
   174    10    11    1
   175    11    13   am
   176   149   150    1
   177    29    28   ar
   178    26    25    2
   179    28    27    1
   180   151   150    2
   181    13    14    1
   182    25    24    1
   183   150   152   am
   184    14    15    1
   185    14    17    1
   186    27    24    1
   187    19    15   am
   188    19    20    1
   189    15    16    2
   190    20    21    1
   191    24    23    1
   192    17    18    1
   193    21    22    2
