@<TRIPOS>MOLECULE
tmp/5csxA00.pdb
 203 194 0 0 0
SMALL
GASTEIGER

@<TRIPOS>ATOM
      1  N          9.1900  -78.0800   91.6930 N.3    16  ILE16      -0.1231
      2  CA        10.2750  -79.0500   91.8670 C.3    16  ILE16       0.1692
      3  C         10.9520  -78.9270   93.2420 C.2    16  ILE16       0.2592
      4  O         11.3830  -79.9300   93.8020 O.2    16  ILE16      -0.2718
      5  CB        11.2960  -78.9340   90.6830 C.3    16  ILE16       0.0266
      6  CG1       11.1280  -80.1110   89.7300 C.3    16  ILE16       0.0019
      7  CG2       12.7430  -78.8890   91.1530 C.3    16  ILE16       0.0020
      8  CD1        9.7910  -80.1850   89.0860 C.3    16  ILE16       0.0001
      9  N         11.0440  -77.7090   93.7720 N.am   17  GLY17      -0.1957
     10  CA        11.5720  -77.4860   95.1190 C.3    17  GLY17       0.1869
     11  C         11.1210  -76.1800   95.7440 C.2    17  GLY17       0.2309
     12  O         10.7140  -75.2500   95.0410 O.2    17  GLY17      -0.2863
     13  N         11.1790  -73.2700   92.9890 N.3    24  VAL24      -0.1245
     14  CA        11.6240  -73.6530   91.6490 C.3    24  VAL24       0.1561
     15  C         10.5710  -74.5030   90.9590 C.2    24  VAL24       0.2260
     16  O         10.0590  -75.4550   91.5410 O.2    24  VAL24      -0.2867
     17  CB        12.9310  -74.4630   91.6890 C.3    24  VAL24       0.0252
     18  CG1       13.5330  -74.5550   90.2940 C.3    24  VAL24       0.0019
     19  CG2       13.9210  -73.8300   92.6460 C.3    24  VAL24       0.0019
     20  N         13.8440  -74.4620   83.6200 N.3    34  ALA34      -0.1231
     21  CA        13.6310  -74.3330   85.0560 C.3    34  ALA34       0.1694
     22  C         13.3990  -72.8560   85.3430 C.2    34  ALA34       0.2592
     23  O         14.0630  -72.0020   84.7510 O.2    34  ALA34      -0.2718
     24  CB        14.8260  -74.8470   85.8310 C.3    34  ALA34       0.0304
     25  N         12.4520  -72.5710   86.2420 N.am   35  VAL35      -0.1966
     26  CA        12.0890  -71.2090   86.6430 C.3    35  VAL35       0.1727
     27  C         12.1370  -71.0710   88.1640 C.2    35  VAL35       0.2616
     28  O         11.2600  -71.5850   88.8670 O.2    35  VAL35      -0.2715
     29  CB        10.6630  -70.8450   86.1760 C.3    35  VAL35       0.0290
     30  CG1       10.3120  -69.4250   86.6050 C.3    35  VAL35       0.0023
     31  CG2       10.5380  -70.9990   84.6770 C.3    35  VAL35       0.0023
     32  N         13.1530  -70.3740   88.6660 N.am   36  LYS36      -0.1977
     33  CA        13.2590  -70.0700   90.0870 C.3    36  LYS36       0.1596
     34  C         12.5620  -68.7390   90.3470 C.2    36  LYS36       0.2287
     35  O         13.0490  -67.6910   89.9220 O.2    36  LYS36      -0.2864
     36  CB        14.7220  -70.0030   90.5200 C.3    36  LYS36       0.0298
     37  CG        14.9360  -69.6860   91.9970 C.3    36  LYS36       0.0038
     38  CD        16.4110  -69.6270   92.3340 C.3    36  LYS36       0.0206
     39  CE        16.6560  -68.9440   93.6640 C.3    36  LYS36       0.1093
     40  NZ        18.1140  -68.7330   93.8860 N.3    36  LYS36      -0.1314
     41  N         24.7930  -63.3560   86.1560 N.3    58  LEU58      -0.1245
     42  CA        24.4040  -64.5380   85.3600 C.3    58  LEU58       0.1561
     43  C         24.5080  -64.2940   83.8370 C.2    58  LEU58       0.2260
     44  O         24.9220  -65.1770   83.0800 O.2    58  LEU58      -0.2867
     45  CB        22.9790  -64.9820   85.7190 C.3    58  LEU58       0.0270
     46  CG        22.6430  -65.2820   87.1860 C.3    58  LEU58       0.0019
     47  CD1       21.2030  -65.7880   87.3170 C.3    58  LEU58       0.0001
     48  CD2       23.6270  -66.2530   87.8000 C.3    58  LEU58       0.0001
     49  N         27.8680  -65.1580   81.9950 N.3    61  THR61      -0.1218
     50  CA        28.3420  -66.5510   81.9240 C.3    61  THR61       0.1862
     51  C         27.8640  -67.2790   80.6600 C.2    61  THR61       0.2287
     52  O         26.6560  -67.4920   80.4700 O.2    61  THR61      -0.2866
     53  CB        27.9380  -67.3600   83.1900 C.3    61  THR61       0.1770
     54  OG1       26.5160  -67.5360   83.2400 O.3    61  THR61      -0.2211
     55  CG2       28.4040  -66.6400   84.4500 C.3    61  THR61       0.0375
     56  N         28.6640  -74.3810   83.1770 N.3    66  ILE66      -0.1231
     57  CA        27.8780  -73.4850   84.0100 C.3    66  ILE66       0.1692
     58  C         26.4200  -73.5880   83.5530 C.2    66  ILE66       0.2591
     59  O         26.1210  -73.4390   82.3630 O.2    66  ILE66      -0.2718
     60  CB        28.3490  -72.0020   83.8830 C.3    66  ILE66       0.0266
     61  CG1       29.8500  -71.8550   84.1630 C.3    66  ILE66       0.0019
     62  CG2       27.5600  -71.1050   84.8250 C.3    66  ILE66       0.0020
     63  CD1       30.2770  -72.3160   85.5270 C.3    66  ILE66       0.0001
     64  N         25.5170  -73.8200   84.5010 N.am   67  LEU67      -0.1980
     65  CA        24.0770  -73.8610   84.2220 C.3    67  LEU67       0.1596
     66  C         23.6710  -72.6600   83.3660 C.2    67  LEU67       0.2287
     67  O         23.9640  -71.5080   83.7170 O.2    67  LEU67      -0.2864
     68  CB        23.2700  -73.8800   85.5280 C.3    67  LEU67       0.0297
     69  CG        21.7770  -74.1880   85.4120 C.3    67  LEU67       0.0022
     70  CD1       21.5530  -75.6290   84.9340 C.3    67  LEU67       0.0001
     71  CD2       21.1030  -73.9370   86.7430 C.3    67  LEU67       0.0001
     72  N         21.9960  -69.7910   82.0650 N.3    69  PHE69      -0.1241
     73  CA        21.0420  -68.6810   82.2220 C.3    69  PHE69       0.1605
     74  C         20.3520  -68.4630   80.8780 C.2    69  PHE69       0.2264
     75  O         21.0180  -68.4710   79.8580 O.2    69  PHE69      -0.2867
     76  CB        21.7920  -67.4140   82.6650 C.3    69  PHE69       0.0534
     77  CG        20.9760  -66.1490   82.6120 C.ar   69  PHE69      -0.0203
     78  CD1       19.9650  -65.9190   83.5350 C.ar   69  PHE69      -0.0042
     79  CD2       21.2500  -65.1690   81.6590 C.ar   69  PHE69      -0.0042
     80  CE1       19.2140  -64.7380   83.5050 C.ar   69  PHE69      -0.0003
     81  CE2       20.5100  -63.9760   81.6160 C.ar   69  PHE69      -0.0003
     82  CZ        19.4890  -63.7610   82.5450 C.ar   69  PHE69      -0.0000
     83  N         13.9230  -66.1070   87.7530 N.3    80  ILE80      -0.1245
     84  CA        15.1300  -66.3750   86.9560 C.3    80  ILE80       0.1561
     85  C         14.9450  -67.6790   86.1840 C.2    80  ILE80       0.2260
     86  O         14.5350  -68.6850   86.7560 O.2    80  ILE80      -0.2867
     87  CB        16.3700  -66.4590   87.8420 C.3    80  ILE80       0.0252
     88  CG1       16.5790  -65.1150   88.5490 C.3    80  ILE80       0.0019
     89  CG2       17.6010  -66.8660   87.0130 C.3    80  ILE80       0.0019
     90  CD1       17.8690  -65.0020   89.2990 C.3    80  ILE80       0.0001
     91  N         16.4540  -70.7120   83.7750 N.3    82  THR82      -0.1203
     92  CA        17.5970  -71.4830   83.2870 C.3    82  THR82       0.1994
     93  C         17.1320  -72.6670   82.4520 C.2    82  THR82       0.2618
     94  O         15.9500  -73.0200   82.4450 O.2    82  THR82      -0.2717
     95  CB        18.4630  -72.0340   84.4460 C.3    82  THR82       0.1784
     96  OG1       17.7360  -73.0440   85.1690 O.3    82  THR82      -0.2211
     97  CG2       18.8780  -70.9190   85.4100 C.3    82  THR82       0.0376
     98  N         18.0800  -73.2870   81.7600 N.am   83  GLN83      -0.1965
     99  CA        17.8540  -74.5630   81.0830 C.3    83  GLN83       0.1733
    100  C         17.3310  -75.6270   82.0550 C.2    83  GLN83       0.2616
    101  O         17.6310  -75.5800   83.2610 O.2    83  GLN83      -0.2715
    102  CB        19.1550  -75.0800   80.4480 C.3    83  GLN83       0.0408
    103  CG        20.2640  -75.4340   81.4560 C.3    83  GLN83       0.0908
    104  CD        21.4510  -76.1420   80.8350 C.2    83  GLN83       0.2608
    105  OE1       22.5830  -75.7330   81.0170 O.2    83  GLN83      -0.2717
    106  NE2       21.1930  -77.2150   80.1160 N.am   83  GLN83      -0.0878
    107  N         16.5610  -76.5740   81.5210 N.am   84  TRP84      -0.1960
    108  CA        16.1450  -77.7480   82.2770 C.3    84  TRP84       0.1771
    109  C         17.1360  -78.8720   82.0390 C.2    84  TRP84       0.2619
    110  O         17.3240  -79.2910   80.8980 O.2    84  TRP84      -0.2715
    111  CB        14.7550  -78.2120   81.8580 C.3    84  TRP84       0.0590
    112  CG        14.3370  -79.4350   82.5880 C.ar   84  TRP84       0.0006
    113  CD1       14.3360  -80.7070   82.1140 C.ar   84  TRP84       0.0946
    114  CD2       13.9030  -79.5060   83.9470 C.ar   84  TRP84       0.0152
    115  NE1       13.9030  -81.5720   83.0880 N.ar   84  TRP84      -0.2442
    116  CE2       13.6330  -80.8610   84.2250 C.ar   84  TRP84       0.0810
    117  CE3       13.7150  -78.5520   84.9600 C.ar   84  TRP84       0.0012
    118  CZ2       13.1840  -81.2960   85.4710 C.ar   84  TRP84       0.0191
    119  CZ3       13.2620  -78.9830   86.2030 C.ar   84  TRP84       0.0001
    120  CH2       13.0020  -80.3500   86.4440 C.ar   84  TRP84       0.0015
    121  N         17.7440  -79.3660   83.1170 N.am   85  CYS85      -0.1968
    122  CA        18.6760  -80.4950   83.0560 C.3    85  CYS85       0.1712
    123  C         18.0410  -81.7910   83.5610 C.2    85  CYS85       0.2296
    124  O         17.4460  -81.8200   84.6240 O.2    85  CYS85      -0.2864
    125  CB        19.9150  -80.1840   83.8900 C.3    85  CYS85       0.0983
    126  SG        20.9160  -78.8870   83.1800 S.3    85  CYS85      -0.0798
    127  N         18.5660  -85.3630   85.2130 N.3    87  GLY87      -0.1210
    128  CA        19.5490  -86.0480   86.0620 C.3    87  GLY87       0.1956
    129  C         19.4890  -85.6160   87.5180 C.2    87  GLY87       0.2613
    130  O         18.4340  -85.2400   88.0210 O.2    87  GLY87      -0.2717
    131  N         20.6350  -85.6650   88.1900 N.am   88  SER88      -0.1938
    132  CA        20.7360  -85.2610   89.5920 C.3    88  SER88       0.2055
    133  C         22.1670  -84.8420   89.9620 C.2    88  SER88       0.2643
    134  O         23.1050  -85.0370   89.1850 O.2    88  SER88      -0.2714
    135  CB        20.2120  -86.3830   90.5100 C.3    88  SER88       0.2130
    136  OG        20.6980  -87.6530   90.1130 O.3    88  SER88      -0.2179
    137  N         22.3140  -84.2510   91.1450 N.am   89  SER89      -0.1949
    138  CA        23.5650  -83.6080   91.5570 C.3    89  SER89       0.1924
    139  C         24.6390  -84.6000   91.9600 C.2    89  SER89       0.2314
    140  O         24.3400  -85.7530   92.2590 O.2    89  SER89      -0.2863
    141  CB        23.3110  -82.6460   92.7160 C.3    89  SER89       0.2116
    142  OG        23.1090  -83.3500   93.9270 O.3    89  SER89      -0.2180
    143  N         23.9100  -86.1250   95.3730 N.3    92  HIS92      -0.1241
    144  CA        22.9380  -87.2230   95.3040 C.3    92  HIS92       0.1621
    145  C         23.5560  -88.5200   94.7890 C.2    92  HIS92       0.2264
    146  O         23.2570  -89.5910   95.3040 O.2    92  HIS92      -0.2867
    147  CB        21.7230  -86.8520   94.4400 C.3    92  HIS92       0.0745
    148  CG        20.5510  -87.7590   94.6440 C.ar   92  HIS92       0.0817
    149  ND1       20.0270  -88.5420   93.6390 N.ar   92  HIS92      -0.2268
    150  CD2       19.8250  -88.0350   95.7540 C.ar   92  HIS92       0.1154
    151  CE1       19.0120  -89.2420   94.1160 C.ar   92  HIS92       0.1986
    152  NE2       18.8730  -88.9580   95.3980 N.ar   92  HIS92      -0.2212
    153  N         25.4950  -80.1100   89.2700 N.3   136  PHE136     -0.1241
    154  CA        24.4980  -80.9760   88.6400 C.3   136  PHE136      0.1605
    155  C         25.1610  -81.8250   87.5540 C.2   136  PHE136      0.2264
    156  O         25.9020  -81.2850   86.7310 O.2   136  PHE136     -0.2867
    157  CB        23.3820  -80.1260   88.0170 C.3   136  PHE136      0.0534
    158  CG        22.0900  -80.8600   87.8320 C.ar  136  PHE136     -0.0203
    159  CD1       21.9040  -81.7110   86.7400 C.ar  136  PHE136     -0.0042
    160  CD2       21.0540  -80.7160   88.7550 C.ar  136  PHE136     -0.0042
    161  CE1       20.6910  -82.3980   86.5580 C.ar  136  PHE136     -0.0003
    162  CE2       19.8520  -81.4010   88.5900 C.ar  136  PHE136     -0.0003
    163  CZ        19.6700  -82.2440   87.4850 C.ar  136  PHE136     -0.0000
    164  N         25.9550  -74.5640   89.3000 N.3   146  GLY146     -0.1210
    165  CA        24.9180  -73.5910   89.6100 C.3   146  GLY146      0.1956
    166  C         24.9010  -73.2930   91.0950 C.2   146  GLY146      0.2612
    167  O         25.9110  -73.4670   91.7810 O.2   146  GLY146     -0.2717
    168  N         23.7580  -72.8130   91.5750 N.am  147  ASP147     -0.1959
    169  CA        23.5370  -72.5440   92.9940 C.3   147  ASP147      0.1840
    170  C         22.1110  -72.9790   93.3000 C.2   147  ASP147      0.2622
    171  O         21.1610  -72.2260   93.0960 O.2   147  ASP147     -0.2715
    172  CB        23.7640  -71.0570   93.3090 C.3   147  ASP147      0.1450
    173  CG        23.9970  -70.7980   94.7980 C.2   147  ASP147      0.3671
    174  OD1       25.0090  -70.1270   95.1340 O.co2 147  ASP147     -0.2456
    175  OD2       23.1800  -71.2690   95.6290 O.co2 147  ASP147     -0.2456
    176  N         21.9720  -74.2090   93.7810 N.am  148  PHE148     -0.1974
    177  CA        20.6720  -74.8700   93.8560 C.3   148  PHE148      0.1639
    178  C         20.0040  -74.6850   95.2220 C.2   148  PHE148      0.2290
    179  O         18.9770  -75.3060   95.4970 O.2   148  PHE148     -0.2864
    180  CB        20.8220  -76.3580   93.4750 C.3   148  PHE148      0.0560
    181  CG        21.2110  -76.5770   92.0300 C.ar  148  PHE148     -0.0200
    182  CD1       22.5110  -76.3420   91.5960 C.ar  148  PHE148     -0.0042
    183  CD2       20.2770  -77.0170   91.1020 C.ar  148  PHE148     -0.0042
    184  CE1       22.8770  -76.5340   90.2560 C.ar  148  PHE148     -0.0003
    185  CE2       20.6250  -77.2130   89.7580 C.ar  148  PHE148     -0.0003
    186  CZ        21.9270  -76.9660   89.3340 C.ar  148  PHE148     -0.0000
    187  N         17.7530  -72.9260   98.0590 N.3   150  LEU150     -0.1245
    188  CA        16.5440  -72.0910   98.1460 C.3   150  LEU150      0.1561
    189  C         16.2540  -71.6040   99.5750 C.2   150  LEU150      0.2260
    190  O         15.1920  -71.0340   99.8300 O.2   150  LEU150     -0.2867
    191  CB        15.3340  -72.8630   97.6060 C.3   150  LEU150      0.0270
    192  CG        15.4490  -73.4410   96.1970 C.3   150  LEU150      0.0019
    193  CD1       14.1940  -74.2000   95.8480 C.3   150  LEU150      0.0001
    194  CD2       15.7130  -72.3460   95.1790 C.3   150  LEU150      0.0001
    195  N         21.5830  -65.2900   98.4110 N.3   154  LYS154     -0.1245
    196  CA        23.0050  -65.5330   98.1900 C.3   154  LYS154      0.1561
    197  C         23.8320  -64.4410   98.8680 C.2   154  LYS154      0.2260
    198  O         23.5830  -63.2490   98.6610 O.2   154  LYS154     -0.2867
    199  CB        23.3250  -65.6150   96.6970 C.3   154  LYS154      0.0271
    200  CG        22.7000  -66.8260   96.0240 C.3   154  LYS154      0.0035
    201  CD        23.0070  -66.8780   94.5420 C.3   154  LYS154      0.0206
    202  CE        22.0330  -67.7930   93.8120 C.3   154  LYS154      0.1093
    203  NZ        22.3210  -67.8800   92.3540 N.3   154  LYS154     -0.1314
@<TRIPOS>BOND
     1    75    74    2
     2   106   104   am
     3   102    99    1
     4   102   103    1
     5    52    51    2
     6    51    50    1
     7   104   105    2
     8   104   103    1
     9    74    73    1
    10   110   109    2
    11    99    98    1
    12    99   100    1
    13   107   100   am
    14   107   108    1
    15    81    79   ar
    16    81    82   ar
    17    79    77   ar
    18    98    93   am
    19   111   108    1
    20   111   112    1
    21    50    49    1
    22    50    53    1
    23   109   108    1
    24   109   121   am
    25   100   101    2
    26    72    73    1
    27   113   112   ar
    28   113   115   ar
    29    73    76    1
    30    59    58    2
    31    94    93    2
    32    93    92    1
    33    82    80   ar
    34   112   114   ar
    35    77    76    1
    36    77    78   ar
    37   122   121    1
    38   122   123    1
    39   122   125    1
    40    44    43    2
    41   115   116   ar
    42    56    57    1
    43   126   125    1
    44    53    54    1
    45    53    55    1
    46    92    91    1
    47    92    95    1
    48    66    67    2
    49    66    65    1
    50    80    78   ar
    51    58    57    1
    52    58    64   am
    53   123   124    2
    54    20    21    1
    55    43    42    1
    56    60    57    1
    57    60    61    1
    58    60    62    1
    59   114   116   ar
    60   114   117   ar
    61    61    63    1
    62    65    64    1
    63    65    68    1
    64   116   118   ar
    65    95    96    1
    66    95    97    1
    67    31    29    1
    68    23    22    2
    69    70    69    1
    70   117   119   ar
    71    21    22    1
    72    21    24    1
    73   127   128    1
    74    22    25   am
    75    42    45    1
    76    42    41    1
    77    69    68    1
    78    69    71    1
    79   118   120   ar
    80    45    46    1
    81   128   129    1
    82    29    30    1
    83    29    26    1
    84    85    86    2
    85    85    84    1
    86   119   120   ar
    87    25    26    1
    88   161   159   ar
    89   161   163   ar
    90    26    27    1
    91   156   155    2
    92   159   158   ar
    93    84    83    1
    94    84    87    1
    95    89    87    1
    96    46    47    1
    97    46    48    1
    98   163   162   ar
    99   129   130    2
   100   129   131   am
   101   155   154    1
   102   158   157    1
   103   158   160   ar
   104    87    88    1
   105   157   154    1
   106    27    32   am
   107    27    28    2
   108   131   132    1
   109    88    90    1
   110   162   160   ar
   111   154   153    1
   112    32    33    1
   113     8     6    1
   114   134   133    2
   115   164   165    1
   116   186   185   ar
   117   186   184   ar
   118   132   133    1
   119   132   135    1
   120   165   166    1
   121     6     5    1
   122   185   183   ar
   123    35    34    2
   124   133   137   am
   125    33    34    1
   126    33    36    1
   127   136   135    1
   128   184   182   ar
   129    18    17    1
   130    36    37    1
   131     5     7    1
   132     5     2    1
   133    15    16    2
   134    15    14    1
   135   166   168   am
   136   166   167    2
   137   183   181   ar
   138   137   138    1
   139   138   139    1
   140   138   141    1
   141   168   169    1
   142   182   181   ar
   143    14    17    1
   144    14    13    1
   145    17    19    1
   146     1     2    1
   147     2     3    1
   148   139   140    2
   149    37    38    1
   150   181   180    1
   151    38    39    1
   152   203   202    1
   153   141   142    1
   154   169   170    1
   155   169   172    1
   156   171   170    2
   157     3     9   am
   158     3     4    2
   159   170   176   am
   160   172   173    1
   161   180   177    1
   162   149   151   ar
   163   149   148   ar
   164    39    40    1
   165     9    10    1
   166   176   177    1
   167   202   201    1
   168   177   178    1
   169   151   152   ar
   170   147   148    1
   171   147   144    1
   172   201   200    1
   173   148   150   ar
   174   145   146    2
   175   145   144    1
   176   173   174   ar
   177   173   175   ar
   178    12    11    2
   179    10    11    1
   180   194   192    1
   181   178   179    2
   182   144   143    1
   183   152   150   ar
   184   193   192    1
   185   200   199    1
   186   192   191    1
   187   199   196    1
   188   191   188    1
   189   187   188    1
   190   188   189    1
   191   196   195    1
   192   196   197    1
   193   198   197    2
   194   189   190    2
