@<TRIPOS>MOLECULE
tmp/5csxA01.pdb
 121 113 0 0 0
SMALL
GASTEIGER

@<TRIPOS>ATOM
      1  N         22.3000  -59.7130   90.4140 N.3    54  GLU54      -0.1245
      2  CA        22.4760  -61.1330   90.1020 C.3    54  GLU54       0.1567
      3  C         22.2390  -61.3900   88.6120 C.2    54  GLU54       0.2260
      4  O         23.0680  -62.0260   87.9660 O.2    54  GLU54      -0.2867
      5  CB        21.5740  -62.0220   90.9640 C.3    54  GLU54       0.0388
      6  CG        21.6840  -63.5310   90.6270 C.3    54  GLU54       0.1160
      7  CD        22.0720  -64.3960   91.8090 C.2    54  GLU54       0.3649
      8  OE1       21.4450  -64.2730   92.8850 O.co2  54  GLU54      -0.2457
      9  OE2       23.0070  -65.2100   91.6450 O.co2  54  GLU54      -0.2457
     10  N         25.1850  -60.5710   86.7990 N.3    57  VAL57      -0.1231
     11  CA        26.2530  -61.5730   86.9650 C.3    57  VAL57       0.1692
     12  C         25.9980  -62.7930   86.0690 C.2    57  VAL57       0.2591
     13  O         26.8800  -63.1990   85.3150 O.2    57  VAL57      -0.2718
     14  CB        26.4010  -62.0270   88.4500 C.3    57  VAL57       0.0266
     15  CG1       27.4340  -63.1340   88.5870 C.3    57  VAL57       0.0020
     16  CG2       26.7780  -60.8370   89.3340 C.3    57  VAL57       0.0020
     17  N         24.7930  -63.3560   86.1560 N.am   58  LEU58      -0.1980
     18  CA        24.4040  -64.5380   85.3600 C.3    58  LEU58       0.1596
     19  C         24.5080  -64.2940   83.8370 C.2    58  LEU58       0.2287
     20  O         24.9220  -65.1770   83.0800 O.2    58  LEU58      -0.2864
     21  CB        22.9790  -64.9820   85.7190 C.3    58  LEU58       0.0297
     22  CG        22.6430  -65.2820   87.1860 C.3    58  LEU58       0.0022
     23  CD1       21.2030  -65.7880   87.3170 C.3    58  LEU58       0.0001
     24  CD2       23.6270  -66.2530   87.8000 C.3    58  LEU58       0.0001
     25  N         27.8680  -65.1580   81.9950 N.3    61  THR61      -0.1218
     26  CA        28.3420  -66.5510   81.9240 C.3    61  THR61       0.1862
     27  C         27.8640  -67.2790   80.6600 C.2    61  THR61       0.2287
     28  O         26.6560  -67.4920   80.4700 O.2    61  THR61      -0.2866
     29  CB        27.9380  -67.3600   83.1900 C.3    61  THR61       0.1770
     30  OG1       26.5160  -67.5360   83.2400 O.3    61  THR61      -0.2211
     31  CG2       28.4040  -66.6400   84.4500 C.3    61  THR61       0.0375
     32  N         28.6640  -74.3810   83.1770 N.3    66  ILE66      -0.1231
     33  CA        27.8780  -73.4850   84.0100 C.3    66  ILE66       0.1692
     34  C         26.4200  -73.5880   83.5530 C.2    66  ILE66       0.2591
     35  O         26.1210  -73.4390   82.3630 O.2    66  ILE66      -0.2718
     36  CB        28.3490  -72.0020   83.8830 C.3    66  ILE66       0.0266
     37  CG1       29.8500  -71.8550   84.1630 C.3    66  ILE66       0.0019
     38  CG2       27.5600  -71.1050   84.8250 C.3    66  ILE66       0.0020
     39  CD1       30.2770  -72.3160   85.5270 C.3    66  ILE66       0.0001
     40  N         25.5170  -73.8200   84.5010 N.am   67  LEU67      -0.1980
     41  CA        24.0770  -73.8610   84.2220 C.3    67  LEU67       0.1596
     42  C         23.6710  -72.6600   83.3660 C.2    67  LEU67       0.2287
     43  O         23.9640  -71.5080   83.7170 O.2    67  LEU67      -0.2864
     44  CB        23.2700  -73.8800   85.5280 C.3    67  LEU67       0.0297
     45  CG        21.7770  -74.1880   85.4120 C.3    67  LEU67       0.0022
     46  CD1       21.5530  -75.6290   84.9340 C.3    67  LEU67       0.0001
     47  CD2       21.1030  -73.9370   86.7430 C.3    67  LEU67       0.0001
     48  N         34.6950  -69.0670   85.5810 N.3   120  LEU120     -0.1245
     49  CA        34.1130  -68.1150   86.5430 C.3   120  LEU120      0.1561
     50  C         35.1510  -67.1560   87.1050 C.2   120  LEU120      0.2260
     51  O         34.9520  -65.9480   87.0890 O.2   120  LEU120     -0.2867
     52  CB        33.4510  -68.8510   87.7110 C.3   120  LEU120      0.0270
     53  CG        32.1340  -69.5750   87.4300 C.3   120  LEU120      0.0019
     54  CD1       31.6550  -70.2870   88.6850 C.3   120  LEU120      0.0001
     55  CD2       31.0810  -68.6200   86.9130 C.3   120  LEU120      0.0001
     56  N         34.2460  -63.7230   88.8530 N.3   125  ILE125     -0.1231
     57  CA        33.0640  -64.1560   89.5970 C.3   125  ILE125      0.1692
     58  C         33.5160  -65.2050   90.6190 C.2   125  ILE125      0.2592
     59  O         34.1430  -66.2040   90.2600 O.2   125  ILE125     -0.2718
     60  CB        31.9600  -64.7440   88.6830 C.3   125  ILE125      0.0266
     61  CG1       31.5330  -63.7350   87.6080 C.3   125  ILE125      0.0019
     62  CG2       30.7460  -65.1380   89.5160 C.3   125  ILE125      0.0020
     63  CD1       30.5180  -64.2800   86.5910 C.3   125  ILE125      0.0001
     64  N         33.2180  -64.9410   91.8890 N.am  126  ILE126     -0.1966
     65  CA        33.5140  -65.8500   92.9870 C.3   126  ILE126      0.1727
     66  C         32.2040  -66.5360   93.3430 C.2   126  ILE126      0.2616
     67  O         31.2020  -65.8620   93.6060 O.2   126  ILE126     -0.2715
     68  CB        34.0350  -65.1060   94.2380 C.3   126  ILE126      0.0290
     69  CG1       35.3010  -64.3020   93.9220 C.3   126  ILE126      0.0022
     70  CG2       34.3250  -66.0980   95.3690 C.3   126  ILE126      0.0023
     71  CD1       35.7100  -63.3360   95.0480 C.3   126  ILE126      0.0001
     72  N         32.2190  -67.8660   93.3650 N.am  127  HIS127     -0.1973
     73  CA        31.0010  -68.6450   93.5790 C.3   127  HIS127      0.1656
     74  C         30.4580  -68.5460   95.0120 C.2   127  HIS127      0.2291
     75  O         29.2500  -68.4230   95.1950 O.2   127  HIS127     -0.2864
     76  CB        31.2440  -70.1080   93.2190 C.3   127  HIS127      0.0771
     77  CG        29.9920  -70.9170   93.1410 C.ar  127  HIS127      0.0820
     78  ND1       29.3010  -71.3240   94.2590 N.ar  127  HIS127     -0.2267
     79  CD2       29.3020  -71.3920   92.0770 C.ar  127  HIS127      0.1154
     80  CE1       28.2380  -72.0150   93.8890 C.ar  127  HIS127      0.1986
     81  NE2       28.2190  -72.0750   92.5700 N.ar  127  HIS127     -0.2212
     82  N         27.5840  -76.3790   86.7960 N.3   145  ILE145     -0.1231
     83  CA        27.7080  -75.6400   88.0380 C.3   145  ILE145      0.1692
     84  C         26.5870  -74.6080   88.1300 C.2   145  ILE145      0.2593
     85  O         26.2960  -73.8930   87.1610 O.2   145  ILE145     -0.2718
     86  CB        29.0590  -74.9240   88.1600 C.3   145  ILE145      0.0266
     87  CG1       30.2020  -75.9410   88.2010 C.3   145  ILE145      0.0019
     88  CG2       29.0870  -74.0510   89.4260 C.3   145  ILE145      0.0020
     89  CD1       31.5620  -75.3170   88.2170 C.3   145  ILE145      0.0001
     90  N         25.9550  -74.5640   89.3000 N.am  146  GLY146     -0.1942
     91  CA        24.9180  -73.5910   89.6100 C.3   146  GLY146      0.2014
     92  C         24.9010  -73.2930   91.0950 C.2   146  GLY146      0.2638
     93  O         25.9110  -73.4670   91.7810 O.2   146  GLY146     -0.2714
     94  N         23.7580  -72.8130   91.5750 N.am  147  ASP147     -0.1971
     95  CA        23.5370  -72.5440   92.9940 C.3   147  ASP147      0.1709
     96  C         22.1110  -72.9790   93.3000 C.2   147  ASP147      0.2293
     97  O         21.1610  -72.2260   93.0960 O.2   147  ASP147     -0.2864
     98  CB        23.7640  -71.0570   93.3090 C.3   147  ASP147      0.1436
     99  CG        23.9970  -70.7980   94.7980 C.2   147  ASP147      0.3671
    100  OD1       25.0090  -70.1270   95.1340 O.co2 147  ASP147     -0.2456
    101  OD2       23.1800  -71.2690   95.6290 O.co2 147  ASP147     -0.2456
    102  N         21.5830  -65.2900   98.4110 N.3   154  LYS154     -0.1245
    103  CA        23.0050  -65.5330   98.1900 C.3   154  LYS154      0.1561
    104  C         23.8320  -64.4410   98.8680 C.2   154  LYS154      0.2260
    105  O         23.5830  -63.2490   98.6610 O.2   154  LYS154     -0.2867
    106  CB        23.3250  -65.6150   96.6970 C.3   154  LYS154      0.0271
    107  CG        22.7000  -66.8260   96.0240 C.3   154  LYS154      0.0035
    108  CD        23.0070  -66.8780   94.5420 C.3   154  LYS154      0.0206
    109  CE        22.0330  -67.7930   93.8120 C.3   154  LYS154      0.1093
    110  NZ        22.3210  -67.8800   92.3540 N.3   154  LYS154     -0.1314
    111  N         26.2010  -61.9380   99.2080 N.3   156  ARG156     -0.1245
    112  CA        26.8810  -61.0950   98.2120 C.3   156  ARG156      0.1563
    113  C         26.2640  -59.6950   98.2220 C.2   156  ARG156      0.2260
    114  O         26.9470  -58.7000   97.9790 O.2   156  ARG156     -0.2867
    115  CB        26.7930  -61.7270   96.8060 C.3   156  ARG156      0.0307
    116  CG        27.0590  -60.7860   95.6210 C.3   156  ARG156      0.0489
    117  CD        27.1960  -61.5510   94.3040 C.3   156  ARG156      0.2205
    118  NE        28.5490  -62.0540   94.0730 N.pl3 156  ARG156     -0.0865
    119  CZ        29.0140  -62.4510   92.8730 C.cat 156  ARG156      0.5346
    120  NH1       28.2220  -62.5230   91.8060 N.pl3 156  ARG156      0.1354
    121  NH2       30.2780  -62.8370   92.7450 N.pl3 156  ARG156      0.1354
@<TRIPOS>BOND
     1    28    27    2
     2    27    26    1
     3    26    25    1
     4    26    29    1
     5    35    34    2
     6    20    19    2
     7    32    33    1
     8    29    30    1
     9    29    31    1
    10    42    43    2
    11    42    41    1
    12    34    33    1
    13    34    40   am
    14    19    18    1
    15    36    33    1
    16    36    37    1
    17    36    38    1
    18    37    39    1
    19    41    40    1
    20    41    44    1
    21    46    45    1
    22    13    12    2
    23    18    21    1
    24    18    17    1
    25    45    44    1
    26    45    47    1
    27    48    49    1
    28    21    22    1
    29    12    17   am
    30    12    11    1
    31    49    50    1
    32    49    52    1
    33    63    61    1
    34    82    83    1
    35    10    11    1
    36    55    53    1
    37    11    14    1
    38    51    50    2
    39    85    84    2
    40    22    23    1
    41    22    24    1
    42    53    52    1
    43    53    54    1
    44    61    60    1
    45     4     3    2
    46    83    84    1
    47    83    86    1
    48    84    90   am
    49    86    87    1
    50    86    88    1
    51    87    89    1
    52    14    15    1
    53    14    16    1
    54     3     2    1
    55    60    62    1
    56    60    57    1
    57    56    57    1
    58    90    91    1
    59    57    58    1
    60    91    92    1
    61     2     1    1
    62     2     5    1
    63    59    58    2
    64    58    64   am
    65     6     5    1
    66     6     7    1
    67    92    94   am
    68    92    93    2
    69    94    95    1
    70     9     7   ar
    71   120   119    1
    72     7     8   ar
    73    64    65    1
    74    79    81   ar
    75    79    77   ar
    76   110   109    1
    77    81    80   ar
    78   121   119    1
    79   119   118    2
    80    65    66    1
    81    65    68    1
    82    95    96    1
    83    95    98    1
    84    97    96    2
    85    77    76    1
    86    77    78   ar
    87    76    73    1
    88    98    99    1
    89    66    72   am
    90    66    67    2
    91    72    73    1
    92    73    74    1
    93   109   108    1
    94    80    78   ar
    95    69    68    1
    96    69    71    1
    97   118   117    1
    98    68    70    1
    99   117   116    1
   100   108   107    1
   101    99   100   ar
   102    99   101   ar
   103    74    75    2
   104   116   115    1
   105   107   106    1
   106   106   103    1
   107   115   112    1
   108   114   113    2
   109   103   102    1
   110   103   104    1
   111   112   113    1
   112   112   111    1
   113   105   104    2
