@<TRIPOS>MOLECULE
tmp/5csyA05.pdb
 75 71 0 0 0
SMALL
GASTEIGER

@<TRIPOS>ATOM
      1  N         32.7310   -0.6340    9.0270 N.3    71  ASP71      -0.1239
      2  CA        33.7160   -1.1300    8.0630 C.3    71  ASP71       0.1674
      3  C         34.4430   -2.3150    8.6850 C.2    71  ASP71       0.2266
      4  O         34.1920   -2.6760    9.8320 O.2    71  ASP71      -0.2867
      5  CB        34.6530   -0.0190    7.4830 C.3    71  ASP71       0.1410
      6  CG        35.7580    0.4530    8.4390 C.2    71  ASP71       0.3668
      7  OD1       35.8930   -0.0200    9.5650 O.co2  71  ASP71      -0.2456
      8  OD2       36.5300    1.3200    8.0080 O.co2  71  ASP71      -0.2456
      9  N         37.5200   -2.6840    9.6450 N.3    73  GLY73      -0.1225
     10  CA        38.2540   -2.2690   10.8540 C.3    73  GLY73       0.1811
     11  C         37.4010   -2.0370   12.1090 C.2    73  GLY73       0.2280
     12  O         37.9320   -1.8550   13.2120 O.2    73  GLY73      -0.2866
     13  N         35.0090    0.4740   12.2320 N.3    75  SER75      -0.1217
     14  CA        34.6260    1.8910   12.3130 C.3    75  SER75       0.1889
     15  C         33.1380    2.1360   12.0400 C.2    75  SER75       0.2288
     16  O         32.6690    1.8620   10.9310 O.2    75  SER75      -0.2866
     17  CB        35.4400    2.7690   11.3610 C.3    75  SER75       0.2089
     18  OG        35.0330    4.1230   11.4850 O.3    75  SER75      -0.2183
     19  N         32.5930    4.7640    8.7970 N.3    78  ALA78      -0.1245
     20  CA        32.6860    4.4280    7.3650 C.3    78  ALA78       0.1562
     21  C         31.7810    3.2210    7.1380 C.2    78  ALA78       0.2260
     22  O         32.2100    2.1750    6.6720 O.2    78  ALA78      -0.2867
     23  CB        34.1400    4.1540    6.9460 C.3    78  ALA78       0.0290
     24  N         43.6310   14.5760    7.8550 N.3   277  GLN277     -0.1231
     25  CA        42.8870   13.3310    7.8080 C.3   277  GLN277      0.1698
     26  C         42.2370   13.2390    6.4080 C.2   277  GLN277      0.2592
     27  O         41.3420   14.0330    6.0790 O.2   277  GLN277     -0.2718
     28  CB        41.8340   13.2970    8.9240 C.3   277  GLN277      0.0381
     29  CG        42.3850   13.4900   10.3340 C.3   277  GLN277      0.0905
     30  CD        41.2860   13.5250   11.3810 C.2   277  GLN277      0.2608
     31  OE1       40.3940   12.6790   11.3740 O.2   277  GLN277     -0.2717
     32  NE2       41.3360   14.5080   12.2810 N.am  277  GLN277     -0.0878
     33  N         42.7110   12.3120    5.5740 N.am  278  LEU278     -0.1966
     34  CA        42.1360   12.0930    4.2340 C.3   278  LEU278      0.1728
     35  C         41.0750   10.9860    4.3200 C.2   278  LEU278      0.2616
     36  O         41.3480    9.7930    4.0960 O.2   278  LEU278     -0.2715
     37  CB        43.2240   11.7720    3.2120 C.3   278  LEU278      0.0311
     38  CG        42.7980   11.6200    1.7410 C.3   278  LEU278      0.0022
     39  CD1       42.1690   12.8900    1.1760 C.3   278  LEU278      0.0001
     40  CD2       43.9980   11.2100    0.8960 C.3   278  LEU278      0.0001
     41  N         39.8510   11.3970    4.6530 N.am  279  TRP279     -0.1974
     42  CA        38.7640   10.4500    4.8740 C.3   279  TRP279      0.1640
     43  C         38.4690    9.6990    3.5700 C.2   279  TRP279      0.2290
     44  O         38.3580    8.4820    3.5860 O.2   279  TRP279     -0.2864
     45  CB        37.5220   11.1610    5.4440 C.3   279  TRP279      0.0576
     46  CG        37.7570   11.8050    6.8380 C.ar  279  TRP279      0.0006
     47  CD1       38.6250   11.3820    7.8220 C.ar  279  TRP279      0.0946
     48  CD2       37.0880   12.9460    7.3760 C.ar  279  TRP279      0.0152
     49  NE1       38.5430   12.1940    8.9290 N.ar  279  TRP279     -0.2442
     50  CE2       37.6100   13.1650    8.6860 C.ar  279  TRP279      0.0810
     51  CE3       36.1050   13.8140    6.8790 C.ar  279  TRP279      0.0012
     52  CZ2       37.1830   14.2150    9.4950 C.ar  279  TRP279      0.0191
     53  CZ3       35.6900   14.8520    7.6870 C.ar  279  TRP279      0.0001
     54  CH2       36.2270   15.0410    8.9810 C.ar  279  TRP279      0.0015
     55  N         43.2030    8.9160   12.2880 N.3   470  ALA470     -0.1231
     56  CA        44.2080    8.7320   11.2600 C.3   470  ALA470      0.1694
     57  C         45.0260    7.4420   11.3840 C.2   470  ALA470      0.2593
     58  O         46.0450    7.3200   10.7310 O.2   470  ALA470     -0.2718
     59  CB        45.1280    9.9620   11.1650 C.3   470  ALA470      0.0304
     60  N         44.6050    6.4900   12.2170 N.am  471  THR471     -0.1939
     61  CA        45.1940    5.1430   12.2070 C.3   471  THR471      0.2028
     62  C         44.1610    4.1710   11.6300 C.2   471  THR471      0.2642
     63  O         42.9600    4.3780   11.7760 O.2   471  THR471     -0.2714
     64  CB        45.6960    4.7110   13.6210 C.3   471  THR471      0.1808
     65  OG1       44.6050    4.6100   14.5620 O.3   471  THR471     -0.2208
     66  CG2       46.7430    5.7280   14.1430 C.3   471  THR471      0.0379
     67  N         44.6400    3.1310   10.9630 N.am  472  GLU472     -0.1976
     68  CA        43.7950    2.1970   10.1950 C.3   472  GLU472      0.1602
     69  C         43.5600    0.8600   10.8820 C.2   472  GLU472      0.2287
     70  O         42.6950    0.1140   10.4470 O.2   472  GLU472     -0.2864
     71  CB        44.4290    1.9300    8.8350 C.3   472  GLU472      0.0415
     72  CG        45.0040    3.1800    8.1960 C.3   472  GLU472      0.1163
     73  CD        44.9680    3.1480    6.6850 C.2   472  GLU472      0.3649
     74  OE1       45.3020    2.0920    6.0970 O.co2 472  GLU472     -0.2457
     75  OE2       44.6250    4.1960    6.0910 O.co2 472  GLU472     -0.2457
@<TRIPOS>BOND
     1    40    38    1
     2    39    38    1
     3    38    37    1
     4    37    34    1
     5    43    44    2
     6    43    42    1
     7    36    35    2
     8    34    35    1
     9    34    33    1
    10    35    41   am
    11    41    42    1
    12    42    45    1
    13    45    46    1
    14    33    26   am
    15    27    26    2
    16    75    73   ar
    17    74    73   ar
    18    26    25    1
    19    22    21    2
    20    73    72    1
    21    46    48   ar
    22    46    47   ar
    23    51    48   ar
    24    51    53   ar
    25    23    20    1
    26    21    20    1
    27    20    19    1
    28    48    50   ar
    29     5     2    1
    30     5     6    1
    31    53    54   ar
    32    25    24    1
    33    25    28    1
    34    47    49   ar
    35     8     6   ar
    36     2     3    1
    37     2     1    1
    38    72    71    1
    39     6     7   ar
    40     3     4    2
    41    50    49   ar
    42    50    52   ar
    43    71    68    1
    44    28    29    1
    45    54    52   ar
    46     9    10    1
    47    68    69    1
    48    68    67    1
    49    29    30    1
    50    70    69    2
    51    58    57    2
    52    10    11    1
    53    16    15    2
    54    67    62   am
    55    59    56    1
    56    56    57    1
    57    56    55    1
    58    17    18    1
    59    17    14    1
    60    31    30    2
    61    30    32   am
    62    57    60   am
    63    62    63    2
    64    62    61    1
    65    15    14    1
    66    11    12    2
    67    61    60    1
    68    61    64    1
    69    13    14    1
    70    64    66    1
    71    64    65    1
