@<TRIPOS>MOLECULE
tmp/5csyA02.pdb
 133 125 0 0 0
SMALL
GASTEIGER

@<TRIPOS>ATOM
      1  N         39.7920   17.0120    5.7700 N.3   267  VAL267     -0.1245
      2  CA        40.1000   18.3450    6.3050 C.3   267  VAL267      0.1561
      3  C         41.6120   18.4520    6.5000 C.2   267  VAL267      0.2260
      4  O         42.2690   17.4500    6.7820 O.2   267  VAL267     -0.2867
      5  CB        39.3370   18.6270    7.6110 C.3   267  VAL267      0.0252
      6  CG1       37.8490   18.7720    7.3520 C.3   267  VAL267      0.0019
      7  CG2       39.6360   17.5530    8.6580 C.3   267  VAL267      0.0019
      8  N         46.1910   18.9880   11.1500 N.3   270  ASP270     -0.1239
      9  CA        45.4720   19.1930   12.4140 C.3   270  ASP270      0.1674
     10  C         46.2660   18.6030   13.5940 C.2   270  ASP270      0.2266
     11  O         47.4360   18.2630   13.4360 O.2   270  ASP270     -0.2867
     12  CB        44.0310   18.6140   12.2990 C.3   270  ASP270      0.1410
     13  CG        43.9560   17.0770   12.4890 C.2   270  ASP270      0.3668
     14  OD1       44.8600   16.3510   12.0190 O.co2 270  ASP270     -0.2456
     15  OD2       42.9870   16.5810   13.1160 O.co2 270  ASP270     -0.2456
     16  N         45.8540   15.5820   15.0660 N.3   272  PHE272     -0.1241
     17  CA        46.0900   14.1270   14.9150 C.3   272  PHE272      0.1605
     18  C         46.9880   13.7110   13.7300 C.2   272  PHE272      0.2264
     19  O         47.4710   12.5800   13.6970 O.2   272  PHE272     -0.2867
     20  CB        44.7480   13.3670   14.8580 C.3   272  PHE272      0.0534
     21  CG        43.8730   13.6050   16.0780 C.ar  272  PHE272     -0.0203
     22  CD1       44.2270   13.0980   17.3520 C.ar  272  PHE272     -0.0042
     23  CD2       42.7140   14.3720   15.9700 C.ar  272  PHE272     -0.0042
     24  CE1       43.4270   13.3460   18.4800 C.ar  272  PHE272     -0.0003
     25  CE2       41.9200   14.6170   17.0930 C.ar  272  PHE272     -0.0003
     26  CZ        42.2690   14.1070   18.3430 C.ar  272  PHE272     -0.0000
     27  N         43.6310   14.5760    7.8550 N.3   277  GLN277     -0.1245
     28  CA        42.8870   13.3310    7.8080 C.3   277  GLN277      0.1566
     29  C         42.2370   13.2390    6.4080 C.2   277  GLN277      0.2260
     30  O         41.3420   14.0330    6.0790 O.2   277  GLN277     -0.2867
     31  CB        41.8340   13.2970    8.9240 C.3   277  GLN277      0.0367
     32  CG        42.3850   13.4900   10.3340 C.3   277  GLN277      0.0905
     33  CD        41.2860   13.5250   11.3810 C.2   277  GLN277      0.2608
     34  OE1       40.3940   12.6790   11.3740 O.2   277  GLN277     -0.2717
     35  NE2       41.3360   14.5080   12.2810 N.am  277  GLN277     -0.0878
     36  N         39.8510   11.3970    4.6530 N.3   279  TRP279     -0.1241
     37  CA        38.7640   10.4500    4.8740 C.3   279  TRP279      0.1605
     38  C         38.4690    9.6990    3.5700 C.2   279  TRP279      0.2264
     39  O         38.3580    8.4820    3.5860 O.2   279  TRP279     -0.2867
     40  CB        37.5220   11.1610    5.4440 C.3   279  TRP279      0.0550
     41  CG        37.7570   11.8050    6.8380 C.ar  279  TRP279      0.0003
     42  CD1       38.6250   11.3820    7.8220 C.ar  279  TRP279      0.0946
     43  CD2       37.0880   12.9460    7.3760 C.ar  279  TRP279      0.0152
     44  NE1       38.5430   12.1940    8.9290 N.ar  279  TRP279     -0.2442
     45  CE2       37.6100   13.1650    8.6860 C.ar  279  TRP279      0.0810
     46  CE3       36.1050   13.8140    6.8790 C.ar  279  TRP279      0.0012
     47  CZ2       37.1830   14.2150    9.4950 C.ar  279  TRP279      0.0191
     48  CZ3       35.6900   14.8520    7.6870 C.ar  279  TRP279      0.0001
     49  CH2       36.2270   15.0410    8.9810 C.ar  279  TRP279      0.0015
     50  N         24.0100   13.4310   17.5530 N.3   312  ARG312     -0.1245
     51  CA        25.1720   14.2390   17.2690 C.3   312  ARG312      0.1563
     52  C         25.4240   14.1950   15.7830 C.2   312  ARG312      0.2260
     53  O         25.2650   13.1220   15.1390 O.2   312  ARG312     -0.2867
     54  CB        26.3620   13.6960   18.0330 C.3   312  ARG312      0.0307
     55  CG        27.7410   14.2340   17.6750 C.3   312  ARG312      0.0489
     56  CD        28.7070   13.2520   18.2970 C.3   312  ARG312      0.2205
     57  NE        30.1280   13.5310   18.1810 N.pl3 312  ARG312     -0.0865
     58  CZ        30.8960   13.1920   17.1430 C.cat 312  ARG312      0.5346
     59  NH1       30.3850   12.6270   16.0480 N.pl3 312  ARG312      0.1354
     60  NH2       32.1950   13.4430   17.1910 N.pl3 312  ARG312      0.1354
     61  N         28.3850   14.4890   13.3640 N.3   314  ASP314     -0.1225
     62  CA        29.8470   14.4840   13.1510 C.3   314  ASP314      0.1805
     63  C         30.2140   15.4290   12.0020 C.2   314  ASP314      0.2597
     64  O         29.5220   15.4410   10.9820 O.2   314  ASP314     -0.2718
     65  CB        30.3870   13.0730   12.8480 C.3   314  ASP314      0.1424
     66  CG        31.9490   12.9430   13.1120 C.2   314  ASP314      0.3668
     67  OD1       32.7630   13.8980   12.9740 O.co2 314  ASP314     -0.2456
     68  OD2       32.4580   11.8790   13.5290 O.co2 314  ASP314     -0.2456
     69  N         31.2630   16.2330   12.1750 N.am  315  HIS315     -0.1975
     70  CA        31.7140   17.2360   11.1680 C.3   315  HIS315      0.1656
     71  C         30.5850   18.1280   10.7060 C.2   315  HIS315      0.2291
     72  O         30.3430   18.3170    9.5130 O.2   315  HIS315     -0.2864
     73  CB        32.3870   16.5570    9.9760 C.3   315  HIS315      0.0771
     74  CG        33.3010   17.4410    9.2040 C.ar  315  HIS315      0.0820
     75  ND1       34.4170   18.0280    9.7570 N.ar  315  HIS315     -0.2267
     76  CD2       33.2800   17.8280    7.9060 C.ar  315  HIS315      0.1154
     77  CE1       35.0300   18.7540    8.8430 C.ar  315  HIS315      0.1986
     78  NE2       34.3520   18.6630    7.7160 N.ar  315  HIS315     -0.2212
     79  N         30.5600   21.2970   10.7510 N.3   317  ARG317     -0.1245
     80  CA        31.1140   22.4290    9.9450 C.3   317  ARG317      0.1563
     81  C         30.8580   22.2050    8.4440 C.2   317  ARG317      0.2260
     82  O         30.6690   23.1690    7.7000 O.2   317  ARG317     -0.2867
     83  CB        32.6130   22.6860   10.2490 C.3   317  ARG317      0.0307
     84  CG        33.6150   21.8290    9.4720 C.3   317  ARG317      0.0489
     85  CD        34.9740   22.4720    9.1770 C.3   317  ARG317      0.2205
     86  NE        35.1310   23.9060    9.0340 N.pl3 317  ARG317     -0.0865
     87  CZ        34.6350   24.7250    8.1070 C.cat 317  ARG317      0.5346
     88  NH1       33.8020   24.3510    7.1650 N.pl3 317  ARG317      0.1354
     89  NH2       34.9980   26.0020    8.1790 N.pl3 317  ARG317      0.1354
     90  N         28.9210   18.6030   16.3160 N.3   350  GLU350     -0.1245
     91  CA        30.3590   18.4440   16.5130 C.3   350  GLU350      0.1567
     92  C         31.0320   19.5920   15.7760 C.2   350  GLU350      0.2260
     93  O         31.2570   19.5380   14.5710 O.2   350  GLU350     -0.2867
     94  CB        30.8990   17.0800   16.0760 C.3   350  GLU350      0.0388
     95  CG        32.4230   16.9430   16.2950 C.3   350  GLU350      0.1160
     96  CD        33.2550   17.4080   15.0660 C.2   350  GLU350      0.3649
     97  OE1       33.0230   16.8650   13.9840 O.co2 350  GLU350     -0.2457
     98  OE2       34.1220   18.3480   15.1140 O.co2 350  GLU350     -0.2457
     99  N         34.0980   20.8310   16.4160 N.3   352  LEU352     -0.1231
    100  CA        35.5090   20.8180   16.8210 C.3   352  LEU352      0.1693
    101  C         36.4990   21.1250   15.6650 C.2   352  LEU352      0.2592
    102  O         36.2690   20.7960   14.5070 O.2   352  LEU352     -0.2718
    103  CB        35.8640   19.5100   17.5840 C.3   352  LEU352      0.0284
    104  CG        34.9700   19.1770   18.8010 C.3   352  LEU352      0.0019
    105  CD1       35.1260   17.7310   19.2660 C.3   352  LEU352      0.0001
    106  CD2       35.2070   20.1220   19.9730 C.3   352  LEU352      0.0001
    107  N         37.5740   21.8060   16.0070 N.am  353  GLY353     -0.1957
    108  CA        38.6780   22.0940   15.1030 C.3   353  GLY353      0.1869
    109  C         38.8500   23.5850   14.9450 C.2   353  GLY353      0.2309
    110  O         38.5050   24.3470   15.8400 O.2   353  GLY353     -0.2863
    111  N         37.3960    9.6890   20.1590 N.3   403  ASP403     -0.1239
    112  CA        38.6350   10.0520   19.4360 C.3   403  ASP403      0.1674
    113  C         39.8440   10.4270   20.3270 C.2   403  ASP403      0.2266
    114  O         40.9670   10.5740   19.8290 O.2   403  ASP403     -0.2867
    115  CB        38.3190   11.2180   18.4790 C.3   403  ASP403      0.1410
    116  CG        37.4330   10.7850   17.3200 C.2   403  ASP403      0.3668
    117  OD1       37.5790    9.6360   16.8630 O.co2 403  ASP403     -0.2456
    118  OD2       36.5980   11.5880   16.8710 O.co2 403  ASP403     -0.2456
    119  N         39.4640    4.9250   19.9680 N.3   467  ASN467     -0.1240
    120  CA        39.9750    5.2250   18.6350 C.3   467  ASN467      0.1653
    121  C         41.1100    6.2460   18.6690 C.2   467  ASN467      0.2266
    122  O         41.0540    7.1950   19.4350 O.2   467  ASN467     -0.2867
    123  CB        38.8310    5.7190   17.7420 C.3   467  ASN467      0.1155
    124  CG        39.3160    6.2210   16.3860 C.2   467  ASN467      0.2627
    125  OD1       39.9670    5.4840   15.6350 O.2   467  ASN467     -0.2716
    126  ND2       39.0190    7.4720   16.0800 N.am  467  ASN467     -0.0877
    127  N         42.5120    8.6860   15.8500 N.3   469  PRO469     -0.2116
    128  CA        42.2990    9.2540   14.5110 C.3   469  PRO469      0.1372
    129  C         43.4850    9.1170   13.5800 C.2   469  PRO469      0.2244
    130  O         44.6190    9.1800   14.0390 O.2   469  PRO469     -0.2868
    131  CB        41.9960   10.7210   14.7880 C.3   469  PRO469      0.0268
    132  CG        41.3320   10.7020   16.1260 C.3   469  PRO469      0.0207
    133  CD        41.9780    9.5810   16.8960 C.3   469  PRO469      0.0892
@<TRIPOS>BOND
     1    38    39    2
     2    38    37    1
     3    36    37    1
     4    37    40    1
     5    40    41    1
     6     1     2    1
     7    30    29    2
     8     2     3    1
     9     2     5    1
    10    29    28    1
    11     3     4    2
    12    41    43   ar
    13    41    42   ar
    14    46    43   ar
    15    46    48   ar
    16    88    87    1
    17     6     5    1
    18    43    45   ar
    19     5     7    1
    20    48    49   ar
    21    82    81    2
    22    78    76   ar
    23    78    77   ar
    24    28    27    1
    25    28    31    1
    26    42    44   ar
    27    76    74   ar
    28    87    89    1
    29    87    86    2
    30    81    80    1
    31    45    44   ar
    32    45    47   ar
    33    77    75   ar
    34    31    32    1
    35    49    47   ar
    36    86    85    1
    37    85    84    1
    38    74    75   ar
    39    74    73    1
    40    84    83    1
    41    72    71    2
    42    80    83    1
    43    80    79    1
    44    73    70    1
    45    32    33    1
    46    71    70    1
    47    64    63    2
    48     8     9    1
    49    70    69    1
    50    34    33    2
    51    33    35   am
    52    63    69   am
    53    63    62    1
    54    14    13   ar
    55    12     9    1
    56    12    13    1
    57     9    10    1
    58    13    15   ar
    59    65    66    1
    60    65    62    1
    61    67    66   ar
    62    66    68   ar
    63    62    61    1
    64    11    10    2
    65   129   130    2
    66   129   128    1
    67    19    18    2
    68    18    17    1
    69    97    96   ar
    70   102   101    2
    71   128   131    1
    72   128   127    1
    73    93    92    2
    74   131   132    1
    75    20    17    1
    76    20    21    1
    77    17    16    1
    78   109   108    1
    79   109   110    2
    80    96    98   ar
    81    96    95    1
    82   108   107    1
    83    53    52    2
    84   125   124    2
    85   101   107   am
    86   101   100    1
    87    92    91    1
    88    52    51    1
    89   127   133    1
    90    23    21   ar
    91    23    25   ar
    92    59    58    1
    93    94    95    1
    94    94    91    1
    95    21    22   ar
    96   126   124   am
    97   132   133    1
    98    90    91    1
    99   124   123    1
   100    99   100    1
   101   100   103    1
   102   117   116   ar
   103   118   116   ar
   104    25    26   ar
   105    58    60    1
   106    58    57    2
   107    51    50    1
   108    51    54    1
   109   116   115    1
   110    22    24   ar
   111   103   104    1
   112    55    54    1
   113    55    56    1
   114   123   120    1
   115    57    56    1
   116    26    24   ar
   117   115   112    1
   118   120   121    1
   119   120   119    1
   120   121   122    2
   121   104   105    1
   122   104   106    1
   123   112   111    1
   124   112   113    1
   125   114   113    2
