@<TRIPOS>MOLECULE
tmp/5cszA00.pdb
 182 181 0 0 0
SMALL
GASTEIGER

@<TRIPOS>ATOM
      1  N        -29.0320    2.9950   81.8800 N.3    30  SER30      -0.1202
      2  CA       -30.0750    3.7390   82.5890 C.3    30  SER30       0.2020
      3  C        -29.5270    4.9040   83.4190 C.2    30  SER30       0.2619
      4  O        -30.3000    5.7690   83.8560 O.2    30  SER30      -0.2717
      5  CB       -30.8550    2.8050   83.5070 C.3    30  SER30       0.2103
      6  OG       -31.5640    1.8500   82.7440 O.3    30  SER30      -0.2182
      7  N        -28.2110    4.9120   83.6380 N.am   31  TYR31      -0.1961
      8  CA       -27.5930    5.8290   84.6140 C.3    31  TYR31       0.1771
      9  C        -26.6240    6.8380   84.0400 C.2    31  TYR31       0.2619
     10  O        -25.7040    6.4910   83.2860 O.2    31  TYR31      -0.2715
     11  CB       -26.8820    5.0400   85.7210 C.3    31  TYR31       0.0574
     12  CG       -27.8210    4.2690   86.5980 C.ar   31  TYR31      -0.0198
     13  CD1      -28.3380    4.8380   87.7610 C.ar   31  TYR31      -0.0009
     14  CD2      -28.2240    2.9730   86.2520 C.ar   31  TYR31      -0.0009
     15  CE1      -29.2080    4.1320   88.5740 C.ar   31  TYR31       0.0417
     16  CE2      -29.1000    2.2650   87.0510 C.ar   31  TYR31       0.0417
     17  CZ       -29.5850    2.8500   88.2110 C.ar   31  TYR31       0.1957
     18  OH       -30.4460    2.1580   89.0050 O.3    31  TYR31      -0.2866
     19  N        -26.8150    8.0980   84.4330 N.am   32  ALA32      -0.1963
     20  CA       -25.8140    9.1360   84.2090 C.3    32  ALA32       0.1728
     21  C        -24.5820    8.7890   85.0540 C.2    32  ALA32       0.2616
     22  O        -24.7040    8.1270   86.0930 O.2    32  ALA32      -0.2715
     23  CB       -26.3630   10.4900   84.6000 C.3    32  ALA32       0.0334
     24  N        -23.4120    9.2370   84.6110 N.am   33  MET33      -0.1977
     25  CA       -22.1450    8.8460   85.2410 C.3    33  MET33       0.1605
     26  C        -21.2340   10.0380   85.3750 C.2    33  MET33       0.2287
     27  O        -21.4400   11.0630   84.7290 O.2    33  MET33      -0.2864
     28  CB       -21.4240    7.7740   84.4080 C.3    33  MET33       0.0413
     29  CG       -22.1720    6.4400   84.2770 C.3    33  MET33       0.0598
     30  SD       -22.2730    5.4880   85.8020 S.3    33  MET33      -0.1393
     31  CE       -20.5410    5.1500   86.0850 C.3    33  MET33       0.0692
     32  N        -14.7910   17.2900   91.3030 N.3    46  TRP46      -0.1241
     33  CA       -15.5220   16.7630   90.1550 C.3    46  TRP46       0.1605
     34  C        -14.7710   17.0850   88.8620 C.2    46  TRP46       0.2264
     35  O        -14.1810   18.1660   88.7220 O.2    46  TRP46      -0.2867
     36  CB       -16.9500   17.3410   90.1020 C.3    46  TRP46       0.0550
     37  CG       -17.6740   16.9570   88.8660 C.ar   46  TRP46       0.0003
     38  CD1      -18.1420   15.7150   88.5400 C.ar   46  TRP46       0.0946
     39  CD2      -18.0100   17.8150   87.7740 C.ar   46  TRP46       0.0152
     40  NE1      -18.7500   15.7500   87.3090 N.ar   46  TRP46      -0.2442
     41  CE2      -18.6780   17.0250   86.8140 C.ar   46  TRP46       0.0810
     42  CE3      -17.8120   19.1750   87.5120 C.ar   46  TRP46       0.0012
     43  CZ2      -19.1630   17.5590   85.6130 C.ar   46  TRP46       0.0191
     44  CZ3      -18.2820   19.7020   86.3060 C.ar   46  TRP46       0.0001
     45  CH2      -18.9410   18.8900   85.3740 C.ar   46  TRP46       0.0015
     46  N        -18.9400   14.6580   83.5440 N.3    49  ALA49      -0.1231
     47  CA       -20.1410   13.8770   83.6850 C.3    49  ALA49       0.1694
     48  C        -20.8070   13.6880   82.3340 C.2    49  ALA49       0.2592
     49  O        -20.5410   14.4250   81.3930 O.2    49  ALA49      -0.2718
     50  CB       -21.1030   14.5240   84.6640 C.3    49  ALA49       0.0304
     51  N        -21.6830   12.6980   82.2710 N.am   50  ILE50      -0.1966
     52  CA       -22.3550   12.3520   81.0350 C.3    50  ILE50       0.1727
     53  C        -23.7250   11.8020   81.3690 C.2    50  ILE50       0.2616
     54  O        -23.8760   11.0990   82.3760 O.2    50  ILE50      -0.2715
     55  CB       -21.4900   11.3190   80.2450 C.3    50  ILE50       0.0290
     56  CG1      -22.0210   11.1300   78.8250 C.3    50  ILE50       0.0022
     57  CG2      -21.3420    9.9780   81.0170 C.3    50  ILE50       0.0023
     58  CD1      -20.9880   10.4820   77.8840 C.3    50  ILE50       0.0001
     59  N        -24.7350   12.1320   80.5570 N.am   51  ASN51      -0.1958
     60  CA       -26.0600   11.5730   80.7860 C.3    51  ASN51       0.1819
     61  C        -26.0960   10.1120   80.3720 C.2    51  ASN51       0.2621
     62  O        -25.1470    9.6180   79.7580 O.2    51  ASN51      -0.2715
     63  CB       -27.1800   12.3970   80.1090 C.3    51  ASN51       0.1195
     64  CG       -27.0550   12.4560   78.5860 C.2    51  ASN51       0.2630
     65  OD1      -25.9860   12.1990   78.0250 O.2    51  ASN51      -0.2716
     66  ND2      -28.1520   12.8150   77.9060 N.am   51  ASN51      -0.0877
     67  N        -27.1800    9.4330   80.7300 N.am   52  ALA52      -0.1977
     68  CA       -27.3220    7.9920   80.5120 C.3    52  ALA52       0.1597
     69  C        -27.1170    7.5850   79.0510 C.2    52  ALA52       0.2287
     70  O        -26.4530    6.5720   78.7680 O.2    52  ALA52      -0.2864
     71  CB       -28.6730    7.5080   81.0290 C.3    52  ALA52       0.0319
     72  N        -25.1890   14.0820   76.1060 N.3    56  ARG56      -0.1231
     73  CA       -24.7540   15.3400   76.7060 C.3    56  ARG56       0.1694
     74  C        -23.6290   15.0920   77.7010 C.2    56  ARG56       0.2593
     75  O        -23.7650   14.2510   78.5880 O.2    56  ARG56      -0.2718
     76  CB       -25.9240   16.0400   77.4050 C.3    56  ARG56       0.0321
     77  CG       -25.5830   17.3920   78.0540 C.3    56  ARG56       0.0489
     78  CD       -25.1830   18.4330   77.0410 C.3    56  ARG56       0.2205
     79  NE       -25.4820   19.7970   77.4850 N.pl3  56  ARG56      -0.0865
     80  CZ       -24.6130   20.6110   78.0810 C.cat  56  ARG56       0.5346
     81  NH1      -23.3800   20.2070   78.3410 N.pl3  56  ARG56       0.1354
     82  NH2      -24.9750   21.8410   78.4220 N.pl3  56  ARG56       0.1354
     83  N        -22.5380   15.8290   77.5250 N.am   57  THR57      -0.1939
     84  CA       -21.3670   15.7360   78.3950 C.3    57  THR57       0.2028
     85  C        -21.1780   17.0480   79.1430 C.2    57  THR57       0.2642
     86  O        -21.6610   18.1010   78.7030 O.2    57  THR57      -0.2714
     87  CB       -20.0970   15.4190   77.6000 C.3    57  THR57       0.1808
     88  OG1      -19.8410   16.4830   76.6680 O.3    57  THR57      -0.2208
     89  CG2      -20.2510   14.0780   76.8400 C.3    57  THR57       0.0379
     90  N        -20.4940   16.9730   80.2860 N.am   58  TYR58      -0.1959
     91  CA       -20.2640   18.1310   81.1450 C.3    58  TYR58       0.1771
     92  C        -18.8290   18.1040   81.6380 C.2    58  TYR58       0.2620
     93  O        -18.2860   17.0260   81.9150 O.2    58  TYR58      -0.2715
     94  CB       -21.2110   18.0980   82.3530 C.3    58  TYR58       0.0574
     95  CG       -22.6750   17.9700   82.0180 C.ar   58  TYR58      -0.0198
     96  CD1      -23.4680   19.1120   81.8130 C.ar   58  TYR58      -0.0009
     97  CD2      -23.2780   16.7130   81.9100 C.ar   58  TYR58      -0.0009
     98  CE1      -24.8260   18.9990   81.5080 C.ar   58  TYR58       0.0417
     99  CE2      -24.6330   16.5860   81.6010 C.ar   58  TYR58       0.0417
    100  CZ       -25.3990   17.7390   81.4020 C.ar   58  TYR58       0.1957
    101  OH       -26.7410   17.6240   81.1010 O.3    58  TYR58      -0.2866
    102  N        -18.2160   19.2740   81.7610 N.am   59  TYR59      -0.1960
    103  CA       -16.8140   19.3750   82.1720 C.3    59  TYR59       0.1771
    104  C        -16.5760   20.4660   83.1990 C.2    59  TYR59       0.2619
    105  O        -17.2140   21.5210   83.1480 O.2    59  TYR59      -0.2715
    106  CB       -15.8920   19.6050   80.9620 C.3    59  TYR59       0.0574
    107  CG       -15.9680   18.4910   79.9550 C.ar   59  TYR59      -0.0198
    108  CD1      -15.1970   17.3340   80.1120 C.ar   59  TYR59      -0.0009
    109  CD2      -16.8200   18.5770   78.8450 C.ar   59  TYR59      -0.0009
    110  CE1      -15.2810   16.2830   79.1980 C.ar   59  TYR59       0.0417
    111  CE2      -16.9070   17.5410   77.9240 C.ar   59  TYR59       0.0417
    112  CZ       -16.1310   16.3900   78.1080 C.ar   59  TYR59       0.1957
    113  OH       -16.1900   15.3510   77.2240 O.3    59  TYR59      -0.2866
    114  N        -15.6510   20.2060   84.1220 N.am   60  ALA60      -0.1963
    115  CA       -15.1620   21.2180   85.0400 C.3    60  ALA60       0.1728
    116  C        -14.2380   22.1530   84.2690 C.2    60  ALA60       0.2616
    117  O        -13.5960   21.7270   83.3090 O.2    60  ALA60      -0.2715
    118  CB       -14.4190   20.5720   86.1960 C.3    60  ALA60       0.0334
    119  N        -14.1810   23.4210   84.6770 N.am   61  ASP61      -0.1971
    120  CA       -13.3190   24.4120   84.0250 C.3    61  ASP61       0.1709
    121  C        -11.8600   23.9790   83.9140 C.2    61  ASP61       0.2293
    122  O        -11.2340   24.2130   82.8980 O.2    61  ASP61      -0.2864
    123  CB       -13.3890   25.7650   84.7350 C.3    61  ASP61       0.1436
    124  CG       -14.6690   26.5210   84.4290 C.2    61  ASP61       0.3671
    125  OD1      -15.3270   26.2280   83.4000 O.co2  61  ASP61      -0.2456
    126  OD2      -15.0170   27.4210   85.2260 O.co2  61  ASP61      -0.2456
    127  N        -11.8940   21.3000   80.8270 N.3    64  LYS64      -0.1245
    128  CA       -12.6030   21.6240   79.5920 C.3    64  LYS64       0.1561
    129  C        -11.6280   21.7850   78.4130 C.2    64  LYS64       0.2260
    130  O        -10.6090   22.4640   78.5260 O.2    64  LYS64      -0.2867
    131  CB       -13.4120   22.9080   79.8130 C.3    64  LYS64       0.0271
    132  CG       -14.3200   23.3170   78.6730 C.3    64  LYS64       0.0035
    133  CD       -15.1230   24.5530   79.0710 C.3    64  LYS64       0.0206
    134  CE       -15.0560   25.6160   77.9930 C.3    64  LYS64       0.1093
    135  NZ       -15.5770   26.9300   78.4820 N.3    64  LYS64      -0.1314
    136  N        -24.5020    8.2120   88.9750 N.3    98  GLY98      -0.1210
    137  CA       -25.5200    9.1610   89.4130 C.3    98  GLY98       0.1956
    138  C        -26.7690    8.4450   89.8770 C.2    98  GLY98       0.2612
    139  O        -27.1580    7.4260   89.3060 O.2    98  GLY98      -0.2717
    140  N        -27.4020    8.9640   90.9210 N.am   99  LYS99      -0.1965
    141  CA       -28.6500    8.3930   91.3980 C.3    99  LYS99       0.1728
    142  C        -29.7080    9.4800   91.6390 C.2    99  LYS99       0.2616
    143  O        -29.3910   10.5860   92.0770 O.2    99  LYS99      -0.2715
    144  CB       -28.3970    7.6110   92.6810 C.3    99  LYS99       0.0311
    145  CG       -29.5890    6.8750   93.2430 C.3    99  LYS99       0.0038
    146  CD       -30.0090    5.7120   92.3760 C.3    99  LYS99       0.0206
    147  CE       -31.2250    5.0200   92.9720 C.3    99  LYS99       0.1093
    148  NZ       -31.6280    3.8770   92.1080 N.3    99  LYS99      -0.1314
    149  N        -30.9640    9.1530   91.3410 N.am  100  GLY100     -0.1955
    150  CA       -32.0840   10.0530   91.6310 C.3   100  GLY100      0.1869
    151  C        -33.1790    9.2870   92.3560 C.2   100  GLY100      0.2309
    152  O        -34.3560    9.6310   92.2160 O.2   100  GLY100     -0.2863
    153  N        -33.7290   14.3770   87.8080 N.3   101  TYR101     -0.1227
    154  CA       -32.2960   14.6630   87.7280 C.3   101  TYR101      0.1736
    155  C        -31.4960   13.8590   88.7400 C.2   101  TYR101      0.2595
    156  O        -32.0170   13.5050   89.7900 O.2   101  TYR101     -0.2718
    157  CB       -32.0390   16.1370   88.0090 C.3   101  TYR101      0.0548
    158  CG       -32.5690   17.0740   86.9550 C.ar  101  TYR101     -0.0200
    159  CD1      -32.0140   17.0990   85.6790 C.ar  101  TYR101     -0.0009
    160  CD2      -33.6080   17.9610   87.2450 C.ar  101  TYR101     -0.0009
    161  CE1      -32.4910   17.9660   84.7020 C.ar  101  TYR101      0.0417
    162  CE2      -34.0950   18.8360   86.2730 C.ar  101  TYR101      0.0417
    163  CZ       -33.5350   18.8300   85.0130 C.ar  101  TYR101      0.1957
    164  OH       -33.9930   19.6950   84.0530 O.3   101  TYR101     -0.2866
    165  N        -30.2250   13.6080   88.4210 N.am  102  VAL102     -0.1980
    166  CA       -29.2670   13.0340   89.3730 C.3   102  VAL102      0.1595
    167  C        -29.2000   13.9050   90.6370 C.2   102  VAL102      0.2287
    168  O        -29.0800   15.1200   90.5580 O.2   102  VAL102     -0.2864
    169  CB       -27.8460   12.9030   88.7380 C.3   102  VAL102      0.0276
    170  CG1      -26.7830   12.6300   89.8140 C.3   102  VAL102      0.0022
    171  CG2      -27.8320   11.7870   87.6850 C.3   102  VAL102      0.0022
    172  N        -24.2250   10.7650   94.0680 N.3   105  PHE105     -0.1241
    173  CA       -23.4800    9.6160   93.5530 C.3   105  PHE105      0.1605
    174  C        -23.6200    8.4700   94.5470 C.2   105  PHE105      0.2264
    175  O        -23.2960    8.6270   95.7170 O.2   105  PHE105     -0.2867
    176  CB       -22.0000    9.9470   93.3570 C.3   105  PHE105      0.0534
    177  CG       -21.7400   11.0100   92.3410 C.ar  105  PHE105     -0.0203
    178  CD1      -22.2900   10.9310   91.0560 C.ar  105  PHE105     -0.0042
    179  CD2      -20.9140   12.0890   92.6540 C.ar  105  PHE105     -0.0042
    180  CE1      -22.0380   11.9350   90.1070 C.ar  105  PHE105     -0.0003
    181  CE2      -20.6620   13.0940   91.7200 C.ar  105  PHE105     -0.0003
    182  CZ       -21.2060   13.0160   90.4420 C.ar  105  PHE105     -0.0000
@<TRIPOS>BOND
     1    72    73    1
     2    88    87    1
     3    73    76    1
     4    73    74    1
     5    89    87    1
     6    78    79    1
     7    78    77    1
     8   113   112    1
     9    76    77    1
    10    79    80    2
    11    83    74   am
    12    83    84    1
    13    87    84    1
    14    74    75    2
    15    58    56    1
    16    66    64   am
    17   111   112   ar
    18   111   109   ar
    19   134   135    1
    20   134   133    1
    21    65    64    2
    22    80    81    1
    23    80    82    1
    24   112   110   ar
    25    84    85    1
    26   129   130    2
    27   129   128    1
    28    64    63    1
    29   132   133    1
    30   132   131    1
    31    86    85    2
    32    70    69    2
    33    56    55    1
    34   109   107   ar
    35    69    68    1
    36    85    90   am
    37   110   108   ar
    38   128   131    1
    39   128   127    1
    40    62    61    2
    41   107   108   ar
    42   107   106    1
    43    63    60    1
    44    55    57    1
    45    55    52    1
    46    90    91    1
    47    61    67   am
    48    61    60    1
    49    68    67    1
    50    68    71    1
    51    59    60    1
    52    59    53   am
    53   106   103    1
    54    52    53    1
    55    52    51    1
    56   101   100    1
    57    91    92    1
    58    91    94    1
    59    53    54    2
    60    49    48    2
    61   100    98   ar
    62   100    99   ar
    63    98    96   ar
    64    99    97   ar
    65    92   102   am
    66    92    93    2
    67   102   103    1
    68    96    95   ar
    69     1     2    1
    70    97    95   ar
    71    95    94    1
    72   103   104    1
    73    51    48   am
    74    48    47    1
    75     2     3    1
    76     2     5    1
    77     6     5    1
    78   122   121    2
    79   105   104    2
    80   104   114   am
    81    10     9    2
    82   117   116    2
    83   125   124   ar
    84     3     7   am
    85     3     4    2
    86    46    47    1
    87     7     8    1
    88    47    50    1
    89   121   120    1
    90   120   119    1
    91   120   123    1
    92     9    19   am
    93     9     8    1
    94   164   163    1
    95   114   115    1
    96    20    19    1
    97    20    23    1
    98    20    21    1
    99   116   119   am
   100   116   115    1
   101    29    28    1
   102    29    30    1
   103    28    25    1
   104   124   123    1
   105   124   126   ar
   106    24    21   am
   107    24    25    1
   108     8    11    1
   109   161   163   ar
   110   161   159   ar
   111    27    26    2
   112   163   162   ar
   113   115   118    1
   114    21    22    2
   115    25    26    1
   116    45    43   ar
   117    45    44   ar
   118    43    41   ar
   119   159   158   ar
   120    11    12    1
   121    30    31    1
   122    14    12   ar
   123    14    16   ar
   124   162   160   ar
   125    44    42   ar
   126    12    13   ar
   127    41    40   ar
   128    41    39   ar
   129   158   160   ar
   130   158   157    1
   131    16    17   ar
   132    40    38   ar
   133    42    39   ar
   134   171   169    1
   135   154   153    1
   136   154   157    1
   137   154   155    1
   138    13    15   ar
   139    39    37   ar
   140    17    15   ar
   141    17    18    1
   142   165   155   am
   143   165   166    1
   144    38    37   ar
   145    35    34    2
   146   169   166    1
   147   169   170    1
   148   155   156    2
   149    34    33    1
   150    37    36    1
   151   136   137    1
   152   139   138    2
   153   166   167    1
   154   137   138    1
   155   138   140   am
   156    36    33    1
   157   180   182   ar
   158   180   178   ar
   159    33    32    1
   160   182   181   ar
   161   168   167    2
   162   140   141    1
   163   178   177   ar
   164   149   150    1
   165   149   142   am
   166   141   142    1
   167   141   144    1
   168   150   151    1
   169   142   143    2
   170   181   179   ar
   171   148   147    1
   172   152   151    2
   173   177   179   ar
   174   177   176    1
   175   146   147    1
   176   146   145    1
   177   144   145    1
   178   176   173    1
   179   173   172    1
   180   173   174    1
   181   174   175    2
