@<TRIPOS>MOLECULE
tmp/5ct0B00.pdb
 146 140 0 0 0
SMALL
GASTEIGER

@<TRIPOS>ATOM
      1  N          4.6250  166.8900  393.6590 N.3   117  ASN117     -0.1225
      2  CA         4.0000  166.6780  394.9610 C.3   117  ASN117      0.1785
      3  C          4.4250  167.6770  396.0560 C.2   117  ASN117      0.2597
      4  O          5.6160  167.9260  396.2680 O.2   117  ASN117     -0.2718
      5  CB         4.2260  165.2470  395.4310 C.3   117  ASN117      0.1169
      6  CG         3.7540  164.9710  396.8400 C.2   117  ASN117      0.2627
      7  OD1        4.5620  164.7250  397.7410 O.2   117  ASN117     -0.2716
      8  ND2        2.4450  165.0560  397.0730 N.am  117  ASN117     -0.0877
      9  N          3.4200  168.2170  396.7570 N.am  118  THR118     -0.1953
     10  CA         3.5500  169.1160  397.9030 C.3   118  THR118      0.1897
     11  C          3.5680  168.1990  399.1600 C.2   118  THR118      0.2313
     12  O          2.8510  167.1940  399.1850 O.2   118  THR118     -0.2863
     13  CB         2.3980  170.1450  397.9040 C.3   118  THR118      0.1794
     14  OG1        2.1440  170.6060  396.5660 O.3   118  THR118     -0.2208
     15  CG2        2.6650  171.3250  398.8430 C.3   118  THR118      0.0378
     16  N          3.3000  166.1200  402.7100 N.3   120  PHE120     -0.1241
     17  CA         2.2210  165.5820  403.5450 C.3   120  PHE120      0.1605
     18  C          2.0950  166.3280  404.8650 C.2   120  PHE120      0.2264
     19  O          0.9810  166.6570  405.2810 O.2   120  PHE120     -0.2867
     20  CB         2.4490  164.0710  403.7940 C.3   120  PHE120      0.0534
     21  CG         1.4370  163.3300  404.6480 C.ar  120  PHE120     -0.0203
     22  CD1        0.0740  163.5880  404.5280 C.ar  120  PHE120     -0.0042
     23  CD2        1.8440  162.3330  405.5270 C.ar  120  PHE120     -0.0042
     24  CE1       -0.8560  162.9090  405.3220 C.ar  120  PHE120     -0.0003
     25  CE2        0.9130  161.6390  406.3050 C.ar  120  PHE120     -0.0003
     26  CZ        -0.4310  161.9310  406.1970 C.ar  120  PHE120     -0.0000
     27  N          1.0770  169.8920  404.0440 N.3   123  LEU123     -0.1231
     28  CA        -0.3100  169.8650  403.5700 C.3   123  LEU123      0.1693
     29  C         -1.2680  169.4060  404.6790 C.2   123  LEU123      0.2592
     30  O         -2.4790  169.3980  404.4770 O.2   123  LEU123     -0.2718
     31  CB        -0.4530  168.9850  402.3130 C.3   123  LEU123      0.0284
     32  CG        -1.3700  169.5140  401.2130 C.3   123  LEU123      0.0019
     33  CD1       -0.7050  170.6240  400.4180 C.3   123  LEU123      0.0001
     34  CD2       -1.7890  168.4110  400.2850 C.3   123  LEU123      0.0001
     35  N         -0.7300  169.0420  405.8600 N.am  124  TYR124     -0.1976
     36  CA        -1.5410  168.6590  407.0160 C.3   124  TYR124      0.1639
     37  C         -2.1050  169.9400  407.6400 C.2   124  TYR124      0.2290
     38  O         -3.2050  169.9370  408.2000 O.2   124  TYR124     -0.2864
     39  CB        -0.7100  167.8630  408.0290 C.3   124  TYR124      0.0560
     40  CG        -1.5140  166.8480  408.8130 C.ar  124  TYR124     -0.0198
     41  CD1       -2.2890  165.8890  408.1630 C.ar  124  TYR124     -0.0009
     42  CD2       -1.4580  166.8110  410.2030 C.ar  124  TYR124     -0.0009
     43  CE1       -3.0210  164.9450  408.8790 C.ar  124  TYR124      0.0417
     44  CE2       -2.1740  165.8600  410.9290 C.ar  124  TYR124      0.0417
     45  CZ        -2.9520  164.9280  410.2620 C.ar  124  TYR124      0.1957
     46  OH        -3.6420  163.9750  410.9650 O.3   124  TYR124     -0.2866
     47  N         -4.2750  173.5820  404.9220 N.3   127  LEU127     -0.1245
     48  CA        -5.3590  172.9550  404.1630 C.3   127  LEU127      0.1561
     49  C         -6.6410  173.2000  404.9560 C.2   127  LEU127      0.2260
     50  O         -6.8350  172.6150  406.0240 O.2   127  LEU127     -0.2867
     51  CB        -5.1560  171.4440  403.9560 C.3   127  LEU127      0.0270
     52  CG        -5.4690  170.8100  402.5920 C.3   127  LEU127      0.0019
     53  CD1       -4.5250  171.3210  401.5580 C.3   127  LEU127      0.0001
     54  CD2       -5.4440  169.2950  402.6000 C.3   127  LEU127      0.0001
     55  N        -10.0190  170.0140  402.1970 N.3   132  ILE132     -0.1245
     56  CA       -10.2380  168.5950  402.4830 C.3   132  ILE132      0.1561
     57  C        -11.3910  168.0700  401.6470 C.2   132  ILE132      0.2260
     58  O        -11.2340  167.0440  400.9950 O.2   132  ILE132     -0.2867
     59  CB       -10.3860  168.2970  404.0000 C.3   132  ILE132      0.0252
     60  CG1       -9.0730  168.6710  404.7490 C.3   132  ILE132      0.0019
     61  CG2      -10.7660  166.8260  404.2360 C.3   132  ILE132      0.0019
     62  CD1       -9.1920  168.7200  406.2550 C.3   132  ILE132      0.0001
     63  N        -10.1820  167.8870  397.8030 N.3   135  TYR135     -0.1227
     64  CA        -9.3100  166.7680  397.4730 C.3   135  TYR135      0.1736
     65  C         -9.9490  165.3940  397.7210 C.2   135  TYR135      0.2595
     66  O         -9.6520  164.4680  396.9780 O.2   135  TYR135     -0.2718
     67  CB        -7.9500  166.8990  398.1530 C.3   135  TYR135      0.0548
     68  CG        -7.1110  168.0250  397.5890 C.ar  135  TYR135     -0.0200
     69  CD1       -6.6880  168.0110  396.2630 C.ar  135  TYR135     -0.0009
     70  CD2       -6.7250  169.0990  398.3870 C.ar  135  TYR135     -0.0009
     71  CE1       -5.9490  169.0640  395.7280 C.ar  135  TYR135      0.0417
     72  CE2       -5.9660  170.1490  397.8720 C.ar  135  TYR135      0.0417
     73  CZ        -5.5670  170.1190  396.5460 C.ar  135  TYR135      0.1957
     74  OH        -4.7990  171.1360  396.0400 O.3   135  TYR135     -0.2866
     75  N        -10.8530  165.2650  398.7000 N.am  136  MET136     -0.1979
     76  CA       -11.5770  164.0070  398.9370 C.3   136  MET136      0.1605
     77  C        -12.4480  163.6800  397.7150 C.2   136  MET136      0.2287
     78  O        -12.4970  162.5290  397.2780 O.2   136  MET136     -0.2864
     79  CB       -12.4750  164.1130  400.1960 C.3   136  MET136      0.0413
     80  CG       -11.7270  163.9280  401.4850 C.3   136  MET136      0.0598
     81  SD       -11.1950  162.2400  401.7900 S.3   136  MET136     -0.1393
     82  CE       -12.7440  161.4290  401.7720 C.3   136  MET136      0.0692
     83  N        -10.2950  162.2370  394.8830 N.3   139  ILE139     -0.1245
     84  CA        -9.9230  160.8070  395.0750 C.3   139  ILE139      0.1561
     85  C        -11.1430  159.9340  394.6900 C.2   139  ILE139      0.2260
     86  O        -10.9940  158.8620  394.1140 O.2   139  ILE139     -0.2867
     87  CB        -9.4300  160.5270  396.5390 C.3   139  ILE139      0.0252
     88  CG1       -8.2420  161.4270  396.9270 C.3   139  ILE139      0.0019
     89  CG2       -9.0740  159.0470  396.7680 C.3   139  ILE139      0.0019
     90  CD1       -8.0400  161.5420  398.5290 C.3   139  ILE139      0.0001
     91  N         -2.4580  158.0810  402.2580 N.3   158  PRO158     -0.2102
     92  CA        -1.9040  159.3930  401.8390 C.3   158  PRO158      0.1504
     93  C         -0.6420  159.3050  400.9950 C.2   158  PRO158      0.2575
     94  O         -0.5080  160.1140  400.0960 O.2   158  PRO158     -0.2718
     95  CB        -1.6350  160.1120  403.1770 C.3   158  PRO158      0.0282
     96  CG        -2.6250  159.4850  404.1170 C.3   158  PRO158      0.0208
     97  CD        -2.6280  158.0410  403.7300 C.3   158  PRO158      0.0893
     98  N          0.2440  158.3100  401.2380 N.am  159  HIS159     -0.1976
     99  CA         1.4830  158.1440  400.4540 C.3   159  HIS159      0.1656
    100  C          1.2220  157.7900  398.9980 C.2   159  HIS159      0.2291
    101  O          2.0850  158.0330  398.1530 O.2   159  HIS159     -0.2864
    102  CB         2.4830  157.1510  401.0960 C.3   159  HIS159      0.0771
    103  CG         3.4200  157.8040  402.0680 C.ar  159  HIS159      0.0820
    104  ND1        3.5360  157.3550  403.3770 N.ar  159  HIS159     -0.2267
    105  CD2        4.2310  158.8790  401.9040 C.ar  159  HIS159      0.1154
    106  CE1        4.4210  158.1570  403.9540 C.ar  159  HIS159      0.1986
    107  NE2        4.8560  159.0970  403.1090 N.ar  159  HIS159     -0.2212
    108  N         -1.2960  159.1390  397.2620 N.3   161  VAL161     -0.1231
    109  CA        -2.0520  160.2440  396.6680 C.3   161  VAL161      0.1692
    110  C         -1.0910  161.4240  396.4870 C.2   161  VAL161      0.2592
    111  O         -0.6300  161.9840  397.4750 O.2   161  VAL161     -0.2718
    112  CB        -3.3220  160.6230  397.4730 C.3   161  VAL161      0.0266
    113  CG1       -3.9910  161.8580  396.8820 C.3   161  VAL161      0.0020
    114  CG2       -4.3250  159.4600  397.5720 C.3   161  VAL161      0.0020
    115  N         -0.7720  161.7790  395.2330 N.am  162  MET162     -0.1965
    116  CA         0.1420  162.8900  394.9190 C.3   162  MET162      0.1736
    117  C         -0.6790  164.1390  394.6500 C.2   162  MET162      0.2616
    118  O         -1.6550  164.0900  393.9000 O.2   162  MET162     -0.2715
    119  CB         1.0290  162.5700  393.6990 C.3   162  MET162      0.0427
    120  CG         1.9440  161.3930  393.8960 C.3   162  MET162      0.0599
    121  SD         3.5250  161.8460  394.6610 S.3   162  MET162     -0.1393
    122  CE         3.6270  160.6350  395.8890 C.3   162  MET162      0.0692
    123  N         -0.2870  165.2550  395.2670 N.am  163  ILE163     -0.1977
    124  CA        -0.9980  166.5190  395.1160 C.3   163  ILE163      0.1596
    125  C         -0.0400  167.6570  394.7660 C.2   163  ILE163      0.2287
    126  O          0.9570  167.8740  395.4410 O.2   163  ILE163     -0.2864
    127  CB        -1.8750  166.8550  396.3770 C.3   163  ILE163      0.0276
    128  CG1       -3.0030  165.8170  396.6000 C.3   163  ILE163      0.0022
    129  CG2       -2.4300  168.3030  396.3400 C.3   163  ILE163      0.0022
    130  CD1       -3.7040  165.8900  397.9740 C.3   163  ILE163      0.0001
    131  N         -8.4420  157.7770  405.9360 N.3   220  MET220     -0.1245
    132  CA        -7.7520  158.9890  405.5000 C.3   220  MET220      0.1570
    133  C         -8.5220  160.2250  405.9490 C.2   220  MET220      0.2261
    134  O         -7.9080  161.1730  406.4630 O.2   220  MET220     -0.2867
    135  CB        -7.5820  159.0260  403.9790 C.3   220  MET220      0.0387
    136  CG        -6.5220  158.0860  403.4700 C.3   220  MET220      0.0595
    137  SD        -6.1210  158.2850  401.7110 S.3   220  MET220     -0.1393
    138  CE        -6.1140  159.9860  401.5450 C.3   220  MET220      0.0692
    139  N         -7.3940  163.3380  408.7570 N.3   224  MET224     -0.1245
    140  CA        -7.3000  164.7470  408.3760 C.3   224  MET224      0.1570
    141  C         -8.1980  165.6760  409.1840 C.2   224  MET224      0.2261
    142  O         -7.7370  166.7380  409.6200 O.2   224  MET224     -0.2867
    143  CB        -7.6180  164.9330  406.8960 C.3   224  MET224      0.0387
    144  CG        -6.5220  164.5030  405.9830 C.3   224  MET224      0.0595
    145  SD        -7.1450  164.8060  404.3240 S.3   224  MET224     -0.1393
    146  CE        -8.3400  163.4240  404.1320 C.3   224  MET224      0.0692
@<TRIPOS>BOND
     1     1     2    1
     2   119   120    1
     3   119   116    1
     4   120   121    1
     5   118   117    2
     6    86    85    2
     7   117   116    1
     8   117   123   am
     9   121   122    1
    10    85    84    1
    11   125   124    1
    12   125   126    2
    13    83    84    1
    14   116   115    1
    15     2     5    1
    16     2     3    1
    17    84    87    1
    18   124   123    1
    19   124   127    1
    20   115   110   am
    21     5     6    1
    22    71    69   ar
    23    71    73   ar
    24    74    73    1
    25     3     4    2
    26     3     9   am
    27    69    68   ar
    28   129   127    1
    29   127   128    1
    30   110   109    1
    31   110   111    2
    32    87    89    1
    33    87    88    1
    34    73    72   ar
    35    14    13    1
    36   128   130    1
    37   109   108    1
    38   109   112    1
    39     9    10    1
    40     6     8   am
    41     6     7    2
    42   113   112    1
    43    88    90    1
    44    66    65    2
    45    78    77    2
    46    64    65    1
    47    64    63    1
    48    64    67    1
    49   112   114    1
    50    68    67    1
    51    68    70   ar
    52    77    76    1
    53    65    75   am
    54    72    70   ar
    55    10    13    1
    56    10    11    1
    57    13    15    1
    58   101   100    2
    59    75    76    1
    60    76    79    1
    61   100    99    1
    62    11    12    2
    63    94    93    2
    64    79    80    1
    65    34    32    1
    66    33    32    1
    67    99   102    1
    68    99    98    1
    69    93    98   am
    70    93    92    1
    71    58    57    2
    72   102   103    1
    73    32    31    1
    74    80    81    1
    75   138   137    1
    76    53    52    1
    77    57    56    1
    78   137   136    1
    79    82    81    1
    80    92    91    1
    81    92    95    1
    82   105   103   ar
    83   105   107   ar
    84   103   104   ar
    85    55    56    1
    86    91    97    1
    87    31    28    1
    88    56    59    1
    89    52    54    1
    90    52    51    1
    91    16    17    1
    92   107   106   ar
    93    95    96    1
    94   104   106   ar
    95   136   135    1
    96    17    20    1
    97    17    18    1
    98    28    27    1
    99    28    29    1
   100    97    96    1
   101    20    21    1
   102    51    48    1
   103   135   132    1
   104    59    61    1
   105    59    60    1
   106   146   145    1
   107    48    47    1
   108    48    49    1
   109   145   144    1
   110    30    29    2
   111    22    21   ar
   112    22    24   ar
   113    21    23   ar
   114    29    35   am
   115    60    62    1
   116    18    19    2
   117    49    50    2
   118    24    26   ar
   119   132   131    1
   120   132   133    1
   121    23    25   ar
   122    35    36    1
   123   133   134    2
   124   144   143    1
   125    26    25   ar
   126   143   140    1
   127    36    37    1
   128    36    39    1
   129    37    38    2
   130    39    40    1
   131    41    40   ar
   132    41    43   ar
   133   140   139    1
   134   140   141    1
   135    40    42   ar
   136    43    45   ar
   137   141   142    2
   138    42    44   ar
   139    45    44   ar
   140    45    46    1
