@<TRIPOS>MOLECULE
tmp/5ct1B00.pdb
 104 101 0 0 0
SMALL
GASTEIGER

@<TRIPOS>ATOM
      1  N         -8.7670   37.2740  -11.5330 N.3   124  HIS124     -0.1241
      2  CA        -8.9080   35.8480  -11.2030 C.3   124  HIS124      0.1621
      3  C        -10.1500   35.6840  -10.3500 C.2   124  HIS124      0.2264
      4  O        -10.7270   36.6870   -9.8990 O.2   124  HIS124     -0.2867
      5  CB        -7.6850   35.3780  -10.3980 C.3   124  HIS124      0.0745
      6  CG        -7.6480   35.9160   -8.9960 C.ar  124  HIS124      0.0817
      7  ND1       -6.9980   37.0870   -8.6540 N.ar  124  HIS124     -0.2268
      8  CD2       -8.2250   35.4610   -7.8590 C.ar  124  HIS124      0.1154
      9  CE1       -7.1620   37.3170   -7.3610 C.ar  124  HIS124      0.1986
     10  NE2       -7.9020   36.3430   -6.8570 N.ar  124  HIS124     -0.2212
     11  N        -10.2240   33.4260   -7.4970 N.3   126  PHE126     -0.1241
     12  CA        -9.8930   32.8190   -6.2130 C.3   126  PHE126      0.1605
     13  C        -10.1280   33.8680   -5.1530 C.2   126  PHE126      0.2264
     14  O         -9.2110   34.2560   -4.4110 O.2   126  PHE126     -0.2867
     15  CB        -8.4400   32.3230   -6.1960 C.3   126  PHE126      0.0534
     16  CG        -8.1790   31.1640   -7.1270 C.ar  126  PHE126     -0.0203
     17  CD1       -8.1740   29.8630   -6.6420 C.ar  126  PHE126     -0.0042
     18  CD2       -7.9630   31.3730   -8.4790 C.ar  126  PHE126     -0.0042
     19  CE1       -7.9350   28.7820   -7.4930 C.ar  126  PHE126     -0.0003
     20  CE2       -7.7240   30.3150   -9.3320 C.ar  126  PHE126     -0.0003
     21  CZ        -7.7120   29.0070   -8.8400 C.ar  126  PHE126     -0.0000
     22  N         -7.1470   24.7200   -4.1380 N.3   145  ARG145     -0.1245
     23  CA        -7.7390   23.5670   -4.8370 C.3   145  ARG145      0.1563
     24  C         -6.9750   22.2510   -4.6270 C.2   145  ARG145      0.2260
     25  O         -7.3770   21.2170   -5.1480 O.2   145  ARG145     -0.2867
     26  CB        -7.8820   23.8570   -6.3350 C.3   145  ARG145      0.0307
     27  CG        -8.9500   24.9010   -6.6730 C.3   145  ARG145      0.0489
     28  CD        -9.3810   24.8030   -8.1360 C.3   145  ARG145      0.2205
     29  NE        -8.3140   25.2020   -9.0620 N.pl3 145  ARG145     -0.0865
     30  CZ        -8.4610   25.3420  -10.3800 C.cat 145  ARG145      0.5346
     31  NH1       -9.6370   25.1130  -10.9550 N.pl3 145  ARG145      0.1354
     32  NH2       -7.4270   25.7180  -11.1300 N.pl3 145  ARG145      0.1354
     33  N         -3.9280   21.2830   -5.6500 N.3   147  GLU147     -0.1245
     34  CA        -3.2800   20.8250   -6.8600 C.3   147  GLU147      0.1567
     35  C         -1.8450   20.3710   -6.6340 C.2   147  GLU147      0.2260
     36  O         -1.2070   20.7180   -5.6340 O.2   147  GLU147     -0.2867
     37  CB        -3.3140   21.9240   -7.9120 C.3   147  GLU147      0.0388
     38  CG        -4.7100   22.2790   -8.3370 C.3   147  GLU147      0.1160
     39  CD        -4.7390   23.5530   -9.1260 C.2   147  GLU147      0.3649
     40  OE1       -4.9360   23.4690  -10.3530 O.co2 147  GLU147     -0.2457
     41  OE2       -4.5400   24.6330   -8.5210 O.co2 147  GLU147     -0.2457
     42  N          1.0330   21.1340   -7.6180 N.3   149  GLY149     -0.1210
     43  CA         2.1440   22.0670   -7.4460 C.3   149  GLY149      0.1956
     44  C          2.5370   22.4860   -6.0320 C.2   149  GLY149      0.2612
     45  O          3.6310   23.0080   -5.8310 O.2   149  GLY149     -0.2717
     46  N          1.6720   22.2750   -5.0490 N.am  150  GLY150     -0.1956
     47  CA         1.9270   22.8410   -3.7140 C.3   150  GLY150      0.1869
     48  C          1.4590   24.2990   -3.6820 C.2   150  GLY150      0.2309
     49  O          0.9460   24.8060   -4.6770 O.2   150  GLY150     -0.2863
     50  N          0.9480   28.2990   -3.9250 N.3   152  TRP152     -0.1241
     51  CA         1.2980   29.1800   -5.0240 C.3   152  TRP152      0.1605
     52  C          0.5770   30.5060   -4.7790 C.2   152  TRP152      0.2264
     53  O         -0.1920   30.6420   -3.8280 O.2   152  TRP152     -0.2867
     54  CB         0.8590   28.5650   -6.3730 C.3   152  TRP152      0.0550
     55  CG        -0.6000   28.3100   -6.4310 C.ar  152  TRP152      0.0003
     56  CD1       -1.2430   27.2090   -5.9640 C.ar  152  TRP152      0.0946
     57  CD2       -1.6200   29.1810   -6.9550 C.ar  152  TRP152      0.0152
     58  NE1       -2.5930   27.3380   -6.1480 N.ar  152  TRP152     -0.2442
     59  CE2       -2.8510   28.5340   -6.7630 C.ar  152  TRP152      0.0810
     60  CE3       -1.6050   30.4410   -7.5760 C.ar  152  TRP152      0.0012
     61  CZ2       -4.0690   29.0950   -7.1700 C.ar  152  TRP152      0.0191
     62  CZ3       -2.8090   31.0070   -7.9780 C.ar  152  TRP152      0.0001
     63  CH2       -4.0310   30.3390   -7.7580 C.ar  152  TRP152      0.0015
     64  N         -0.8520   34.2550   -7.2420 N.3   154  PHE154     -0.1241
     65  CA        -0.6940   35.2410   -8.3020 C.3   154  PHE154      0.1605
     66  C          0.4350   36.1760   -7.9060 C.2   154  PHE154      0.2264
     67  O          0.6700   36.4500   -6.7130 O.2   154  PHE154     -0.2867
     68  CB        -2.0080   35.9670   -8.5750 C.3   154  PHE154      0.0534
     69  CG        -3.0990   35.0540   -9.0330 C.ar  154  PHE154     -0.0203
     70  CD1       -3.0990   34.5520  -10.3410 C.ar  154  PHE154     -0.0042
     71  CD2       -4.1060   34.6660   -8.1660 C.ar  154  PHE154     -0.0042
     72  CE1       -4.0880   33.6980  -10.7640 C.ar  154  PHE154     -0.0003
     73  CE2       -5.1080   33.8050   -8.5780 C.ar  154  PHE154     -0.0003
     74  CZ        -5.0990   33.3190   -9.8860 C.ar  154  PHE154     -0.0000
     75  N          1.7000   35.5440  -14.3280 N.3   161  ARG161     -0.1231
     76  CA         0.3810   35.4330  -13.7430 C.3   161  ARG161      0.1694
     77  C          0.4220   34.7520  -12.3700 C.2   161  ARG161      0.2592
     78  O         -0.1510   35.2730  -11.4110 O.2   161  ARG161     -0.2718
     79  CB        -0.5800   34.7320  -14.6980 C.3   161  ARG161      0.0321
     80  CG        -1.9410   34.4630  -14.1150 C.3   161  ARG161      0.0489
     81  CD        -2.9910   34.2060  -15.1750 C.3   161  ARG161      0.2205
     82  NE        -4.2700   33.8690  -14.5610 N.pl3 161  ARG161     -0.0865
     83  CZ        -5.2320   34.7410  -14.2590 C.cat 161  ARG161      0.5346
     84  NH1       -6.3480   34.3160  -13.6790 N.pl3 161  ARG161      0.1354
     85  NH2       -5.0950   36.0410  -14.5300 N.pl3 161  ARG161      0.1354
     86  N          1.1050   33.6070  -12.2850 N.am  162  TYR162     -0.1976
     87  CA         1.2560   32.8840  -11.0130 C.3   162  TYR162      0.1639
     88  C          2.5600   32.0880  -10.9970 C.2   162  TYR162      0.2290
     89  O          3.1600   31.8220  -12.0390 O.2   162  TYR162     -0.2864
     90  CB         0.0670   31.9410  -10.7770 C.3   162  TYR162      0.0560
     91  CG         0.1350   30.7050  -11.6470 C.ar  162  TYR162     -0.0198
     92  CD1       -0.3970   30.7060  -12.9420 C.ar  162  TYR162     -0.0009
     93  CD2        0.7640   29.5460  -11.1870 C.ar  162  TYR162     -0.0009
     94  CE1       -0.3130   29.5760  -13.7470 C.ar  162  TYR162      0.0417
     95  CE2        0.8550   28.4200  -11.9820 C.ar  162  TYR162      0.0417
     96  CZ         0.3110   28.4380  -13.2560 C.ar  162  TYR162      0.1957
     97  OH         0.4070   27.3070  -14.0350 O.3   162  TYR162     -0.2866
     98  N          4.5640   28.8790   -8.2680 N.3   164  VAL164     -0.1245
     99  CA         4.5930   28.1280   -7.0120 C.3   164  VAL164      0.1561
    100  C          5.5090   28.8030   -6.0040 C.2   164  VAL164      0.2260
    101  O          6.4450   29.5240   -6.3550 O.2   164  VAL164     -0.2867
    102  CB         5.0410   26.6330   -7.2140 C.3   164  VAL164      0.0252
    103  CG1        4.0330   25.8860   -8.0820 C.3   164  VAL164      0.0019
    104  CG2        6.4650   26.5550   -7.8170 C.3   164  VAL164      0.0019
@<TRIPOS>BOND
     1    81    82    1
     2    81    80    1
     3    79    80    1
     4    79    76    1
     5    82    83    2
     6    85    83    1
     7    75    76    1
     8    83    84    1
     9    97    96    1
    10    94    96   ar
    11    94    92   ar
    12    76    77    1
    13    96    95   ar
    14    92    91   ar
    15    77    86   am
    16    77    78    2
    17    86    87    1
    18    89    88    2
    19    95    93   ar
    20    91    93   ar
    21    91    90    1
    22     1     2    1
    23     2     5    1
    24     2     3    1
    25    32    30    1
    26    87    88    1
    27    87    90    1
    28    31    30    1
    29    72    70   ar
    30    72    74   ar
    31     5     6    1
    32    30    29    2
    33    40    39   ar
    34     3     4    2
    35    70    69   ar
    36    74    73   ar
    37    20    21   ar
    38    20    18   ar
    39    39    41   ar
    40    39    38    1
    41    29    28    1
    42    69    68    1
    43    69    71   ar
    44     6     7   ar
    45     6     8   ar
    46    21    19   ar
    47     7     9   ar
    48    73    71   ar
    49    68    65    1
    50    18    16   ar
    51    38    37    1
    52    65    66    1
    53    65    64    1
    54    98    99    1
    55    28    27    1
    56   103   102    1
    57    62    63   ar
    58    62    60   ar
    59    37    34    1
    60    66    67    2
    61     8    10   ar
    62   104   102    1
    63    63    61   ar
    64    42    43    1
    65    60    57   ar
    66    11    12    1
    67    19    17   ar
    68    43    44    1
    69     9    10   ar
    70   102    99    1
    71    61    59   ar
    72    16    17   ar
    73    16    15    1
    74    99   100    1
    75    57    59   ar
    76    57    55   ar
    77    34    35    1
    78    34    33    1
    79    59    58   ar
    80    27    26    1
    81    35    36    2
    82    55    54    1
    83    55    56   ar
    84    54    51    1
    85   101   100    2
    86    26    23    1
    87    12    15    1
    88    12    13    1
    89    58    56   ar
    90    44    45    2
    91    44    46   am
    92    13    14    2
    93    25    24    2
    94    46    47    1
    95    51    52    1
    96    51    50    1
    97    23    24    1
    98    23    22    1
    99    52    53    2
   100    49    48    2
   101    47    48    1
