@<TRIPOS>MOLECULE
tmp/5ct2B00.pdb
 119 118 0 0 0
SMALL
GASTEIGER

@<TRIPOS>ATOM
      1  N         -8.3570   37.0800  -11.9650 N.3   124  HIS124     -0.1226
      2  CA        -8.5050   35.6850  -11.5380 C.3   124  HIS124      0.1752
      3  C         -9.8350   35.4660  -10.8190 C.2   124  HIS124      0.2597
      4  O        -10.5180   36.4350  -10.4620 O.2   124  HIS124     -0.2718
      5  CB        -7.3590   35.3180  -10.5910 C.3   124  HIS124      0.0759
      6  CG        -7.5190   35.8720   -9.2050 C.ar  124  HIS124      0.0818
      7  ND1       -6.9210   37.0480   -8.7950 N.ar  124  HIS124     -0.2268
      8  CD2       -8.2050   35.4030   -8.1350 C.ar  124  HIS124      0.1154
      9  CE1       -7.2500   37.2870   -7.5370 C.ar  124  HIS124      0.1986
     10  NE2       -8.0230   36.2980   -7.1110 N.ar  124  HIS124     -0.2212
     11  N        -10.1620   34.1970  -10.5560 N.am  125  SER125     -0.1938
     12  CA       -11.4240   33.8190   -9.9180 C.3   125  SER125      0.2055
     13  C        -11.2460   33.2040   -8.5310 C.2   125  SER125      0.2643
     14  O        -12.1970   32.6650   -7.9680 O.2   125  SER125     -0.2714
     15  CB       -12.2390   32.8590  -10.8170 C.3   125  SER125      0.2130
     16  OG       -11.4690   31.7200  -11.1920 O.3   125  SER125     -0.2179
     17  N        -10.0470   33.2920   -7.9650 N.am  126  PHE126     -0.1973
     18  CA        -9.8120   32.7710   -6.6040 C.3   126  PHE126      0.1639
     19  C        -10.1190   33.8420   -5.5720 C.2   126  PHE126      0.2290
     20  O         -9.2360   34.2990   -4.8400 O.2   126  PHE126     -0.2864
     21  CB        -8.3810   32.2410   -6.4540 C.3   126  PHE126      0.0560
     22  CG        -8.0730   31.0440   -7.3280 C.ar  126  PHE126     -0.0200
     23  CD1       -8.0620   29.7650   -6.7920 C.ar  126  PHE126     -0.0042
     24  CD2       -7.8070   31.2040   -8.6890 C.ar  126  PHE126     -0.0042
     25  CE1       -7.7740   28.6470   -7.5970 C.ar  126  PHE126     -0.0003
     26  CE2       -7.5130   30.1110   -9.4990 C.ar  126  PHE126     -0.0003
     27  CZ        -7.4920   28.8240   -8.9520 C.ar  126  PHE126     -0.0000
     28  N         -7.0010   24.6090   -4.1390 N.3   145  ARG145     -0.1245
     29  CA        -7.6000   23.4800   -4.8500 C.3   145  ARG145      0.1563
     30  C         -6.8560   22.1440   -4.6390 C.2   145  ARG145      0.2260
     31  O         -7.1780   21.1420   -5.2910 O.2   145  ARG145     -0.2867
     32  CB        -7.7140   23.8100   -6.3450 C.3   145  ARG145      0.0307
     33  CG        -8.6390   24.9980   -6.6560 C.3   145  ARG145      0.0489
     34  CD        -9.8570   24.5620   -7.4610 C.3   145  ARG145      0.2205
     35  NE        -9.8040   25.0440   -8.8420 N.pl3 145  ARG145     -0.0865
     36  CZ        -9.0930   24.4960   -9.8340 C.cat 145  ARG145      0.5346
     37  NH1       -8.3280   23.4240   -9.6340 N.pl3 145  ARG145      0.1354
     38  NH2       -9.1390   25.0400  -11.0460 N.pl3 145  ARG145      0.1354
     39  N         -3.8030   21.0990   -5.4040 N.3   147  GLU147     -0.1231
     40  CA        -3.2160   20.6320   -6.6220 C.3   147  GLU147      0.1699
     41  C         -1.7740   20.2010   -6.4420 C.2   147  GLU147      0.2592
     42  O         -1.0630   20.7080   -5.5830 O.2   147  GLU147     -0.2718
     43  CB        -3.3030   21.7130   -7.6850 C.3   147  GLU147      0.0402
     44  CG        -4.6730   21.8440   -8.2740 C.3   147  GLU147      0.1161
     45  CD        -4.8490   23.1580   -8.9820 C.2   147  GLU147      0.3649
     46  OE1       -5.1080   23.1410  -10.2060 O.co2 147  GLU147     -0.2457
     47  OE2       -4.7270   24.2090   -8.3160 O.co2 147  GLU147     -0.2457
     48  N         -1.3750   19.2390   -7.2680 N.am  148  GLU148     -0.1966
     49  CA         0.0080   18.8620   -7.4670 C.3   148  GLU148      0.1733
     50  C          0.7810   20.1180   -7.7770 C.2   148  GLU148      0.2617
     51  O          0.4260   20.8680   -8.6870 O.2   148  GLU148     -0.2715
     52  CB         0.1190   17.8870   -8.6460 C.3   148  GLU148      0.0429
     53  CG        -0.6950   16.6070   -8.4710 C.3   148  GLU148      0.1163
     54  CD        -0.1900   15.7620   -7.3090 C.2   148  GLU148      0.3649
     55  OE1        1.0490   15.6060   -7.1980 O.co2 148  GLU148     -0.2457
     56  OE2       -1.0220   15.2620   -6.5120 O.co2 148  GLU148     -0.2457
     57  N          1.8250   20.3740   -7.0080 N.am  149  GLY149     -0.1940
     58  CA         2.5860   21.6180   -7.1850 C.3   149  GLY149      0.2014
     59  C          2.7640   22.3680   -5.8850 C.2   149  GLY149      0.2639
     60  O          3.7070   23.1230   -5.7410 O.2   149  GLY149     -0.2714
     61  N          1.8480   22.1430   -4.9450 N.am  150  GLY150     -0.1954
     62  CA         1.9210   22.7290   -3.6100 C.3   150  GLY150      0.1869
     63  C          1.4940   24.2010   -3.6460 C.2   150  GLY150      0.2309
     64  O          1.0660   24.7070   -4.7120 O.2   150  GLY150     -0.2863
     65  N          1.0270   28.1690   -3.9500 N.3   152  TRP152     -0.1241
     66  CA         1.4010   29.0450   -5.0670 C.3   152  TRP152      0.1605
     67  C          0.7350   30.4030   -4.8600 C.2   152  TRP152      0.2264
     68  O         -0.0320   30.5540   -3.9450 O.2   152  TRP152     -0.2867
     69  CB         0.9380   28.4320   -6.4010 C.3   152  TRP152      0.0550
     70  CG        -0.5500   28.2270   -6.4680 C.ar  152  TRP152      0.0003
     71  CD1       -1.2440   27.1670   -5.9560 C.ar  152  TRP152      0.0946
     72  CD2       -1.5210   29.0900   -7.0610 C.ar  152  TRP152      0.0152
     73  NE1       -2.5700   27.3310   -6.1530 N.ar  152  TRP152     -0.2442
     74  CE2       -2.7780   28.4970   -6.8430 C.ar  152  TRP152      0.0810
     75  CE3       -1.4550   30.3120   -7.7540 C.ar  152  TRP152      0.0012
     76  CZ2       -3.9670   29.0660   -7.3060 C.ar  152  TRP152      0.0191
     77  CZ3       -2.6280   30.8790   -8.2080 C.ar  152  TRP152      0.0001
     78  CH2       -3.8740   30.2630   -7.9710 C.ar  152  TRP152      0.0015
     79  N         -0.7770   34.1570   -7.3250 N.3   154  PHE154     -0.1241
     80  CA        -0.6240   35.1120   -8.4250 C.3   154  PHE154      0.1605
     81  C          0.5240   36.0240   -8.0460 C.2   154  PHE154      0.2264
     82  O          0.7530   36.3030   -6.8530 O.2   154  PHE154     -0.2867
     83  CB        -1.9380   35.8410   -8.7380 C.3   154  PHE154      0.0534
     84  CG        -3.0260   34.9090   -9.2250 C.ar  154  PHE154     -0.0203
     85  CD1       -3.0260   34.4410  -10.5480 C.ar  154  PHE154     -0.0042
     86  CD2       -4.0070   34.4550   -8.3560 C.ar  154  PHE154     -0.0042
     87  CE1       -3.9940   33.5500  -10.9770 C.ar  154  PHE154     -0.0003
     88  CE2       -4.9830   33.5680   -8.7780 C.ar  154  PHE154     -0.0003
     89  CZ        -4.9850   33.1110  -10.0920 C.ar  154  PHE154     -0.0000
     90  N          2.1560   35.4650  -14.4410 N.3   161  ARG161     -0.1231
     91  CA         0.8350   35.3620  -13.8800 C.3   161  ARG161      0.1694
     92  C          0.8420   34.7180  -12.4740 C.2   161  ARG161      0.2592
     93  O          0.3520   35.3120  -11.5150 O.2   161  ARG161     -0.2718
     94  CB        -0.1200   34.6410  -14.8230 C.3   161  ARG161      0.0321
     95  CG        -1.5390   34.5000  -14.2600 C.3   161  ARG161      0.0489
     96  CD        -2.5170   33.9730  -15.3080 C.3   161  ARG161      0.2205
     97  NE        -3.8090   33.5910  -14.7310 N.pl3 161  ARG161     -0.0865
     98  CZ        -4.8040   34.4420  -14.4900 C.cat 161  ARG161      0.5346
     99  NH1       -5.9440   34.0190  -13.9750 N.pl3 161  ARG161      0.1354
    100  NH2       -4.6710   35.7250  -14.7790 N.pl3 161  ARG161      0.1354
    101  N          1.4320   33.5290  -12.3660 N.am  162  TYR162     -0.1976
    102  CA         1.4940   32.7830  -11.1030 C.3   162  TYR162      0.1639
    103  C          2.7680   31.9500  -11.0280 C.2   162  TYR162      0.2290
    104  O          3.3750   31.6090  -12.0600 O.2   162  TYR162     -0.2864
    105  CB         0.2610   31.8770  -10.9490 C.3   162  TYR162      0.0560
    106  CG         0.1540   30.7900  -12.0050 C.ar  162  TYR162     -0.0198
    107  CD1       -0.8540   30.8240  -12.9820 C.ar  162  TYR162     -0.0009
    108  CD2        1.0570   29.7200  -12.0300 C.ar  162  TYR162     -0.0009
    109  CE1       -0.9490   29.8140  -13.9590 C.ar  162  TYR162      0.0417
    110  CE2        0.9690   28.7160  -13.0030 C.ar  162  TYR162      0.0417
    111  CZ        -0.0300   28.7640  -13.9510 C.ar  162  TYR162      0.1957
    112  OH        -0.0970   27.7640  -14.8890 O.3   162  TYR162     -0.2866
    113  N          4.7390   28.7950   -8.1910 N.3   164  VAL164     -0.1245
    114  CA         4.7680   28.0340   -6.9430 C.3   164  VAL164      0.1561
    115  C          5.6320   28.7430   -5.9370 C.2   164  VAL164      0.2260
    116  O          6.6010   29.4120   -6.3050 O.2   164  VAL164     -0.2867
    117  CB         5.3500   26.6090   -7.1750 C.3   164  VAL164      0.0252
    118  CG1        4.4090   25.8160   -8.0190 C.3   164  VAL164      0.0019
    119  CG2        6.7540   26.6820   -7.8370 C.3   164  VAL164      0.0019
@<TRIPOS>BOND
     1    96    97    1
     2    96    95    1
     3   112   111    1
     4    94    95    1
     5    94    91    1
     6   100    98    1
     7    97    98    2
     8    98    99    1
     9    90    91    1
    10   109   111   ar
    11   109   107   ar
    12   111   110   ar
    13    91    92    1
    14   110   108   ar
    15   107   106   ar
    16    92   101   am
    17    92    93    2
    18   101   102    1
    19   104   103    2
    20   108   106   ar
    21   106   105    1
    22     1     2    1
    23     2     3    1
    24     2     5    1
    25    16    15    1
    26   102   103    1
    27   102   105    1
    28    38    36    1
    29    87    85   ar
    30    87    89   ar
    31     3    11   am
    32     3     4    2
    33    15    12    1
    34     5     6    1
    35    11    12    1
    36    85    84   ar
    37    46    45   ar
    38    89    88   ar
    39    12    13    1
    40    36    37    1
    41    36    35    2
    42    26    27   ar
    43    26    24   ar
    44    84    83    1
    45    84    86   ar
    46     6     7   ar
    47     6     8   ar
    48    45    47   ar
    49    45    44    1
    50    27    25   ar
    51    35    34    1
    52     7     9   ar
    53    88    86   ar
    54    83    80    1
    55    24    22   ar
    56    51    50    2
    57    52    53    1
    58    52    49    1
    59    13    14    2
    60    13    17   am
    61    53    54    1
    62    80    81    1
    63    80    79    1
    64    44    43    1
    65    77    78   ar
    66    77    75   ar
    67   113   114    1
    68     8    10   ar
    69    81    82    2
    70   118   117    1
    71    78    76   ar
    72    17    18    1
    73   119   117    1
    74    50    49    1
    75    50    57   am
    76    75    72   ar
    77    43    40    1
    78    25    23   ar
    79     9    10   ar
    80    49    48    1
    81    34    33    1
    82    22    23   ar
    83    22    21    1
    84    54    55   ar
    85    54    56   ar
    86    76    74   ar
    87    48    41   am
    88    58    57    1
    89    58    59    1
    90   117   114    1
    91    72    74   ar
    92    72    70   ar
    93   114   115    1
    94    74    73   ar
    95    33    32    1
    96    40    41    1
    97    40    39    1
    98    18    21    1
    99    18    19    1
   100    70    69    1
   101    70    71   ar
   102    41    42    2
   103    69    66    1
   104    32    29    1
   105   116   115    2
   106    73    71   ar
   107    59    60    2
   108    59    61   am
   109    19    20    2
   110    31    30    2
   111    66    67    1
   112    66    65    1
   113    61    62    1
   114    67    68    2
   115    29    30    1
   116    29    28    1
   117    64    63    2
   118    63    62    1
