@<TRIPOS>MOLECULE
tmp/5ct7B00.pdb
 213 203 0 0 0
SMALL
GASTEIGER

@<TRIPOS>ATOM
      1  N        -41.2610   33.1220    4.1990 N.3    15  ILE15      -0.1245
      2  CA       -40.5100   33.9640    3.2770 C.3    15  ILE15       0.1561
      3  C        -41.4810   34.6400    2.2670 C.2    15  ILE15       0.2260
      4  O        -41.4670   35.8710    2.1450 O.2    15  ILE15      -0.2867
      5  CB       -39.2470   33.2610    2.6370 C.3    15  ILE15       0.0252
      6  CG1      -39.5520   32.4430    1.3730 C.3    15  ILE15       0.0019
      7  CG2      -38.4810   32.4090    3.6480 C.3    15  ILE15       0.0019
      8  CD1      -39.0940   33.1580    0.0730 C.3    15  ILE15       0.0001
      9  N        -44.5530   29.6300    1.4900 N.3    23  VAL23      -0.1245
     10  CA       -43.1570   29.1690    1.5510 C.3    23  VAL23       0.1561
     11  C        -42.4600   29.6470    2.8500 C.2    23  VAL23       0.2260
     12  O        -42.5280   30.8250    3.1960 O.2    23  VAL23      -0.2867
     13  CB       -42.3690   29.5880    0.2660 C.3    23  VAL23       0.0252
     14  CG1      -40.9390   29.0550    0.2670 C.3    23  VAL23       0.0019
     15  CG2      -43.0930   29.1440   -1.0000 C.3    23  VAL23       0.0019
     16  N        -36.1900   24.7010    1.9620 N.3    33  ALA33      -0.1245
     17  CA       -37.3520   25.5380    1.6550 C.3    33  ALA33       0.1562
     18  C        -38.5330   24.6040    1.8370 C.2    33  ALA33       0.2260
     19  O        -38.4190   23.4190    1.4990 O.2    33  ALA33      -0.2867
     20  CB       -37.2940   26.0180    0.2200 C.3    33  ALA33       0.0290
     21  N        -42.6910   24.3860    1.0940 N.3    35  LYS35      -0.1245
     22  CA       -43.9480   24.8990    0.5410 C.3    35  LYS35       0.1561
     23  C        -45.0710   24.2010    1.3180 C.2    35  LYS35       0.2260
     24  O        -45.0580   22.9770    1.4510 O.2    35  LYS35      -0.2867
     25  CB       -44.0450   24.5990   -0.9540 C.3    35  LYS35       0.0271
     26  CG       -45.0230   25.4980   -1.7080 C.3    35  LYS35       0.0035
     27  CD       -45.0830   25.1310   -3.1850 C.3    35  LYS35       0.0206
     28  CE       -45.5400   26.2720   -4.0420 C.3    35  LYS35       0.1093
     29  NZ       -45.5250   25.8720   -5.4660 N.3    35  LYS35      -0.1314
     30  N        -47.7190   18.1100   -7.8800 N.3    53  GLU53      -0.1245
     31  CA       -46.4160   18.7860   -7.6940 C.3    53  GLU53       0.1567
     32  C        -45.3390   17.7940   -7.2910 C.2    53  GLU53       0.2260
     33  O        -44.3090   17.7360   -7.9590 O.2    53  GLU53      -0.2867
     34  CB       -46.4970   19.9520   -6.6870 C.3    53  GLU53       0.0388
     35  CG       -45.3350   20.9370   -6.7800 C.3    53  GLU53       0.1160
     36  CD       -45.4980   22.2790   -6.0770 C.2    53  GLU53       0.3649
     37  OE1      -46.5010   22.4680   -5.3500 O.co2  53  GLU53      -0.2457
     38  OE2      -44.6160   23.1510   -6.2560 O.co2  53  GLU53      -0.2457
     39  N        -44.4410   15.5760  -10.2130 N.3    56  VAL56      -0.1231
     40  CA       -43.5720   16.2710  -11.1680 C.3    56  VAL56       0.1692
     41  C        -42.1710   16.3230  -10.6110 C.2    56  VAL56       0.2591
     42  O        -41.2170   16.0130  -11.3290 O.2    56  VAL56      -0.2718
     43  CB       -44.0710   17.7110  -11.4750 C.3    56  VAL56       0.0266
     44  CG1      -43.0670   18.4860  -12.3040 C.3    56  VAL56       0.0020
     45  CG2      -45.4210   17.6870  -12.1680 C.3    56  VAL56       0.0020
     46  N        -42.0430   16.7470   -9.3420 N.am   57  LEU57      -0.1980
     47  CA       -40.7500   16.9280   -8.7060 C.3    57  LEU57       0.1596
     48  C        -39.9460   15.6140   -8.5810 C.2    57  LEU57       0.2287
     49  O        -38.7620   15.6150   -8.9200 O.2    57  LEU57      -0.2864
     50  CB       -40.8990   17.6720   -7.3800 C.3    57  LEU57       0.0297
     51  CG       -41.0810   19.1760   -7.5270 C.3    57  LEU57       0.0022
     52  CD1      -41.4880   19.8060   -6.2420 C.3    57  LEU57       0.0001
     53  CD2      -39.8590   19.8420   -8.0410 C.3    57  LEU57       0.0001
     54  N        -37.7130   14.8670  -11.5380 N.3    60  THR60      -0.1218
     55  CA       -36.6090   15.8250  -11.7790 C.3    60  THR60       0.1862
     56  C        -35.3110   15.6000  -10.9620 C.2    60  THR60       0.2287
     57  O        -35.3270   15.6150   -9.7200 O.2    60  THR60      -0.2866
     58  CB       -37.0930   17.2840  -11.5770 C.3    60  THR60       0.1770
     59  OG1      -37.3420   17.5470  -10.1880 O.3    60  THR60      -0.2211
     60  CG2      -38.3020   17.6270  -12.4180 C.3    60  THR60       0.0375
     61  N        -32.8100   22.5300  -12.0900 N.3    65  ILE65      -0.1231
     62  CA       -34.1340   22.3390  -11.5190 C.3    65  ILE65       0.1692
     63  C        -33.9750   22.2940  -10.0030 C.2    65  ILE65       0.2591
     64  O        -33.0420   21.6620   -9.4940 O.2    65  ILE65      -0.2718
     65  CB       -34.9060   21.1330  -12.1100 C.3    65  ILE65       0.0266
     66  CG1      -34.9750   21.1900  -13.6490 C.3    65  ILE65       0.0019
     67  CG2      -36.3110   21.0000  -11.5030 C.3    65  ILE65       0.0020
     68  CD1      -35.5960   22.5200  -14.2830 C.3    65  ILE65       0.0001
     69  N        -34.8410   23.0280   -9.2880 N.am   66  LEU66      -0.1980
     70  CA       -34.8220   23.0910   -7.8380 C.3    66  LEU66       0.1596
     71  C        -34.9120   21.6840   -7.2810 C.2    66  LEU66       0.2287
     72  O        -35.7100   20.8650   -7.7530 O.2    66  LEU66      -0.2864
     73  CB       -35.9550   23.9770   -7.3310 C.3    66  LEU66       0.0297
     74  CG       -35.9800   24.2720   -5.8400 C.3    66  LEU66       0.0022
     75  CD1      -34.9700   25.3440   -5.4700 C.3    66  LEU66       0.0001
     76  CD2      -37.3100   24.7520   -5.4500 C.3    66  LEU66       0.0001
     77  N        -44.0840   20.3740    0.8370 N.3    79  ILE79      -0.1245
     78  CA       -43.0650   19.9300   -0.1160 C.3    79  ILE79       0.1561
     79  C        -41.7310   20.5620    0.2750 C.2    79  ILE79       0.2260
     80  O        -41.6160   21.7920    0.3020 O.2    79  ILE79      -0.2867
     81  CB       -43.4270   20.1560   -1.6090 C.3    79  ILE79       0.0252
     82  CG1      -44.8020   19.5470   -1.9280 C.3    79  ILE79       0.0019
     83  CG2      -42.3380   19.5500   -2.5160 C.3    79  ILE79       0.0019
     84  CD1      -45.4460   20.1140   -3.0970 C.3    79  ILE79       0.0001
     85  N        -37.8020   21.3090   -0.3820 N.3    81  THR81      -0.1203
     86  CA       -36.7930   21.4900   -1.4310 C.3    81  THR81       0.1994
     87  C        -35.4720   21.9490   -0.8230 C.2    81  THR81       0.2618
     88  O        -35.3810   22.1410    0.3960 O.2    81  THR81      -0.2717
     89  CB       -37.2460   22.4510   -2.5500 C.3    81  THR81       0.1784
     90  OG1      -37.0210   23.8190   -2.1790 O.3    81  THR81      -0.2211
     91  CG2      -38.6650   22.2160   -2.9970 C.3    81  THR81       0.0376
     92  N        -34.4670   22.1710   -1.6790 N.am   82  GLN82      -0.1965
     93  CA       -33.1850   22.6930   -1.2410 C.3    82  GLN82       0.1733
     94  C        -33.3600   24.1640   -0.9390 C.2    82  GLN82       0.2616
     95  O        -34.2280   24.8060   -1.5510 O.2    82  GLN82      -0.2715
     96  CB       -32.1140   22.5170   -2.3400 C.3    82  GLN82       0.0408
     97  CG       -32.4340   23.2060   -3.6760 C.3    82  GLN82       0.0908
     98  CD       -31.2760   23.1560   -4.6320 C.2    82  GLN82       0.2608
     99  OE1      -31.4570   22.9060   -5.8500 O.2    82  GLN82      -0.2717
    100  NE2      -30.0580   23.3620   -4.0950 N.am   82  GLN82      -0.0878
    101  N        -32.5410   24.7040   -0.0100 N.am   83  TRP83      -0.1960
    102  CA       -32.5520   26.1480    0.2550 C.3    83  TRP83       0.1771
    103  C        -31.5660   26.8040   -0.7080 C.2    83  TRP83       0.2620
    104  O        -30.4990   26.2330   -1.0040 O.2    83  TRP83      -0.2715
    105  CB       -32.2420   26.5140    1.7160 C.3    83  TRP83       0.0590
    106  CG       -32.3580   27.9880    1.9770 C.ar   83  TRP83       0.0006
    107  CD1      -31.3350   28.8740    2.1490 C.ar   83  TRP83       0.0946
    108  CD2      -33.5630   28.7630    1.9790 C.ar   83  TRP83       0.0152
    109  NE1      -31.8300   30.1500    2.2900 N.ar   83  TRP83      -0.2442
    110  CE2      -33.1960   30.1110    2.1790 C.ar   83  TRP83       0.0810
    111  CE3      -34.9230   28.4490    1.8300 C.ar   83  TRP83       0.0012
    112  CZ2      -34.1400   31.1370    2.2610 C.ar   83  TRP83       0.0191
    113  CZ3      -35.8520   29.4750    1.8730 C.ar   83  TRP83       0.0001
    114  CH2      -35.4580   30.8000    2.0940 C.ar   83  TRP83       0.0015
    115  N        -31.9510   27.9500   -1.2610 N.am   84  CYS84      -0.1954
    116  CA       -31.1000   28.6110   -2.2370 C.3    84  CYS84       0.1843
    117  C        -30.4660   29.8520   -1.6690 C.2    84  CYS84       0.2625
    118  O        -31.1080   30.5690   -0.8960 O.2    84  CYS84      -0.2714
    119  CB       -31.8750   28.9080   -3.5160 C.3    84  CYS84       0.0997
    120  SG       -32.1290   27.4690   -4.5930 S.3    84  CYS84      -0.0797
    121  N        -29.2040   30.1070   -2.0050 N.am   85  GLU85      -0.1963
    122  CA       -28.6010   31.3190   -1.4740 C.3    85  GLU85       0.1733
    123  C        -28.5620   32.3410   -2.5760 C.2    85  GLU85       0.2617
    124  O        -28.0820   32.0360   -3.6710 O.2    85  GLU85      -0.2715
    125  CB       -27.2130   31.0750   -0.8430 C.3    85  GLU85       0.0429
    126  CG       -27.2070   30.2440    0.4420 C.3    85  GLU85       0.1163
    127  CD       -28.0060   30.7170    1.6540 C.2    85  GLU85       0.3649
    128  OE1      -28.2320   29.8770    2.5600 O.co2  85  GLU85      -0.2457
    129  OE2      -28.4010   31.9090    1.7090 O.co2  85  GLU85      -0.2457
    130  N        -29.1370   33.5130   -2.3130 N.am   86  GLY86      -0.1940
    131  CA       -29.1580   34.5960   -3.2880 C.3    86  GLY86       0.2014
    132  C        -30.5160   35.2210   -3.5080 C.2    86  GLY86       0.2640
    133  O        -31.3070   35.3630   -2.5680 O.2    86  GLY86      -0.2714
    134  N        -30.7860   35.6000   -4.7710 N.am   87  SER87      -0.1935
    135  CA       -32.0200   36.2690   -5.1830 C.3    87  SER87       0.2055
    136  C        -32.4780   35.7130   -6.5100 C.2    87  SER87       0.2643
    137  O        -31.6700   35.1250   -7.2330 O.2    87  SER87      -0.2714
    138  CB       -31.7730   37.7720   -5.3450 C.3    87  SER87       0.2130
    139  OG       -30.8980   38.3200   -4.3710 O.3    87  SER87      -0.2179
    140  N        -33.7630   35.9270   -6.8470 N.am   88  SER88      -0.1949
    141  CA       -34.3540   35.5140   -8.1270 C.3    88  SER88       0.1924
    142  C        -33.8400   36.4320   -9.2390 C.2    88  SER88       0.2314
    143  O        -33.4570   37.5840   -8.9590 O.2    88  SER88      -0.2863
    144  CB       -35.8740   35.6390   -8.0620 C.3    88  SER88       0.2116
    145  OG       -36.3140   36.9900   -8.1140 O.3    88  SER88      -0.2180
    146  N        -37.0500   19.4140  -18.5770 N.3   119  LEU119     -0.1245
    147  CA       -38.4700   19.3140  -18.2540 C.3   119  LEU119      0.1561
    148  C        -39.2650   18.8560  -19.4620 C.2   119  LEU119      0.2260
    149  O        -40.0110   17.8930  -19.3740 O.2   119  LEU119     -0.2867
    150  CB       -39.0070   20.6630  -17.7280 C.3   119  LEU119      0.0270
    151  CG       -38.4550   21.1460  -16.4000 C.3   119  LEU119      0.0019
    152  CD1      -38.9450   22.5410  -16.0850 C.3   119  LEU119      0.0001
    153  CD2      -38.8400   20.2160  -15.2790 C.3   119  LEU119      0.0001
    154  N        -42.8210   17.6290  -19.1960 N.3   124  ILE124     -0.1245
    155  CA       -43.2470   18.4970  -18.1060 C.3   124  ILE124      0.1561
    156  C        -43.3760   19.9160  -18.6440 C.2   124  ILE124      0.2260
    157  O        -42.4010   20.4680  -19.1610 O.2   124  ILE124     -0.2867
    158  CB       -42.2460   18.4400  -16.9210 C.3   124  ILE124      0.0252
    159  CG1      -42.2120   17.0430  -16.2780 C.3   124  ILE124      0.0019
    160  CG2      -42.5260   19.5650  -15.9050 C.3   124  ILE124      0.0019
    161  CD1      -41.0410   16.7990  -15.3300 C.3   124  ILE124      0.0001
    162  N        -43.9160   23.6730  -17.5110 N.3   126  HIS126     -0.1241
    163  CA       -43.8420   24.5600  -16.3510 C.3   126  HIS126      0.1621
    164  C        -45.1220   25.3950  -16.1180 C.2   126  HIS126      0.2264
    165  O        -45.5510   25.5500  -14.9610 O.2   126  HIS126     -0.2867
    166  CB       -42.6220   25.4700  -16.4330 C.3   126  HIS126      0.0745
    167  CG       -42.2680   26.0690  -15.1210 C.ar  126  HIS126      0.0817
    168  ND1      -42.9560   27.1580  -14.6190 N.ar  126  HIS126     -0.2268
    169  CD2      -41.3220   25.6960  -14.2320 C.ar  126  HIS126      0.1154
    170  CE1      -42.4010   27.4200  -13.4480 C.ar  126  HIS126      0.1986
    171  NE2      -41.4020   26.5770  -13.1800 N.ar  126  HIS126     -0.2212
    172  N        -34.0660   31.1210  -10.0860 N.3   135  PHE135     -0.1241
    173  CA       -33.2700   31.5520   -8.9590 C.3   135  PHE135      0.1605
    174  C        -31.7820   31.4770   -9.2650 C.2   135  PHE135      0.2264
    175  O        -31.2770   30.4050   -9.6120 O.2   135  PHE135     -0.2867
    176  CB       -33.6340   30.7620   -7.7030 C.3   135  PHE135      0.0534
    177  CG       -33.2720   31.4820   -6.4310 C.ar  135  PHE135     -0.0203
    178  CD1      -31.9580   31.4710   -5.9540 C.ar  135  PHE135     -0.0042
    179  CD2      -34.2430   32.1480   -5.6930 C.ar  135  PHE135     -0.0042
    180  CE1      -31.6170   32.1390   -4.7770 C.ar  135  PHE135     -0.0003
    181  CE2      -33.9080   32.7900   -4.4960 C.ar  135  PHE135     -0.0003
    182  CZ       -32.5970   32.7800   -4.0470 C.ar  135  PHE135     -0.0000
    183  N        -34.6840   26.5920  -11.6990 N.3   144  ILE144     -0.1231
    184  CA       -36.0860   26.7960  -12.0800 C.3   144  ILE144      0.1692
    185  C        -36.9760   26.2250  -10.9900 C.2   144  ILE144      0.2593
    186  O        -36.8810   25.0530  -10.6400 O.2   144  ILE144     -0.2718
    187  CB       -36.4820   26.2560  -13.4880 C.3   144  ILE144      0.0266
    188  CG1      -35.4740   26.6370  -14.5780 C.3   144  ILE144      0.0019
    189  CG2      -37.8910   26.7380  -13.8550 C.3   144  ILE144      0.0020
    190  CD1      -35.7160   25.9690  -15.9590 C.3   144  ILE144      0.0001
    191  N        -37.8150   27.0750  -10.4500 N.am  145  GLY145     -0.1942
    192  CA       -38.7250   26.6800   -9.3940 C.3   145  GLY145      0.2014
    193  C        -40.1180   27.2290   -9.5520 C.2   145  GLY145      0.2639
    194  O        -40.5260   27.6610  -10.6370 O.2   145  GLY145     -0.2714
    195  N        -40.8560   27.1880   -8.4580 N.am  146  ASP146     -0.1957
    196  CA       -42.2140   27.6890   -8.3790 C.3   146  ASP146      0.1840
    197  C        -42.3840   28.4780   -7.0650 C.2   146  ASP146      0.2622
    198  O        -43.1670   28.1120   -6.1810 O.2   146  ASP146     -0.2715
    199  CB       -43.2190   26.5510   -8.5640 C.3   146  ASP146      0.1450
    200  CG       -44.5720   27.0700   -8.9540 C.2   146  ASP146      0.3671
    201  OD1      -44.7380   27.4760  -10.1280 O.co2 146  ASP146     -0.2456
    202  OD2      -45.4480   27.1490   -8.0720 O.co2 146  ASP146     -0.2456
    203  N        -41.5970   29.5810   -6.9810 N.am  147  PHE147     -0.1974
    204  CA       -41.4420   30.5500   -5.8910 C.3   147  PHE147      0.1639
    205  C        -42.6680   31.4500   -5.7410 C.2   147  PHE147      0.2290
    206  O        -42.7790   32.1640   -4.7460 O.2   147  PHE147     -0.2864
    207  CB       -40.1720   31.4020   -6.1270 C.3   147  PHE147      0.0560
    208  CG       -38.8990   30.6020   -6.3510 C.ar  147  PHE147     -0.0200
    209  CD1      -38.5520   30.1490   -7.6170 C.ar  147  PHE147     -0.0042
    210  CD2      -38.0480   30.3050   -5.2990 C.ar  147  PHE147     -0.0042
    211  CE1      -37.3780   29.4120   -7.8210 C.ar  147  PHE147     -0.0003
    212  CE2      -36.8670   29.5760   -5.5110 C.ar  147  PHE147     -0.0003
    213  CZ       -36.5530   29.1180   -6.7650 C.ar  147  PHE147     -0.0000
@<TRIPOS>BOND
     1   148   149    2
     2   148   147    1
     3   154   155    1
     4   157   156    2
     5   156   155    1
     6   146   147    1
     7   147   150    1
     8   155   158    1
     9   150   151    1
    10   162   163    1
    11   158   159    1
    12   158   160    1
    13   166   163    1
    14   166   167    1
    15   151   152    1
    16   151   153    1
    17   163   164    1
    18   159   161    1
    19   164   165    2
    20   190   188    1
    21   167   168   ar
    22   167   169   ar
    23   168   170   ar
    24   188   187    1
    25    68    66    1
    26   169   171   ar
    27   189   187    1
    28    66    65    1
    29   187   184    1
    30   170   171   ar
    31    60    58    1
    32    44    43    1
    33    45    43    1
    34    65    62    1
    35    65    67    1
    36    61    62    1
    37   184   183    1
    38   184   185    1
    39    55    58    1
    40    55    54    1
    41    55    56    1
    42    58    59    1
    43    62    63    1
    44    43    40    1
    45    42    41    2
    46    40    41    1
    47    40    39    1
    48   185   186    2
    49   185   191   am
    50    56    57    2
    51   194   193    2
    52    41    46   am
    53   191   192    1
    54   201   200   ar
    55   172   173    1
    56    63    64    2
    57    63    69   am
    58   175   174    2
    59   193   192    1
    60   193   195   am
    61    46    47    1
    62    69    70    1
    63   174   173    1
    64   142   143    2
    65   142   141    1
    66   173   176    1
    67   200   199    1
    68   200   202   ar
    69    49    48    2
    70    47    48    1
    71    47    50    1
    72   199   196    1
    73   195   196    1
    74   196   197    1
    75   141   144    1
    76   141   140    1
    77   145   144    1
    78    53    51    1
    79    33    32    2
    80    30    31    1
    81    70    73    1
    82    70    71    1
    83   211   209   ar
    84   211   213   ar
    85    72    71    2
    86   176   177    1
    87    31    32    1
    88    31    34    1
    89   209   208   ar
    90    51    50    1
    91    51    52    1
    92    73    74    1
    93   137   136    2
    94   197   203   am
    95   197   198    2
    96   203   204    1
    97   140   136   am
    98    35    34    1
    99    35    36    1
   100   213   212   ar
   101   136   135    1
   102   177   178   ar
   103   177   179   ar
   104   208   207    1
   105   208   210   ar
   106    38    36   ar
   107   207   204    1
   108    36    37   ar
   109   178   180   ar
   110   204   205    1
   111    99    98    2
   112    74    75    1
   113    74    76    1
   114   205   206    2
   115   179   181   ar
   116   212   210   ar
   117    29    28    1
   118   138   135    1
   119   138   139    1
   120   135   134    1
   121   180   182   ar
   122   134   132   am
   123    98   100   am
   124    98    97    1
   125   120   119    1
   126   181   182   ar
   127    28    27    1
   128    97    96    1
   129   124   123    2
   130   119   116    1
   131   132   131    1
   132   132   133    2
   133   131   130    1
   134    27    26    1
   135    84    82    1
   136    91    89    1
   137   123   130   am
   138   123   122    1
   139    89    90    1
   140    89    86    1
   141    83    81    1
   142    96    93    1
   143   116   117    1
   144   116   115    1
   145   121   117   am
   146   121   122    1
   147    82    81    1
   148    26    25    1
   149    92    93    1
   150    92    87   am
   151   117   118    2
   152    81    78    1
   153    95    94    2
   154   122   125    1
   155    86    87    1
   156    86    85    1
   157   115   103   am
   158    93    94    1
   159   104   103    2
   160    15    13    1
   161    25    22    1
   162    94   101   am
   163   125   126    1
   164    87    88    2
   165   103   102    1
   166    78    79    1
   167    78    77    1
   168   101   102    1
   169     8     6    1
   170    20    17    1
   171   102   105    1
   172    13    14    1
   173    13    10    1
   174    79    80    2
   175   126   127    1
   176    22    21    1
   177    22    23    1
   178    23    24    2
   179     6     5    1
   180     9    10    1
   181    19    18    2
   182    10    11    1
   183   127   129   ar
   184   127   128   ar
   185    17    18    1
   186    17    16    1
   187   105   106    1
   188   111   113   ar
   189   111   108   ar
   190   113   114   ar
   191   106   108   ar
   192   106   107   ar
   193   108   110   ar
   194   114   112   ar
   195     4     3    2
   196   107   109   ar
   197   110   112   ar
   198   110   109   ar
   199     3     2    1
   200     5     2    1
   201     5     7    1
   202    11    12    2
   203     2     1    1
