@<TRIPOS>MOLECULE
tmp/5ctbB00.pdb
 128 122 0 0 0
SMALL
GASTEIGER

@<TRIPOS>ATOM
      1  N         30.5530  -35.5860   53.4790 N.3   441  ALA441     -0.1245
      2  CA        30.2770  -34.6690   54.5960 C.3   441  ALA441      0.1562
      3  C         31.0860  -33.3770   54.4640 C.2   441  ALA441      0.2260
      4  O         32.2130  -33.3980   53.9790 O.2   441  ALA441     -0.2867
      5  CB        30.6200  -35.3490   55.9130 C.3   441  ALA441      0.0290
      6  N         35.2330  -31.9410   55.8240 N.3   444  VAL444     -0.1245
      7  CA        36.1280  -33.0960   55.8020 C.3   444  VAL444      0.1561
      8  C         36.8620  -33.0880   54.4350 C.2   444  VAL444      0.2260
      9  O         36.2290  -32.8890   53.3910 O.2   444  VAL444     -0.2867
     10  CB        35.4170  -34.4540   56.0800 C.3   444  VAL444      0.0252
     11  CG1       36.4050  -35.6250   56.0200 C.3   444  VAL444      0.0019
     12  CG2       34.6680  -34.4490   57.4150 C.3   444  VAL444      0.0019
     13  N         38.3940  -34.8450   51.4480 N.3   446  PHE446     -0.1241
     14  CA        38.3150  -36.1150   50.7380 C.3   446  PHE446      0.1605
     15  C         39.4060  -36.1150   49.6440 C.2   446  PHE446      0.2264
     16  O         39.9640  -35.0490   49.3820 O.2   446  PHE446     -0.2867
     17  CB        36.9030  -36.2780   50.1620 C.3   446  PHE446      0.0534
     18  CG        35.8920  -36.6270   51.2290 C.ar  446  PHE446     -0.0203
     19  CD1       35.2100  -35.6290   51.9220 C.ar  446  PHE446     -0.0042
     20  CD2       35.6450  -37.9500   51.5680 C.ar  446  PHE446     -0.0042
     21  CE1       34.2810  -35.9560   52.9290 C.ar  446  PHE446     -0.0003
     22  CE2       34.7090  -38.2730   52.5620 C.ar  446  PHE446     -0.0003
     23  CZ        34.0450  -37.2760   53.2410 C.ar  446  PHE446     -0.0000
     24  N         37.6650  -30.5950   59.8570 N.3   475  ARG475     -0.1231
     25  CA        37.6810  -31.5150   61.0000 C.3   475  ARG475      0.1694
     26  C         38.8630  -32.4610   60.8480 C.2   475  ARG475      0.2593
     27  O         39.4000  -32.9360   61.8480 O.2   475  ARG475     -0.2718
     28  CB        36.3840  -32.3410   61.0500 C.3   475  ARG475      0.0321
     29  CG        35.1130  -31.5010   61.2520 C.3   475  ARG475      0.0489
     30  CD        33.8520  -32.3320   61.1440 C.3   475  ARG475      0.2205
     31  NE        33.7690  -33.2910   62.2500 N.pl3 475  ARG475     -0.0865
     32  CZ        32.7520  -34.1120   62.4580 C.cat 475  ARG475      0.5346
     33  NH1       31.7110  -34.1140   61.6310 N.pl3 475  ARG475      0.1354
     34  NH2       32.7790  -34.9670   63.4760 N.pl3 475  ARG475      0.1354
     35  N         39.2360  -32.7240   59.5970 N.am  476  GLY476     -0.1942
     36  CA        40.3480  -33.5880   59.2170 C.3   476  GLY476      0.2014
     37  C         40.1700  -34.1660   57.8390 C.2   476  GLY476      0.2639
     38  O         39.3630  -33.6770   57.0420 O.2   476  GLY476     -0.2714
     39  N         40.9330  -35.2020   57.5530 N.am  477  PHE477     -0.1959
     40  CA        40.8680  -35.9500   56.3030 C.3   477  PHE477      0.1771
     41  C         39.9420  -37.1370   56.5300 C.2   477  PHE477      0.2620
     42  O         39.8260  -37.5930   57.6540 O.2   477  PHE477     -0.2715
     43  CB        42.2740  -36.4640   55.9150 C.3   477  PHE477      0.0574
     44  CG        43.1630  -35.3820   55.3620 C.ar  477  PHE477     -0.0200
     45  CD1       43.1700  -35.0930   54.0010 C.ar  477  PHE477     -0.0042
     46  CD2       43.9730  -34.6250   56.2030 C.ar  477  PHE477     -0.0042
     47  CE1       43.9440  -34.0430   53.4960 C.ar  477  PHE477     -0.0003
     48  CE2       44.7850  -33.6060   55.6850 C.ar  477  PHE477     -0.0003
     49  CZ        44.7660  -33.3250   54.3340 C.ar  477  PHE477     -0.0000
     50  N         39.2890  -37.6420   55.4840 N.am  478  SER478     -0.1936
     51  CA        38.4620  -38.8380   55.5980 C.3   478  SER478      0.2055
     52  C         39.3850  -40.0630   55.7200 C.2   478  SER478      0.2644
     53  O         40.0910  -40.4120   54.7650 O.2   478  SER478     -0.2714
     54  CB        37.5720  -38.9880   54.3800 C.3   478  SER478      0.2130
     55  OG        36.7940  -40.1550   54.5690 O.3   478  SER478     -0.2179
     56  N         39.3980  -40.6600   56.9100 N.am  479  GLY479     -0.1939
     57  CA        40.2290  -41.8100   57.2390 C.3   479  GLY479      0.2014
     58  C         39.5930  -43.1520   56.9610 C.2   479  GLY479      0.2639
     59  O         40.1920  -44.1810   57.2890 O.2   479  GLY479     -0.2714
     60  N         38.4020  -43.1420   56.3660 N.am  480  GLY480     -0.1954
     61  CA        37.6350  -44.3370   56.0270 C.3   480  GLY480      0.1869
     62  C         38.2850  -45.2000   54.9710 C.2   480  GLY480      0.2309
     63  O         39.1470  -44.7270   54.2230 O.2   480  GLY480     -0.2863
     64  N         41.5060  -29.4950   63.3040 N.3   517  ARG517     -0.1245
     65  CA        41.8590  -30.5750   64.2280 C.3   517  ARG517      0.1563
     66  C         43.2240  -31.1980   63.8960 C.2   517  ARG517      0.2260
     67  O         43.9760  -30.6180   63.1410 O.2   517  ARG517     -0.2867
     68  CB        40.7200  -31.6110   64.3200 C.3   517  ARG517      0.0307
     69  CG        39.3870  -31.0140   64.7710 C.3   517  ARG517      0.0489
     70  CD        39.3980  -30.6890   66.2530 C.3   517  ARG517      0.2205
     71  NE        38.2220  -29.9080   66.6150 N.pl3 517  ARG517     -0.0865
     72  CZ        38.0030  -29.3840   67.8100 C.cat 517  ARG517      0.5346
     73  NH1       38.8850  -29.5540   68.7900 N.pl3 517  ARG517      0.1354
     74  NH2       36.9050  -28.6770   68.0370 N.pl3 517  ARG517      0.1354
     75  N         43.9600  -31.5030   68.9970 N.3   545  VAL545     -0.1231
     76  CA        44.3130  -32.7660   68.3210 C.3   545  VAL545      0.1692
     77  C         43.0310  -33.5270   67.9190 C.2   545  VAL545      0.2592
     78  O         42.8480  -33.8640   66.7440 O.2   545  VAL545     -0.2718
     79  CB        45.3260  -33.6390   69.1110 C.3   545  VAL545      0.0266
     80  CG1       45.6480  -34.9310   68.3640 C.3   545  VAL545      0.0020
     81  CG2       46.6070  -32.8630   69.4080 C.3   545  VAL545      0.0020
     82  N         42.1210  -33.7270   68.8830 N.am  546  LEU546     -0.1966
     83  CA        40.8390  -34.3900   68.6160 C.3   546  LEU546      0.1728
     84  C         39.7140  -33.4190   68.9000 C.2   546  LEU546      0.2616
     85  O         39.9280  -32.3610   69.5060 O.2   546  LEU546     -0.2715
     86  CB        40.6560  -35.6280   69.5220 C.3   546  LEU546      0.0311
     87  CG        41.5530  -36.8590   69.3760 C.3   546  LEU546      0.0022
     88  CD1       42.1720  -37.0860   67.9970 C.3   546  LEU546      0.0001
     89  CD2       42.4380  -37.0160   70.5130 C.3   546  LEU546      0.0001
     90  N         38.4990  -33.7960   68.4890 N.am  547  GLU547     -0.1977
     91  CA        37.2780  -33.0640   68.8300 C.3   547  GLU547      0.1602
     92  C         37.0240  -33.3290   70.3650 C.2   547  GLU547      0.2287
     93  O         37.6150  -34.2920   70.8930 O.2   547  GLU547     -0.2864
     94  CB        36.1070  -33.5360   67.9440 C.3   547  GLU547      0.0415
     95  CG        36.3290  -33.1780   66.4820 C.3   547  GLU547      0.1163
     96  CD        35.1950  -33.4320   65.5110 C.2   547  GLU547      0.3649
     97  OE1       34.6040  -34.5380   65.5460 O.co2 547  GLU547     -0.2457
     98  OE2       34.9570  -32.5460   64.6570 O.co2 547  GLU547     -0.2457
     99  N         34.6990  -34.7890   72.1430 N.3   549  GLU549     -0.1231
    100  CA        34.1560  -36.1570   72.2400 C.3   549  GLU549      0.1699
    101  C         35.2590  -37.2170   72.2290 C.2   549  GLU549      0.2592
    102  O         35.1710  -38.2030   72.9660 O.2   549  GLU549     -0.2718
    103  CB        33.1190  -36.4340   71.1240 C.3   549  GLU549      0.0402
    104  CG        31.8510  -35.5790   71.1790 C.3   549  GLU549      0.1161
    105  CD        31.9630  -34.0920   70.8520 C.2   549  GLU549      0.3649
    106  OE1       32.9670  -33.6850   70.2190 O.co2 549  GLU549     -0.2457
    107  OE2       31.0430  -33.3320   71.2400 O.co2 549  GLU549     -0.2457
    108  N         36.2900  -36.9860   71.4180 N.am  550  GLY550     -0.1957
    109  CA        37.4430  -37.8680   71.3370 C.3   550  GLY550      0.1869
    110  C         38.4010  -37.6730   72.4870 C.2   550  GLY550      0.2309
    111  O         38.9870  -38.6430   72.9650 O.2   550  GLY550     -0.2863
    112  N         36.8760  -39.2670   75.5540 N.3   553  GLU553     -0.1231
    113  CA        36.9510  -40.7030   75.2870 C.3   553  GLU553      0.1699
    114  C         38.3020  -41.3170   75.6660 C.2   553  GLU553      0.2592
    115  O         38.3370  -42.4820   76.0590 O.2   553  GLU553     -0.2718
    116  CB        36.5740  -40.9890   73.8180 C.3   553  GLU553      0.0402
    117  CG        36.9060  -42.3740   73.2880 C.3   553  GLU553      0.1161
    118  CD        35.7790  -43.0230   72.5160 C.2   553  GLU553      0.3649
    119  OE1       35.8000  -42.9570   71.2650 O.co2 553  GLU553     -0.2457
    120  OE2       34.8730  -43.5960   73.1650 O.co2 553  GLU553     -0.2457
    121  N         39.4020  -40.5640   75.5830 N.am  554  ILE554     -0.1980
    122  CA        40.6720  -41.1950   75.9170 C.3   554  ILE554      0.1595
    123  C         41.3010  -40.5760   77.1920 C.2   554  ILE554      0.2287
    124  O         42.0600  -41.2690   77.8770 O.2   554  ILE554     -0.2864
    125  CB        41.6750  -41.2920   74.6910 C.3   554  ILE554      0.0276
    126  CG1       42.8890  -40.3670   74.8190 C.3   554  ILE554      0.0022
    127  CG2       41.0300  -41.1270   73.3060 C.3   554  ILE554      0.0022
    128  CD1       44.1470  -41.1880   75.1110 C.3   554  ILE554      0.0001
@<TRIPOS>BOND
     1    16    15    2
     2    15    14    1
     3    17    14    1
     4    17    18    1
     5    14    13    1
     6    18    20   ar
     7    18    19   ar
     8    20    22   ar
     9    19    21   ar
    10    22    23   ar
    11    21    23   ar
    12     9     8    2
    13     1     2    1
    14    47    45   ar
    15    47    49   ar
    16     4     3    2
    17    45    44   ar
    18    63    62    2
    19    49    48   ar
    20    54    55    1
    21    54    51    1
    22     8     7    1
    23     3     2    1
    24     2     5    1
    25    53    52    2
    26    62    61    1
    27    44    43    1
    28    44    46   ar
    29    50    51    1
    30    50    41   am
    31    51    52    1
    32    48    46   ar
    33    52    56   am
    34     7     6    1
    35     7    10    1
    36    43    40    1
    37    11    10    1
    38    61    60    1
    39    10    12    1
    40    40    41    1
    41    40    39    1
    42    60    58   am
    43    41    42    2
    44    56    57    1
    45    58    57    1
    46    58    59    2
    47    38    37    2
    48    39    37   am
    49    37    36    1
    50    36    35    1
    51    35    26   am
    52    24    25    1
    53    26    25    1
    54    26    27    2
    55    25    28    1
    56    28    29    1
    57    30    29    1
    58    30    31    1
    59    33    32    1
    60    31    32    2
    61    32    34    1
    62    67    66    2
    63    64    65    1
    64    66    65    1
    65    65    68    1
    66    68    69    1
    67    98    96   ar
    68    69    70    1
    69    96    97   ar
    70    96    95    1
    71    70    71    1
    72    95    94    1
    73    71    72    2
    74    78    77    2
    75    72    74    1
    76    72    73    1
    77    77    76    1
    78    77    82   am
    79    94    91    1
    80    88    87    1
    81    76    75    1
    82    76    79    1
    83    80    79    1
    84    90    91    1
    85    90    84   am
    86    83    82    1
    87    83    84    1
    88    83    86    1
    89    91    92    1
    90    84    85    2
    91    79    81    1
    92    87    86    1
    93    87    89    1
    94   106   105   ar
    95    92    93    2
    96   105   104    1
    97   105   107   ar
    98   103   104    1
    99   103   100    1
   100   119   118   ar
   101   109   108    1
   102   109   110    1
   103   108   101   am
   104    99   100    1
   105   101   100    1
   106   101   102    2
   107   110   111    2
   108   118   120   ar
   109   118   117    1
   110   117   116    1
   111   127   125    1
   112   116   113    1
   113   125   126    1
   114   125   122    1
   115   126   128    1
   116   113   112    1
   117   113   114    1
   118   121   114   am
   119   121   122    1
   120   114   115    2
   121   122   123    1
   122   123   124    2
