@<TRIPOS>MOLECULE
tmp/5ctcA00.pdb
 128 122 0 0 0
SMALL
GASTEIGER

@<TRIPOS>ATOM
      1  N         10.9520   34.6320   11.8520 N.3   441  ALA441     -0.1245
      2  CA        11.8070   34.2950   12.9780 C.3   441  ALA441      0.1562
      3  C         12.4180   32.8800   12.8120 C.2   441  ALA441      0.2260
      4  O         11.7990   31.9840   12.2210 O.2   441  ALA441     -0.2867
      5  CB        10.9990   34.3720   14.2710 C.3   441  ALA441      0.0290
      6  N         11.1060   28.5910   14.2280 N.3   444  VAL444     -0.1245
      7  CA         9.6420   28.5850   14.1970 C.3   444  VAL444      0.1561
      8  C          9.2500   28.0370   12.8250 C.2   444  VAL444      0.2260
      9  O          9.7890   28.4740   11.7980 O.2   444  VAL444     -0.2867
     10  CB         8.9870   29.9900   14.4640 C.3   444  VAL444      0.0252
     11  CG1        7.4680   29.9490   14.2830 C.3   444  VAL444      0.0019
     12  CG2        9.3290   30.5380   15.8520 C.3   444  VAL444      0.0019
     13  N          6.8970   27.8630    9.7670 N.3   446  PHE446     -0.1241
     14  CA         5.9330   28.7170    9.0900 C.3   446  PHE446      0.1605
     15  C          5.3150   27.8630    7.9710 C.2   446  PHE446      0.2264
     16  O          5.8390   26.7810    7.6920 O.2   446  PHE446     -0.2867
     17  CB         6.6300   29.9450    8.5240 C.3   446  PHE446      0.0534
     18  CG         6.9850   30.9650    9.5710 C.ar  446  PHE446     -0.0203
     19  CD1        8.1590   30.8430   10.3210 C.ar  446  PHE446     -0.0042
     20  CD2        6.1760   32.0680    9.7900 C.ar  446  PHE446     -0.0042
     21  CE1        8.4810   31.7810   11.3050 C.ar  446  PHE446     -0.0003
     22  CE2        6.5120   33.0150   10.7590 C.ar  446  PHE446     -0.0003
     23  CZ         7.6630   32.8630   11.5080 C.ar  446  PHE446     -0.0000
     24  N         10.6980   25.9930   18.2360 N.3   475  ARG475     -0.1231
     25  CA         9.9430   26.5200   19.3670 C.3   475  ARG475      0.1694
     26  C          8.4690   26.1050   19.2090 C.2   475  ARG475      0.2593
     27  O          7.7410   26.0160   20.2050 O.2   475  ARG475     -0.2718
     28  CB        10.0340   28.0570   19.3820 C.3   475  ARG475      0.0321
     29  CG        11.4430   28.6040   19.5950 C.3   475  ARG475      0.0489
     30  CD        11.4820   30.1180   19.4910 C.3   475  ARG475      0.2205
     31  NE        10.7130   30.7570   20.5590 N.pl3 475  ARG475     -0.0865
     32  CZ        10.3680   32.0400   20.5710 C.cat 475  ARG475      0.5346
     33  NH1       10.7310   32.8410   19.5760 N.pl3 475  ARG475      0.1354
     34  NH2        9.6740   32.5370   21.5890 N.pl3 475  ARG475      0.1354
     35  N          8.0600   25.8870   17.9540 N.am  476  GLY476     -0.1942
     36  CA         6.7140   25.5030   17.5620 C.3   476  GLY476      0.2014
     37  C          6.3570   26.0420   16.1960 C.2   476  GLY476      0.2639
     38  O          7.2340   26.2580   15.3410 O.2   476  GLY476     -0.2714
     39  N          5.0580   26.2450   15.9770 N.am  477  PHE477     -0.1959
     40  CA         4.5410   26.7460   14.7050 C.3   477  PHE477      0.1771
     41  C          4.1370   28.1830   14.9040 C.2   477  PHE477      0.2620
     42  O          3.7860   28.5520   16.0330 O.2   477  PHE477     -0.2715
     43  CB         3.3110   25.9120   14.2810 C.3   477  PHE477      0.0574
     44  CG         3.6390   24.5280   13.7860 C.ar  477  PHE477     -0.0200
     45  CD1        3.7770   23.4680   14.6760 C.ar  477  PHE477     -0.0042
     46  CD2        3.8600   24.2920   12.4350 C.ar  477  PHE477     -0.0042
     47  CE1        4.1240   22.1880   14.2240 C.ar  477  PHE477     -0.0003
     48  CE2        4.2340   23.0170   11.9800 C.ar  477  PHE477     -0.0003
     49  CZ         4.3320   21.9630   12.8710 C.ar  477  PHE477     -0.0000
     50  N          4.1500   28.9930   13.8330 N.am  478  SER478     -0.1936
     51  CA         3.7010   30.3760   13.9380 C.3   478  SER478      0.2055
     52  C          2.1820   30.3950   14.1500 C.2   478  SER478      0.2644
     53  O          1.4300   30.0290   13.2510 O.2   478  SER478     -0.2714
     54  CB         4.0870   31.1840   12.7090 C.3   478  SER478      0.2130
     55  OG         3.6750   32.5270   12.9340 O.3   478  SER478     -0.2179
     56  N          1.7690   30.7410   15.3670 N.am  479  GLY479     -0.1939
     57  CA         0.3680   30.7730   15.7630 C.3   479  GLY479      0.2014
     58  C         -0.3720   32.0480   15.4190 C.2   479  GLY479      0.2639
     59  O         -1.5810   32.1420   15.6270 O.2   479  GLY479     -0.2714
     60  N          0.3390   33.0140   14.8670 N.am  480  GLY480     -0.1954
     61  CA        -0.2280   34.2990   14.5080 C.3   480  GLY480      0.1869
     62  C         -1.2890   34.2260   13.4490 C.2   480  GLY480      0.2309
     63  O         -1.3660   33.2380   12.7210 O.2   480  GLY480     -0.2863
     64  N          9.4480   22.3680   21.7150 N.3   517  ARG517     -0.1245
     65  CA         8.3180   22.7170   22.5840 C.3   517  ARG517      0.1563
     66  C          7.0150   22.0670   22.1320 C.2   517  ARG517      0.2260
     67  O          7.0060   21.3770   21.1170 O.2   517  ARG517     -0.2867
     68  CB         8.1530   24.2450   22.6940 C.3   517  ARG517      0.0307
     69  CG         9.4090   24.9970   23.1050 C.3   517  ARG517      0.0489
     70  CD         9.6840   24.7680   24.5580 C.3   517  ARG517      0.2205
     71  NE        10.9910   25.2700   24.9360 N.pl3 517  ARG517     -0.0865
     72  CZ        11.5140   25.0800   26.1350 C.cat 517  ARG517      0.5346
     73  NH1       10.8440   24.3970   27.0570 N.pl3 517  ARG517      0.1354
     74  NH2       12.7250   25.5420   26.4170 N.pl3 517  ARG517      0.1354
     75  N          6.3410   21.4510   27.3900 N.3   545  VAL545     -0.1231
     76  CA         5.1100   21.9160   26.7320 C.3   545  VAL545      0.1692
     77  C          5.2550   23.4120   26.3420 C.2   545  VAL545      0.2592
     78  O          5.1620   23.7510   25.1640 O.2   545  VAL545     -0.2718
     79  CB         3.8250   21.6240   27.5530 C.3   545  VAL545      0.0266
     80  CG1        2.5790   21.9740   26.7390 C.3   545  VAL545      0.0020
     81  CG2        3.7760   20.1750   28.0370 C.3   545  VAL545      0.0020
     82  N          5.5670   24.2880   27.3130 N.am  546  LEU546     -0.1966
     83  CA         5.7780   25.7060   26.9850 C.3   546  LEU546      0.1728
     84  C          7.2260   26.0830   27.2270 C.2   546  LEU546      0.2616
     85  O          7.9910   25.2910   27.7760 O.2   546  LEU546     -0.2715
     86  CB         4.8710   26.6250   27.8270 C.3   546  LEU546      0.0311
     87  CG         3.3770   26.2970   27.9120 C.3   546  LEU546      0.0022
     88  CD1        2.7230   27.0220   29.0470 C.3   546  LEU546      0.0001
     89  CD2        2.6710   26.4940   26.5680 C.3   546  LEU546      0.0001
     90  N          7.5920   27.3090   26.8450 N.am  547  GLU547     -0.1977
     91  CA         8.9070   27.8910   27.1480 C.3   547  GLU547      0.1602
     92  C          8.8460   28.2780   28.6570 C.2   547  GLU547      0.2287
     93  O          7.7290   28.4090   29.1860 O.2   547  GLU547     -0.2864
     94  CB         9.1970   29.0990   26.2260 C.3   547  GLU547      0.0415
     95  CG         9.3540   28.6670   24.7790 C.3   547  GLU547      0.1163
     96  CD         9.8360   29.6930   23.7710 C.2   547  GLU547      0.3649
     97  OE1       10.7770   29.3690   23.0100 O.co2 547  GLU547     -0.2457
     98  OE2        9.2430   30.7940   23.6980 O.co2 547  GLU547     -0.2457
     99  N          9.0040   30.9350   30.4600 N.3   549  GLU549     -0.1231
    100  CA         8.1900   32.1450   30.6170 C.3   549  GLU549      0.1699
    101  C          6.7020   31.8100   30.5860 C.2   549  GLU549      0.2592
    102  O          5.9230   32.3700   31.3610 O.2   549  GLU549     -0.2718
    103  CB         8.5430   33.1770   29.5380 C.3   549  GLU549      0.0402
    104  CG        10.0150   33.6040   29.4860 C.3   549  GLU549      0.1161
    105  CD        11.0870   32.6190   29.0260 C.2   549  GLU549      0.3649
    106  OE1       10.7510   31.5850   28.4020 O.co2 549  GLU549     -0.2457
    107  OE2       12.2800   32.8940   29.2920 O.co2 549  GLU549     -0.2457
    108  N          6.3350   30.8600   29.7260 N.am  550  GLY550     -0.1957
    109  CA         4.9690   30.3750   29.5970 C.3   550  GLY550      0.1869
    110  C          4.5470   29.5500   30.7880 C.2   550  GLY550      0.2309
    111  O          3.4520   29.7570   31.3380 O.2   550  GLY550     -0.2863
    112  N          4.0720   31.7630   33.8250 N.3   553  GLU553     -0.1231
    113  CA         2.8130   32.4840   33.6260 C.3   553  GLU553      0.1699
    114  C          1.5630   31.6340   34.0090 C.2   553  GLU553      0.2592
    115  O          0.6050   32.1710   34.5570 O.2   553  GLU553     -0.2718
    116  CB         2.7240   33.0360   32.1840 C.3   553  GLU553      0.0402
    117  CG         1.3600   33.5610   31.7470 C.3   553  GLU553      0.1161
    118  CD         0.9210   34.9220   32.2750 C.2   553  GLU553      0.3649
    119  OE1        1.7980   35.7580   32.6010 O.co2 553  GLU553     -0.2457
    120  OE2       -0.3080   35.1470   32.3760 O.co2 553  GLU553     -0.2457
    121  N          1.5900   30.3260   33.7740 N.am  554  ILE554     -0.1980
    122  CA         0.4390   29.4890   34.0840 C.3   554  ILE554      0.1595
    123  C          0.5330   28.8480   35.4920 C.2   554  ILE554      0.2287
    124  O         -0.4920   28.7630   36.1700 O.2   554  ILE554     -0.2864
    125  CB         0.2240   28.4410   32.9230 C.3   554  ILE554      0.0276
    126  CG1       -0.4930   29.0490   31.6990 C.3   554  ILE554      0.0022
    127  CG2       -0.5370   27.2100   33.3660 C.3   554  ILE554      0.0022
    128  CD1        0.2820   29.9380   30.8040 C.3   554  ILE554      0.0001
@<TRIPOS>BOND
     1    16    15    2
     2    15    14    1
     3    17    14    1
     4    17    18    1
     5    14    13    1
     6    18    20   ar
     7    18    19   ar
     8    20    22   ar
     9    19    21   ar
    10    22    23   ar
    11    21    23   ar
    12     9     8    2
    13     1     2    1
    14    48    46   ar
    15    48    49   ar
    16     4     3    2
    17    46    44   ar
    18    54    55    1
    19    54    51    1
    20    63    62    2
    21     3     2    1
    22     8     7    1
    23    49    47   ar
    24     2     5    1
    25    53    52    2
    26    62    61    1
    27    44    43    1
    28    44    45   ar
    29    50    51    1
    30    50    41   am
    31    51    52    1
    32    52    56   am
    33     7     6    1
    34     7    10    1
    35    47    45   ar
    36    43    40    1
    37    11    10    1
    38    10    12    1
    39    61    60    1
    40    40    41    1
    41    40    39    1
    42    60    58   am
    43    41    42    2
    44    38    37    2
    45    56    57    1
    46    58    59    2
    47    58    57    1
    48    39    37   am
    49    37    36    1
    50    36    35    1
    51    35    26   am
    52    24    25    1
    53    26    25    1
    54    26    27    2
    55    25    28    1
    56    28    29    1
    57    30    29    1
    58    30    31    1
    59    33    32    1
    60    31    32    2
    61    32    34    1
    62    67    66    2
    63    64    65    1
    64    66    65    1
    65    65    68    1
    66    68    69    1
    67    97    96   ar
    68    69    70    1
    69    98    96   ar
    70    96    95    1
    71    70    71    1
    72    95    94    1
    73    71    72    2
    74    78    77    2
    75    72    74    1
    76    72    73    1
    77    94    91    1
    78    77    76    1
    79    77    82   am
    80    89    87    1
    81    76    75    1
    82    76    79    1
    83    80    79    1
    84    90    91    1
    85    90    84   am
    86    83    84    1
    87    83    82    1
    88    83    86    1
    89    91    92    1
    90    84    85    2
    91    79    81    1
    92    86    87    1
    93    87    88    1
    94   106   105   ar
    95    92    93    2
    96   105   107   ar
    97   105   104    1
    98   104   103    1
    99   103   100    1
   100   109   108    1
   101   109   110    1
   102   108   101   am
   103    99   100    1
   104   101   100    1
   105   101   102    2
   106   110   111    2
   107   128   126    1
   108   126   125    1
   109   117   116    1
   110   117   118    1
   111   116   113    1
   112   118   120   ar
   113   118   119   ar
   114   125   127    1
   115   125   122    1
   116   113   112    1
   117   113   114    1
   118   121   114   am
   119   121   122    1
   120   114   115    2
   121   122   123    1
   122   123   124    2
