@<TRIPOS>MOLECULE
tmp/5cteB00.pdb
 77 72 0 0 0
SMALL
GASTEIGER

@<TRIPOS>ATOM
      1  N          9.4380  -19.0190  -23.0570 N.3   265  LEU265     -0.1231
      2  CA        10.1700  -18.1170  -22.1710 C.3   265  LEU265      0.1693
      3  C          9.1180  -17.4090  -21.3230 C.2   265  LEU265      0.2592
      4  O          8.6470  -18.0190  -20.3650 O.2   265  LEU265     -0.2718
      5  CB        11.0860  -17.1600  -22.9560 C.3   265  LEU265      0.0284
      6  CG        12.3450  -17.8100  -23.5360 C.3   265  LEU265      0.0019
      7  CD1       13.1380  -16.8250  -24.3090 C.3   265  LEU265      0.0001
      8  CD2       13.2110  -18.4730  -22.4510 C.3   265  LEU265      0.0001
      9  N          8.6680  -16.2010  -21.7060 N.am  266  THR266     -0.1953
     10  CA         7.5650  -15.5750  -20.9790 C.3   266  THR266      0.1897
     11  C          6.2570  -16.0830  -21.6290 C.2   266  THR266      0.2313
     12  O          6.1270  -16.0420  -22.8600 O.2   266  THR266     -0.2863
     13  CB         7.7000  -14.0390  -20.9140 C.3   266  THR266      0.1794
     14  OG1        8.7880  -13.7130  -20.0510 O.3   266  THR266     -0.2208
     15  CG2        6.4670  -13.3700  -20.3690 C.3   266  THR266      0.0378
     16  N          1.3190  -13.1730  -19.5410 N.3   270  ALA270     -0.1231
     17  CA         2.2750  -12.1540  -19.1140 C.3   270  ALA270      0.1694
     18  C          2.6490  -11.2210  -20.2650 C.2   270  ALA270      0.2591
     19  O          2.7060  -10.0030  -20.0820 O.2   270  ALA270     -0.2718
     20  CB         3.5090  -12.8100  -18.5400 C.3   270  ALA270      0.0304
     21  N          2.8290  -11.7840  -21.4600 N.am  271  LEU271     -0.1980
     22  CA         3.1290  -11.0430  -22.6750 C.3   271  LEU271      0.1596
     23  C          1.9690  -10.1300  -23.0500 C.2   271  LEU271      0.2287
     24  O          2.1950   -9.0050  -23.4950 O.2   271  LEU271     -0.2864
     25  CB         3.4930  -12.0170  -23.8150 C.3   271  LEU271      0.0297
     26  CG         4.9110  -11.9260  -24.4010 C.3   271  LEU271      0.0022
     27  CD1        5.9640  -11.4910  -23.3540 C.3   271  LEU271      0.0001
     28  CD2        5.2850  -13.2220  -25.1010 C.3   271  LEU271      0.0001
     29  N         -0.1780   -8.8090  -20.7840 N.3   273  LYS273     -0.1231
     30  CA        -0.1060   -7.7340  -19.7800 C.3   273  LYS273      0.1693
     31  C          0.9320   -6.6900  -20.1960 C.2   273  LYS273      0.2592
     32  O          0.6060   -5.5030  -20.2380 O.2   273  LYS273     -0.2718
     33  CB         0.2360   -8.2510  -18.3610 C.3   273  LYS273      0.0285
     34  CG        -0.5550   -9.4590  -17.8730 C.3   273  LYS273      0.0035
     35  CD        -1.8470   -9.0780  -17.1510 C.3   273  LYS273      0.0206
     36  CE        -2.2760  -10.0900  -16.1130 C.3   273  LYS273      0.1093
     37  NZ        -2.5490  -11.4450  -16.6750 N.3   273  LYS273     -0.1314
     38  N          2.1620   -7.1310  -20.5440 N.am  274  VAL274     -0.1966
     39  CA         3.2430   -6.2340  -20.9710 C.3   274  VAL274      0.1727
     40  C          2.8730   -5.4610  -22.2400 C.2   274  VAL274      0.2616
     41  O          3.1670   -4.2710  -22.3290 O.2   274  VAL274     -0.2715
     42  CB         4.6400   -6.9040  -21.0850 C.3   274  VAL274      0.0290
     43  CG1        5.0920   -7.5110  -19.7620 C.3   274  VAL274      0.0023
     44  CG2        4.7470   -7.8860  -22.2230 C.3   274  VAL274      0.0023
     45  N          2.2130   -6.1250  -23.2000 N.am  275  LEU275     -0.1977
     46  CA         1.8220   -5.5000  -24.4600 C.3   275  LEU275      0.1596
     47  C          0.5690   -4.6090  -24.3480 C.2   275  LEU275      0.2287
     48  O          0.4030   -3.6930  -25.1590 O.2   275  LEU275     -0.2864
     49  CB         1.6710   -6.5610  -25.5730 C.3   275  LEU275      0.0297
     50  CG         2.9880   -7.1540  -26.1090 C.3   275  LEU275      0.0022
     51  CD1        2.7550   -8.4590  -26.8300 C.3   275  LEU275      0.0001
     52  CD2        3.6850   -6.1810  -27.0340 C.3   275  LEU275      0.0001
     53  N         -2.0340  -12.8090  -27.7360 N.3   280  TYR280     -0.1241
     54  CA        -1.9220  -14.2530  -27.8300 C.3   280  TYR280      0.1605
     55  C         -2.9990  -14.9480  -27.0230 C.2   280  TYR280      0.2264
     56  O         -3.3650  -14.4860  -25.9430 O.2   280  TYR280     -0.2867
     57  CB        -0.5220  -14.7100  -27.3560 C.3   280  TYR280      0.0534
     58  CG         0.6480  -14.0530  -28.0730 C.ar  280  TYR280     -0.0201
     59  CD1        0.9830  -14.4080  -29.3820 C.ar  280  TYR280     -0.0009
     60  CD2        1.4700  -13.1390  -27.4170 C.ar  280  TYR280     -0.0009
     61  CE1        2.0770  -13.8400  -30.0300 C.ar  280  TYR280      0.0417
     62  CE2        2.5680  -12.5630  -28.0580 C.ar  280  TYR280      0.0417
     63  CZ         2.8700  -12.9210  -29.3630 C.ar  280  TYR280      0.1957
     64  OH         3.9510  -12.3630  -29.9960 O.3   280  TYR280     -0.2866
     65  N          2.9470  -12.6240  -37.0350 N.3   415  ASP415     -0.1239
     66  CA         2.9400  -12.4390  -35.5760 C.3   415  ASP415      0.1674
     67  C          1.7190  -11.6220  -35.1500 C.2   415  ASP415      0.2266
     68  O          1.5990  -10.4630  -35.5760 O.2   415  ASP415     -0.2867
     69  CB         4.2510  -11.7880  -35.0360 C.3   415  ASP415      0.1410
     70  CG         4.4640  -11.7960  -33.5060 C.2   415  ASP415      0.3668
     71  OD1        3.5540  -12.2570  -32.7680 O.co2 415  ASP415     -0.2456
     72  OD2        5.5450  -11.3540  -33.0490 O.co2 415  ASP415     -0.2456
     73  N          1.2980   -9.9710  -32.5760 N.3   417  ALA417     -0.1245
     74  CA         1.8290   -8.7700  -31.9280 C.3   417  ALA417      0.1562
     75  C          1.9770   -7.5960  -32.8960 C.2   417  ALA417      0.2260
     76  O          1.7970   -6.4560  -32.4800 O.2   417  ALA417     -0.2867
     77  CB         3.1510   -9.0810  -31.2510 C.3   417  ALA417      0.0290
@<TRIPOS>BOND
     1    65    66    1
     2    68    67    2
     3    66    67    1
     4    66    69    1
     5    69    70    1
     6    70    72   ar
     7    70    71   ar
     8    75    76    2
     9    75    74    1
    10    73    74    1
    11    74    77    1
    12    61    59   ar
    13    61    63   ar
    14    64    63    1
    15    59    58   ar
    16    63    62   ar
    17    58    60   ar
    18    58    57    1
    19    62    60   ar
    20    54    53    1
    21    54    57    1
    22    54    55    1
    23    52    50    1
    24    55    56    2
    25    51    50    1
    26    50    49    1
    27    49    46    1
    28    48    47    2
    29    28    26    1
    30    46    47    1
    31    46    45    1
    32    26    25    1
    33    26    27    1
    34     7     6    1
    35    25    22    1
    36     6     5    1
    37     6     8    1
    38    24    23    2
    39    45    40   am
    40     1     2    1
    41    23    22    1
    42     5     2    1
    43    12    11    2
    44    22    21    1
    45    41    40    2
    46    40    39    1
    47    44    42    1
    48     2     3    1
    49     9     3   am
    50     9    10    1
    51    11    10    1
    52    21    18   am
    53     3     4    2
    54    42    39    1
    55    42    43    1
    56    10    13    1
    57    39    38    1
    58    13    15    1
    59    13    14    1
    60    29    30    1
    61    38    31   am
    62    18    19    2
    63    18    17    1
    64    32    31    2
    65    31    30    1
    66    30    33    1
    67    16    17    1
    68    17    20    1
    69    33    34    1
    70    34    35    1
    71    35    36    1
    72    37    36    1
