@<TRIPOS>MOLECULE
tmp/5cteB01.pdb
 136 129 0 0 0
SMALL
GASTEIGER

@<TRIPOS>ATOM
      1  N         15.4310  -22.9200  -53.9940 N.3   429  ALA429     -0.1245
      2  CA        15.8630  -23.8460  -55.0320 C.3   429  ALA429      0.1562
      3  C         16.7250  -24.9590  -54.4150 C.2   429  ALA429      0.2260
      4  O         17.5230  -24.7010  -53.5130 O.2   429  ALA429     -0.2867
      5  CB        16.6930  -23.0930  -56.0670 C.3   429  ALA429      0.0290
      6  N         21.2830  -25.7070  -53.5540 N.3   432  VAL432     -0.1245
      7  CA        21.8380  -24.4230  -53.1530 C.3   432  VAL432      0.1561
      8  C         21.7420  -24.3480  -51.6150 C.2   432  VAL432      0.2260
      9  O         20.6860  -24.6280  -51.0440 O.2   432  VAL432     -0.2867
     10  CB        21.1630  -23.2050  -53.8350 C.3   432  VAL432      0.0252
     11  CG1       21.7380  -21.8840  -53.2980 C.3   432  VAL432      0.0019
     12  CG2       21.2970  -23.2630  -55.3530 C.3   432  VAL432      0.0019
     13  N         21.3400  -22.2940  -48.3420 N.3   434  PHE434     -0.1241
     14  CA        20.8020  -21.0210  -47.8840 C.3   434  PHE434      0.1605
     15  C         21.1750  -20.8880  -46.3920 C.2   434  PHE434      0.2264
     16  O         21.6700  -21.8770  -45.8280 O.2   434  PHE434     -0.2867
     17  CB        19.2790  -21.0070  -48.0970 C.3   434  PHE434      0.0534
     18  CG        18.9020  -20.9640  -49.5610 C.ar  434  PHE434     -0.0203
     19  CD1       18.7550  -22.1390  -50.2950 C.ar  434  PHE434     -0.0042
     20  CD2       18.6640  -19.7510  -50.2000 C.ar  434  PHE434     -0.0042
     21  CE1       18.4090  -22.1010  -51.6550 C.ar  434  PHE434     -0.0003
     22  CE2       18.3190  -19.7150  -51.5550 C.ar  434  PHE434     -0.0003
     23  CZ        18.1980  -20.8940  -52.2730 C.ar  434  PHE434     -0.0000
     24  N         25.4970  -26.6650  -55.7150 N.3   463  ARG463     -0.1231
     25  CA        26.0070  -25.7560  -56.7400 C.3   463  ARG463      0.1694
     26  C         26.7880  -24.6110  -56.0570 C.2   463  ARG463      0.2593
     27  O         27.6080  -23.9460  -56.6980 O.2   463  ARG463     -0.2718
     28  CB        24.8320  -25.1560  -57.5480 C.3   463  ARG463      0.0321
     29  CG        24.0570  -26.1640  -58.3880 C.3   463  ARG463      0.0489
     30  CD        22.8090  -25.5380  -58.9670 C.3   463  ARG463      0.2205
     31  NE        23.1170  -24.7070  -60.1300 N.pl3 463  ARG463     -0.0865
     32  CZ        22.2950  -23.7990  -60.6540 C.cat 463  ARG463      0.5346
     33  NH1       21.1030  -23.5700  -60.0990 N.pl3 463  ARG463      0.1354
     34  NH2       22.6650  -23.1010  -61.7290 N.pl3 463  ARG463      0.1354
     35  N         26.5370  -24.4140  -54.7630 N.am  464  GLY464     -0.1942
     36  CA        27.1840  -23.3890  -53.9530 C.3   464  GLY464      0.2014
     37  C         26.2480  -22.8560  -52.8900 C.2   464  GLY464      0.2639
     38  O         25.2450  -23.4920  -52.5420 O.2   464  GLY464     -0.2714
     39  N         26.5870  -21.6820  -52.3530 N.am  465  PHE465     -0.1959
     40  CA        25.8060  -20.9550  -51.3560 C.3   465  PHE465      0.1771
     41  C         25.0840  -19.8480  -52.0970 C.2   465  PHE465      0.2620
     42  O         25.6390  -19.2710  -53.0410 O.2   465  PHE465     -0.2715
     43  CB        26.7420  -20.3330  -50.2960 C.3   465  PHE465      0.0574
     44  CG        27.3510  -21.3110  -49.3230 C.ar  465  PHE465     -0.0200
     45  CD1       28.5500  -21.9480  -49.6120 C.ar  465  PHE465     -0.0042
     46  CD2       26.7170  -21.6110  -48.1230 C.ar  465  PHE465     -0.0042
     47  CE1       29.1010  -22.8710  -48.7200 C.ar  465  PHE465     -0.0003
     48  CE2       27.2480  -22.5630  -47.2490 C.ar  465  PHE465     -0.0003
     49  CZ        28.4480  -23.1670  -47.5410 C.ar  465  PHE465     -0.0000
     50  N         23.8610  -19.5300  -51.6760 N.am  466  SER466     -0.1936
     51  CA        23.0950  -18.4340  -52.2800 C.3   466  SER466      0.2055
     52  C         23.8130  -17.1100  -52.0720 C.2   466  SER466      0.2644
     53  O         24.0510  -16.7010  -50.9230 O.2   466  SER466     -0.2714
     54  CB        21.6880  -18.3750  -51.7050 C.3   466  SER466      0.2130
     55  OG        20.9940  -17.2810  -52.2760 O.3   466  SER466     -0.2179
     56  N         24.1960  -16.4900  -53.1890 N.am  467  GLY467     -0.1939
     57  CA        24.9220  -15.2270  -53.1960 C.3   467  GLY467      0.2014
     58  C         24.0630  -14.0060  -53.4550 C.2   467  GLY467      0.2639
     59  O         24.5930  -12.9070  -53.6400 O.2   467  GLY467     -0.2714
     60  N         22.7390  -14.1940  -53.4530 N.am  468  GLY468     -0.1954
     61  CA        21.7770  -13.1170  -53.6380 C.3   468  GLY468      0.1869
     62  C         21.7130  -12.2040  -52.4320 C.2   468  GLY468      0.2309
     63  O         22.1550  -12.5850  -51.3490 O.2   468  GLY468     -0.2863
     64  N         19.8980  -13.4810  -48.9130 N.3   471  ASP471     -0.1239
     65  CA        20.6400  -14.5320  -48.2340 C.3   471  ASP471      0.1674
     66  C         21.9890  -14.0570  -47.7320 C.2   471  ASP471      0.2266
     67  O         22.3990  -14.4770  -46.6590 O.2   471  ASP471     -0.2867
     68  CB        20.7240  -15.7760  -49.1280 C.3   471  ASP471      0.1410
     69  CG        19.3360  -16.3250  -49.4630 C.2   471  ASP471      0.3668
     70  OD1       18.5450  -16.5600  -48.5190 O.co2 471  ASP471     -0.2456
     71  OD2       19.0120  -16.4410  -50.6720 O.co2 471  ASP471     -0.2456
     72  N         30.5760  -27.1820  -56.6610 N.3   505  ARG505     -0.1245
     73  CA        31.2060  -26.0400  -57.3330 C.3   505  ARG505      0.1563
     74  C         32.0540  -25.2340  -56.3830 C.2   505  ARG505      0.2260
     75  O         32.2340  -25.6380  -55.2490 O.2   505  ARG505     -0.2867
     76  CB        30.2000  -25.1750  -58.0960 C.3   505  ARG505      0.0307
     77  CG        29.3910  -25.9090  -59.1650 C.3   505  ARG505      0.0489
     78  CD        30.2320  -26.3310  -60.3480 C.3   505  ARG505      0.2205
     79  NE        29.5260  -27.3070  -61.1830 N.pl3 505  ARG505     -0.0865
     80  CZ        30.0090  -27.8030  -62.3170 C.cat 505  ARG505      0.5346
     81  NH1       31.2030  -27.4310  -62.7600 N.pl3 505  ARG505      0.1354
     82  NH2       29.3050  -28.6730  -63.0130 N.pl3 505  ARG505      0.1354
     83  N         35.2510  -24.9930  -60.4940 N.3   533  VAL533     -0.1231
     84  CA        35.0890  -23.7310  -59.7820 C.3   533  VAL533      0.1692
     85  C         33.7320  -23.1320  -60.1710 C.2   533  VAL533      0.2592
     86  O         32.8860  -22.8550  -59.3140 O.2   533  VAL533     -0.2718
     87  CB        36.2810  -22.7740  -60.0390 C.3   533  VAL533      0.0266
     88  CG1       36.1030  -21.4630  -59.2600 C.3   533  VAL533      0.0020
     89  CG2       37.6070  -23.4420  -59.6640 C.3   533  VAL533      0.0020
     90  N         33.4970  -23.0250  -61.4720 N.am  534  LEU534     -0.1966
     91  CA        32.2350  -22.5110  -61.9900 C.3   534  LEU534      0.1728
     92  C         31.5270  -23.6090  -62.7620 C.2   534  LEU534      0.2616
     93  O         32.1450  -24.6180  -63.1080 O.2   534  LEU534     -0.2715
     94  CB        32.4800  -21.3100  -62.9310 C.3   534  LEU534      0.0311
     95  CG        33.2950  -20.1130  -62.4730 C.3   534  LEU534      0.0022
     96  CD1       33.3270  -19.0800  -63.5160 C.3   534  LEU534      0.0001
     97  CD2       32.8400  -19.5630  -61.1010 C.3   534  LEU534      0.0001
     98  N         30.2470  -23.3850  -63.0750 N.am  535  GLU535     -0.1977
     99  CA        29.4630  -24.2640  -63.9420 C.3   535  GLU535      0.1602
    100  C         29.9550  -23.9920  -65.3960 C.2   535  GLU535      0.2287
    101  O         30.5370  -22.9260  -65.6130 O.2   535  GLU535     -0.2864
    102  CB        27.9690  -23.9540  -63.7770 C.3   535  GLU535      0.0415
    103  CG        27.4660  -24.4980  -62.4490 C.3   535  GLU535      0.1163
    104  CD        25.9830  -24.4570  -62.1700 C.2   535  GLU535      0.3649
    105  OE1       25.3050  -23.5280  -62.6630 O.co2 535  GLU535     -0.2457
    106  OE2       25.5250  -25.2890  -61.3550 O.co2 535  GLU535     -0.2457
    107  N         28.8020  -22.7360  -68.1410 N.3   537  GLU537     -0.1231
    108  CA        28.4310  -21.3920  -68.6590 C.3   537  GLU537      0.1699
    109  C         29.3320  -20.3020  -68.0920 C.2   537  GLU537      0.2592
    110  O         29.6910  -19.3640  -68.8130 O.2   537  GLU537     -0.2718
    111  CB        26.9450  -21.0410  -68.3790 C.3   537  GLU537      0.0402
    112  CG        25.9190  -21.9510  -69.0640 C.3   537  GLU537      0.1161
    113  CD        25.8250  -23.4010  -68.6050 C.2   537  GLU537      0.3649
    114  OE1       26.2890  -23.7220  -67.4840 O.co2 537  GLU537     -0.2457
    115  OE2       25.2710  -24.2210  -69.3760 O.co2 537  GLU537     -0.2457
    116  N         29.7080  -20.4490  -66.8160 N.am  538  GLY538     -0.1957
    117  CA        30.5960  -19.5210  -66.1320 C.3   538  GLY538      0.1869
    118  C         32.0020  -19.5660  -66.6730 C.2   538  GLY538      0.2309
    119  O         32.5500  -18.5310  -67.0100 O.2   538  GLY538     -0.2863
    120  N         32.4410  -18.1090  -70.1040 N.3   541  GLU541     -0.1231
    121  CA        32.3410  -16.6500  -69.9750 C.3   541  GLU541      0.1699
    122  C         33.6990  -16.0010  -69.5950 C.2   541  GLU541      0.2592
    123  O         33.9990  -14.8990  -70.0550 O.2   541  GLU541     -0.2718
    124  CB        31.2530  -16.2960  -68.9530 C.3   541  GLU541      0.0402
    125  CG        30.7090  -14.8890  -69.0850 C.3   541  GLU541      0.1161
    126  CD        30.3160  -14.2280  -67.7810 C.2   541  GLU541      0.3649
    127  OE1       30.6630  -13.0390  -67.6000 O.co2 541  GLU541     -0.2457
    128  OE2       29.6660  -14.8890  -66.9390 O.co2 541  GLU541     -0.2457
    129  N         34.5330  -16.7120  -68.7930 N.am  542  ILE542     -0.1980
    130  CA        35.8060  -16.1890  -68.3110 C.3   542  ILE542      0.1595
    131  C         36.9920  -16.6660  -69.1620 C.2   542  ILE542      0.2287
    132  O         37.9040  -15.8740  -69.4460 O.2   542  ILE542     -0.2864
    133  CB        35.9480  -16.5250  -66.7710 C.3   542  ILE542      0.0276
    134  CG1       35.1920  -15.5020  -65.8830 C.3   542  ILE542      0.0022
    135  CG2       37.4120  -16.5640  -66.2950 C.3   542  ILE542      0.0022
    136  CD1       33.6780  -15.5850  -65.8270 C.3   542  ILE542      0.0001
@<TRIPOS>BOND
     1   120   121    1
     2   123   122    2
     3   121   122    1
     4   121   124    1
     5   122   129   am
     6   132   131    2
     7   115   113   ar
     8   131   130    1
     9   125   124    1
    10   125   126    1
    11   112   113    1
    12   112   111    1
    13   110   109    2
    14   129   130    1
    15   108   111    1
    16   108   107    1
    17   108   109    1
    18   113   114   ar
    19   130   133    1
    20   109   116   am
    21   126   127   ar
    22   126   128   ar
    23   119   118    2
    24   116   117    1
    25   133   135    1
    26   133   134    1
    27   118   117    1
    28   134   136    1
    29   101   100    2
    30   100    99    1
    31    99   102    1
    32    99    98    1
    33   102   103    1
    34    96    95    1
    35    93    92    2
    36    98    92   am
    37    82    80    1
    38    94    95    1
    39    94    91    1
    40    92    91    1
    41    81    80    1
    42   105   104   ar
    43    95    97    1
    44   103   104    1
    45    80    79    2
    46   104   106   ar
    47    91    90    1
    48    34    32    1
    49    90    85   am
    50    79    78    1
    51    32    31    2
    52    32    33    1
    53    83    84    1
    54    78    77    1
    55    85    84    1
    56    85    86    2
    57    31    30    1
    58    87    84    1
    59    87    89    1
    60    87    88    1
    61    77    76    1
    62    30    29    1
    63    29    28    1
    64    76    73    1
    65    28    25    1
    66    73    72    1
    67    73    74    1
    68    25    26    1
    69    25    24    1
    70    27    26    2
    71    74    75    2
    72     5     2    1
    73    26    35   am
    74    12    10    1
    75     2     3    1
    76     2     1    1
    77    35    36    1
    78     3     4    2
    79    36    37    1
    80    10    11    1
    81    10     7    1
    82    59    58    2
    83    61    60    1
    84    61    62    1
    85     6     7    1
    86    58    60   am
    87    58    57    1
    88    57    56    1
    89    56    52   am
    90     7     8    1
    91    42    41    2
    92    37    38    2
    93    37    39   am
    94    62    63    2
    95    39    40    1
    96    51    52    1
    97    51    54    1
    98    51    50    1
    99    55    54    1
   100    23    21   ar
   101    23    22   ar
   102    41    50   am
   103    41    40    1
   104    52    53    2
   105    21    19   ar
   106     8     9    2
   107    22    20   ar
   108    40    43    1
   109    71    69   ar
   110    43    44    1
   111    19    18   ar
   112    20    18   ar
   113    45    44   ar
   114    45    47   ar
   115    18    17    1
   116    69    68    1
   117    69    70   ar
   118    44    46   ar
   119    68    65    1
   120    64    65    1
   121    47    49   ar
   122    13    14    1
   123    65    66    1
   124    46    48   ar
   125    17    14    1
   126    14    15    1
   127    66    67    2
   128    49    48   ar
   129    15    16    2
