@<TRIPOS>MOLECULE
tmp/5ctgA00.pdb
 204 191 0 0 0
SMALL
GASTEIGER

@<TRIPOS>ATOM
      1  N         -5.8330  -18.0900  -13.6480 N.3    22  LEU22      -0.1231
      2  CA        -5.4970  -16.8170  -14.2610 C.3    22  LEU22       0.1693
      3  C         -4.9090  -15.8860  -13.2190 C.2    22  LEU22       0.2592
      4  O         -3.9320  -15.1790  -13.4660 O.2    22  LEU22      -0.2718
      5  CB        -6.7420  -16.1920  -14.8790 C.3    22  LEU22       0.0284
      6  CG        -6.6210  -14.7580  -15.3990 C.3    22  LEU22       0.0019
      7  CD1       -5.4980  -14.6060  -16.4430 C.3    22  LEU22       0.0001
      8  CD2       -7.9700  -14.2330  -15.9140 C.3    22  LEU22       0.0001
      9  N         -5.5190  -15.9050  -12.0430 N.am   23  PHE23      -0.1976
     10  CA        -5.0750  -15.1230  -10.9000 C.3    23  PHE23       0.1639
     11  C         -3.7200  -15.6280  -10.5000 C.2    23  PHE23       0.2290
     12  O         -2.8690  -14.8770  -10.0410 O.2    23  PHE23      -0.2864
     13  CB        -6.0490  -15.2540   -9.7330 C.3    23  PHE23       0.0560
     14  CG        -7.3890  -14.6350   -9.9810 C.ar   23  PHE23      -0.0200
     15  CD1       -7.7000  -14.0700  -11.2050 C.ar   23  PHE23      -0.0042
     16  CD2       -8.3650  -14.6670   -9.0010 C.ar   23  PHE23      -0.0042
     17  CE1       -8.9400  -13.5140  -11.4330 C.ar   23  PHE23      -0.0003
     18  CE2       -9.6100  -14.1220   -9.2330 C.ar   23  PHE23      -0.0003
     19  CZ        -9.8970  -13.5400  -10.4470 C.ar   23  PHE23      -0.0000
     20  N         -1.4700  -16.8580  -12.4450 N.3    25  SER25      -0.1217
     21  CA        -0.4310  -16.7570  -13.4670 C.3    25  SER25       0.1889
     22  C          0.7070  -15.7620  -13.1660 C.2    25  SER25       0.2288
     23  O          1.8480  -16.0250  -13.5510 O.2    25  SER25      -0.2866
     24  CB        -1.0420  -16.4180  -14.8330 C.3    25  SER25       0.2089
     25  OG        -1.5270  -15.0930  -14.8800 O.3    25  SER25      -0.2183
     26  N          5.9240  -15.3900  -13.1440 N.3    29  THR29      -0.1218
     27  CA         6.6680  -14.1870  -13.4880 C.3    29  THR29       0.1862
     28  C          7.2240  -13.5570  -12.2250 C.2    29  THR29       0.2287
     29  O          8.3430  -13.0520  -12.2030 O.2    29  THR29      -0.2866
     30  CB         5.7790  -13.1700  -14.2340 C.3    29  THR29       0.1770
     31  OG1        5.3820  -13.7150  -15.4980 O.3    29  THR29      -0.2211
     32  CG2        6.5130  -11.8570  -14.4590 C.3    29  THR29       0.0375
     33  N         -5.6700   -4.4290  -13.5340 N.3    50  SER50      -0.1217
     34  CA        -6.4940   -5.5800  -13.1800 C.3    50  SER50       0.1889
     35  C         -7.2310   -5.2900  -11.8910 C.2    50  SER50       0.2288
     36  O         -8.3830   -5.6750  -11.7240 O.2    50  SER50      -0.2866
     37  CB        -5.6570   -6.8500  -13.0230 C.3    50  SER50       0.2089
     38  OG        -5.0560   -7.2290  -14.2480 O.3    50  SER50      -0.2183
     39  N        -10.0260   -3.0120  -12.6040 N.3    53  ASN53      -0.1225
     40  CA       -11.0660   -3.7120  -13.3200 C.3    53  ASN53       0.1785
     41  C        -11.8460   -4.6140  -12.3660 C.2    53  ASN53       0.2597
     42  O        -13.0670   -4.7050  -12.4620 O.2    53  ASN53      -0.2718
     43  CB       -10.4910   -4.5200  -14.4660 C.3    53  ASN53       0.1169
     44  CG       -11.5390   -5.3350  -15.1580 C.2    53  ASN53       0.2627
     45  OD1      -12.4750   -4.7840  -15.7270 O.2    53  ASN53      -0.2716
     46  ND2      -11.4210   -6.6500  -15.0790 N.am   53  ASN53      -0.0877
     47  N        -11.1440   -5.2970  -11.4620 N.am   54  CYS54      -0.1970
     48  CA       -11.8220   -6.1790  -10.5160 C.3    54  CYS54       0.1712
     49  C        -12.7130   -5.3740   -9.6000 C.2    54  CYS54       0.2296
     50  O        -13.8410   -5.7730   -9.3250 O.2    54  CYS54      -0.2864
     51  CB       -10.8420   -7.0130   -9.6780 C.3    54  CYS54       0.0983
     52  SG        -9.9630   -8.3410  -10.5520 S.3    54  CYS54      -0.0798
     53  N        -16.0680   -4.3730  -11.3350 N.3    57  CYS57      -0.1235
     54  CA       -16.9120   -5.5490  -11.5030 C.3    57  CYS57       0.1677
     55  C        -17.3670   -6.0700  -10.1420 C.2    57  CYS57       0.2270
     56  O        -18.4610   -6.6200  -10.0250 O.2    57  CYS57      -0.2867
     57  CB       -16.2010   -6.6140  -12.3180 C.3    57  CYS57       0.0956
     58  SG       -15.6480   -5.9900  -13.9280 S.3    57  CYS57      -0.0801
     59  N        -20.4530  -13.1260   -9.1060 N.3    72  VAL72      -0.1245
     60  CA       -19.5190  -12.2040   -9.7630 C.3    72  VAL72       0.1561
     61  C        -18.7680  -11.3300   -8.7500 C.2    72  VAL72       0.2260
     62  O        -17.6020  -11.0020   -8.9540 O.2    72  VAL72      -0.2867
     63  CB       -20.2490  -11.3190  -10.7860 C.3    72  VAL72       0.0252
     64  CG1      -19.3800  -10.1610  -11.2280 C.3    72  VAL72       0.0019
     65  CG2      -20.7190  -12.1670  -11.9700 C.3    72  VAL72       0.0019
     66  N        -15.7480  -13.4770   -7.2500 N.3    75  VAL75      -0.1231
     67  CA       -14.5600  -13.7340   -8.0660 C.3    75  VAL75       0.1692
     68  C        -13.6320  -12.5070   -8.1730 C.2    75  VAL75       0.2592
     69  O        -12.4190  -12.6300   -7.9770 O.2    75  VAL75      -0.2718
     70  CB       -14.9700  -14.2630   -9.4790 C.3    75  VAL75       0.0266
     71  CG1      -15.9530  -13.3480  -10.1700 C.3    75  VAL75       0.0020
     72  CG2      -13.7550  -14.5430  -10.3460 C.3    75  VAL75       0.0020
     73  N        -14.1940  -11.3320   -8.4450 N.am   76  ASN76      -0.1974
     74  CA       -13.4150  -10.0960   -8.4640 C.3    76  ASN76       0.1688
     75  C        -12.9100   -9.7230   -7.0770 C.2    76  ASN76       0.2292
     76  O        -11.8410   -9.1280   -6.9430 O.2    76  ASN76      -0.2864
     77  CB       -14.2120   -8.9500   -9.0710 C.3    76  ASN76       0.1181
     78  CG       -14.7210   -9.2800  -10.4560 C.2    76  ASN76       0.2629
     79  OD1      -13.9450   -9.3730  -11.4190 O.2    76  ASN76      -0.2716
     80  ND2      -16.0340   -9.4250  -10.5760 N.am   76  ASN76      -0.0877
     81  N        -13.8760   -4.2870  -18.6720 N.3   142  LEU142     -0.1245
     82  CA       -13.4570   -5.6590  -18.9690 C.3   142  LEU142      0.1561
     83  C        -12.9140   -5.8750  -20.3740 C.2   142  LEU142      0.2260
     84  O        -11.9110   -6.5550  -20.5570 O.2   142  LEU142     -0.2867
     85  CB       -14.6090   -6.6290  -18.7290 C.3   142  LEU142      0.0270
     86  CG       -14.1740   -8.0930  -18.6350 C.3   142  LEU142      0.0019
     87  CD1      -13.0230   -8.2680  -17.6600 C.3   142  LEU142      0.0001
     88  CD2      -15.3380   -8.9540  -18.2030 C.3   142  LEU142      0.0001
     89  N         -9.4430   -5.0670  -20.9790 N.3   145  MET145     -0.1230
     90  CA        -8.5050   -6.0840  -20.5000 C.3   145  MET145      0.1702
     91  C         -8.0930   -7.0540  -21.6330 C.2   145  MET145      0.2592
     92  O         -7.0200   -7.6510  -21.5860 O.2   145  MET145     -0.2718
     93  CB        -9.0980   -6.8250  -19.2880 C.3   145  MET145      0.0401
     94  CG        -9.3600   -5.9120  -18.0540 C.3   145  MET145      0.0596
     95  SD        -7.9020   -5.3050  -17.1840 S.3   145  MET145     -0.1393
     96  CE        -7.7390   -3.6650  -17.8700 C.3   145  MET145      0.0692
     97  N         -8.9620   -7.2150  -22.6300 N.am  146  PHE146     -0.1976
     98  CA        -8.7300   -8.1230  -23.7600 C.3   146  PHE146      0.1639
     99  C         -7.5310   -7.7140  -24.5990 C.2   146  PHE146      0.2290
    100  O         -7.1080   -8.4460  -25.4890 O.2   146  PHE146     -0.2864
    101  CB        -9.9670   -8.2100  -24.6550 C.3   146  PHE146      0.0560
    102  CG       -11.1430   -8.8480  -23.9860 C.ar  146  PHE146     -0.0200
    103  CD1      -10.9840   -9.5540  -22.8000 C.ar  146  PHE146     -0.0042
    104  CD2      -12.4050   -8.7470  -24.5360 C.ar  146  PHE146     -0.0042
    105  CE1      -12.0590  -10.1410  -22.1770 C.ar  146  PHE146     -0.0003
    106  CE2      -13.4820   -9.3330  -23.9140 C.ar  146  PHE146     -0.0003
    107  CZ       -13.3050  -10.0320  -22.7310 C.ar  146  PHE146     -0.0000
    108  N         -4.4800   -7.2980  -23.6240 N.3   148  SER148     -0.1203
    109  CA        -3.3350   -8.1250  -23.2640 C.3   148  SER148      0.2005
    110  C         -3.3090   -9.5410  -23.8780 C.2   148  SER148      0.2460
    111  O         -2.2720   -9.9400  -24.4130 O.2   148  SER148     -0.2732
    112  CB        -3.2360   -8.2210  -21.7360 C.3   148  SER148      0.2103
    113  OG        -2.1470   -9.0350  -21.3320 O.3   148  SER148     -0.2182
    114  N         -4.4200  -10.3110  -23.8090 N.am  149  PRO149     -0.2728
    115  CA        -4.4430  -11.6110  -24.4860 C.3   149  PRO149      0.1401
    116  C         -4.3570  -11.4690  -26.0040 C.2   149  PRO149      0.2269
    117  O         -3.8110  -12.3540  -26.6590 O.2   149  PRO149     -0.2865
    118  CB        -5.7740  -12.2190  -24.0230 C.3   149  PRO149      0.0296
    119  CG        -6.5920  -11.0650  -23.7180 C.3   149  PRO149      0.0237
    120  CD        -5.6430  -10.1570  -23.0080 C.3   149  PRO149      0.0939
    121  N         -0.7310  -10.9430  -26.6770 N.3   152  VAL152     -0.1245
    122  CA         0.0490  -12.1660  -26.4780 C.3   152  VAL152      0.1561
    123  C         -0.0890  -13.0740  -27.6990 C.2   152  VAL152      0.2260
    124  O          0.8820  -13.6920  -28.1220 O.2   152  VAL152     -0.2867
    125  CB        -0.3740  -12.9320  -25.1840 C.3   152  VAL152      0.0252
    126  CG1        0.1120  -14.3750  -25.2040 C.3   152  VAL152      0.0019
    127  CG2        0.1460  -12.2160  -23.9350 C.3   152  VAL152      0.0019
    128  N          5.3750  -18.1890  -24.3020 N.3   164  PHE164     -0.1227
    129  CA         4.7390  -17.1960  -23.4410 C.3   164  PHE164      0.1736
    130  C          3.2290  -17.3130  -23.3380 C.2   164  PHE164      0.2595
    131  O          2.5830  -16.5430  -22.6320 O.2   164  PHE164     -0.2718
    132  CB         5.1900  -15.8070  -23.8710 C.3   164  PHE164      0.0547
    133  CG         6.6030  -15.5280  -23.4620 C.ar  164  PHE164     -0.0202
    134  CD1        7.1880  -16.3280  -22.4850 C.ar  164  PHE164     -0.0042
    135  CD2        7.3580  -14.5320  -24.0450 C.ar  164  PHE164     -0.0042
    136  CE1        8.4800  -16.1240  -22.0710 C.ar  164  PHE164     -0.0003
    137  CE2        8.6630  -14.3230  -23.6350 C.ar  164  PHE164     -0.0003
    138  CZ         9.2230  -15.1200  -22.6480 C.ar  164  PHE164     -0.0000
    139  N          2.6610  -18.2640  -24.0580 N.am  165  MET165     -0.1966
    140  CA         1.2320  -18.4790  -23.9690 C.3   165  MET165      0.1721
    141  C          0.9990  -19.9050  -23.4820 C.2   165  MET165      0.2458
    142  O          0.7720  -20.8210  -24.2730 O.2   165  MET165     -0.2730
    143  CB         0.5950  -18.2410  -25.3270 C.3   165  MET165      0.0427
    144  CG        -0.8440  -18.6630  -25.4690 C.3   165  MET165      0.0599
    145  SD        -1.4390  -18.0500  -27.0460 S.3   165  MET165     -0.1393
    146  CE        -1.9240  -19.5750  -27.8090 C.3   165  MET165      0.0692
    147  N          1.0310  -20.0970  -22.1570 N.am  166  PRO166     -0.2727
    148  CA         0.9010  -21.4580  -21.6290 C.3   166  PRO166      0.1402
    149  C         -0.4630  -22.0660  -21.9110 C.2   166  PRO166      0.2269
    150  O         -1.4770  -21.3860  -21.7830 O.2   166  PRO166     -0.2865
    151  CB         1.1300  -21.2710  -20.1230 C.3   166  PRO166      0.0296
    152  CG         1.9170  -19.9930  -20.0280 C.3   166  PRO166      0.0237
    153  CD         1.3230  -19.1240  -21.0930 C.3   166  PRO166      0.0939
    154  N         -2.8850  -22.1180  -18.7470 N.3   169  LEU169     -0.1245
    155  CA        -3.5270  -20.8400  -18.4840 C.3   169  LEU169      0.1561
    156  C         -4.5990  -20.5200  -19.5170 C.2   169  LEU169      0.2260
    157  O         -5.6850  -20.0620  -19.1720 O.2   169  LEU169     -0.2867
    158  CB        -2.4960  -19.7170  -18.4460 C.3   169  LEU169      0.0270
    159  CG        -2.5150  -18.9420  -17.1290 C.3   169  LEU169      0.0019
    160  CD1       -3.8110  -18.1550  -17.0390 C.3   169  LEU169      0.0001
    161  CD2       -2.3920  -19.8960  -15.9500 C.3   169  LEU169      0.0001
    162  N         -8.8150  -20.3130  -18.7070 N.3   173  THR173     -0.1218
    163  CA        -9.4040  -19.0190  -19.0140 C.3   173  THR173      0.1862
    164  C        -10.5490  -19.1190  -20.0320 C.2   173  THR173      0.2287
    165  O        -11.5620  -18.4300  -19.8900 O.2   173  THR173     -0.2866
    166  CB        -8.3300  -18.0490  -19.5320 C.3   173  THR173      0.1770
    167  OG1       -7.2310  -18.0200  -18.6130 O.3   173  THR173     -0.2211
    168  CG2       -8.8850  -16.6420  -19.7000 C.3   173  THR173      0.0375
    169  N        -13.3520  -20.4970  -18.2630 N.3   176  MET176     -0.1245
    170  CA       -13.8150  -19.5050  -17.2980 C.3   176  MET176      0.1570
    171  C        -14.7970  -18.5410  -17.9240 C.2   176  MET176      0.2261
    172  O        -15.8360  -18.2130  -17.3420 O.2   176  MET176     -0.2867
    173  CB       -12.6460  -18.6990  -16.7520 C.3   176  MET176      0.0387
    174  CG       -13.1130  -17.3990  -16.1250 C.3   176  MET176      0.0595
    175  SD       -11.8030  -16.2000  -15.8330 S.3   176  MET176     -0.1393
    176  CE       -12.4710  -14.7100  -16.5800 C.3   176  MET176      0.0692
    177  N        -19.1310  -18.2350  -17.3650 N.3   180  PHE180     -0.1241
    178  CA       -19.7070  -16.9240  -17.0960 C.3   180  PHE180      0.1605
    179  C        -20.6620  -16.4480  -18.1850 C.2   180  PHE180      0.2264
    180  O        -21.6470  -15.7770  -17.8940 O.2   180  PHE180     -0.2867
    181  CB       -18.5820  -15.9220  -16.8850 C.3   180  PHE180      0.0534
    182  CG       -18.0720  -15.8900  -15.4710 C.ar  180  PHE180     -0.0203
    183  CD1      -18.9510  -15.7640  -14.4090 C.ar  180  PHE180     -0.0042
    184  CD2      -16.7160  -16.0320  -15.1970 C.ar  180  PHE180     -0.0042
    185  CE1      -18.4830  -15.7490  -13.1000 C.ar  180  PHE180     -0.0003
    186  CE2      -16.2440  -16.0170  -13.8840 C.ar  180  PHE180     -0.0003
    187  CZ       -17.1250  -15.8790  -12.8430 C.ar  180  PHE180     -0.0000
    188  N        -17.7630  -11.4440  -21.3590 N.3   196  ASN196     -0.1240
    189  CA       -17.3140  -12.8160  -21.1510 C.3   196  ASN196      0.1653
    190  C        -17.4360  -13.6370  -22.4230 C.2   196  ASN196      0.2266
    191  O        -16.6210  -14.5160  -22.6670 O.2   196  ASN196     -0.2867
    192  CB       -18.0710  -13.4700  -20.0030 C.3   196  ASN196      0.1155
    193  CG       -17.5040  -13.0860  -18.6460 C.2   196  ASN196      0.2627
    194  OD1      -18.0460  -12.2220  -17.9500 O.2   196  ASN196     -0.2716
    195  ND2      -16.4000  -13.7190  -18.2670 N.am  196  ASN196     -0.0877
    196  N         -7.1600  -18.6310  -29.1420 N.3   206  GLN206     -0.1245
    197  CA        -5.9020  -18.8880  -28.4710 C.3   206  GLN206      0.1566
    198  C         -5.6050  -20.3750  -28.4900 C.2   206  GLN206      0.2260
    199  O         -4.4940  -20.7750  -28.8040 O.2   206  GLN206     -0.2867
    200  CB        -5.9220  -18.3700  -27.0270 C.3   206  GLN206      0.0367
    201  CG        -5.0090  -17.1740  -26.8340 C.3   206  GLN206      0.0905
    202  CD        -4.5310  -16.9800  -25.4150 C.2   206  GLN206      0.2608
    203  OE1       -4.5760  -17.8950  -24.6000 O.2   206  GLN206     -0.2717
    204  NE2       -4.0430  -15.7830  -25.1190 N.am  206  GLN206     -0.0878
@<TRIPOS>BOND
     1   196   197    1
     2   199   198    2
     3   198   197    1
     4   197   200    1
     5   124   123    2
     6   146   145    1
     7   123   122    1
     8   145   144    1
     9   200   201    1
    10   201   202    1
    11   121   122    1
    12   117   116    2
    13   122   125    1
    14   116   115    1
    15   100    99    2
    16   144   143    1
    17   202   204   am
    18   202   203    2
    19   143   140    1
    20   126   125    1
    21   125   127    1
    22   101   102    1
    23   101    98    1
    24    99    98    1
    25   104   102   ar
    26   104   106   ar
    27   115   118    1
    28   115   114    1
    29   111   110    2
    30   128   129    1
    31   142   141    2
    32   139   140    1
    33   139   130   am
    34   135   137   ar
    35   135   133   ar
    36   118   119    1
    37   102   103   ar
    38   140   141    1
    39   106   107   ar
    40   110   114   am
    41   110   109    1
    42   132   133    1
    43   132   129    1
    44   114   120    1
    45    98    97    1
    46   119   120    1
    47   137   138   ar
    48   108   109    1
    49   141   147   am
    50   133   134   ar
    51   129   130    1
    52   130   131    2
    53   109   112    1
    54   103   105   ar
    55   107   105   ar
    56   191   190    2
    57   138   136   ar
    58    97    91   am
    59   134   136   ar
    60   190   189    1
    61   147   148    1
    62   147   153    1
    63   149   150    2
    64   149   148    1
    65   112   113    1
    66    91    92    2
    67    91    90    1
    68   148   151    1
    69   188   189    1
    70   189   192    1
    71   153   152    1
    72    89    90    1
    73    84    83    2
    74    90    93    1
    75    83    82    1
    76   151   152    1
    77   164   165    2
    78   164   163    1
    79   192   193    1
    80   168   166    1
    81   166   163    1
    82   166   167    1
    83   156   157    2
    84   156   155    1
    85    93    94    1
    86   163   162    1
    87    82    85    1
    88    82    81    1
    89   154   155    1
    90    85    86    1
    91   193   195   am
    92   193   194    2
    93    86    88    1
    94    86    87    1
    95   155   158    1
    96   158   159    1
    97   169   170    1
    98   179   180    2
    99   179   178    1
   100    94    95    1
   101   171   172    2
   102   171   170    1
   103    96    95    1
   104   177   178    1
   105   170   173    1
   106   159   160    1
   107   159   161    1
   108   178   181    1
   109   181   182    1
   110   173   174    1
   111   176   175    1
   112     7     6    1
   113   174   175    1
   114     8     6    1
   115    45    44    2
   116    31    30    1
   117   182   184   ar
   118   182   183   ar
   119     6     5    1
   120   184   186   ar
   121    44    46   am
   122    44    43    1
   123    25    24    1
   124     5     2    1
   125    24    21    1
   126    43    40    1
   127    32    30    1
   128   183   185   ar
   129     2     1    1
   130     2     3    1
   131    38    37    1
   132    30    27    1
   133    58    57    1
   134   186   187   ar
   135    23    22    2
   136    33    34    1
   137    27    26    1
   138    27    28    1
   139    21    22    1
   140    21    20    1
   141     4     3    2
   142    40    39    1
   143    40    41    1
   144     3     9   am
   145    34    37    1
   146    34    35    1
   147   185   187   ar
   148    42    41    2
   149    41    47   am
   150    57    54    1
   151    28    29    2
   152     9    10    1
   153    65    63    1
   154    35    36    2
   155    54    53    1
   156    54    55    1
   157    47    48    1
   158    17    15   ar
   159    17    19   ar
   160    79    78    2
   161    64    63    1
   162    15    14   ar
   163    10    11    1
   164    10    13    1
   165    63    60    1
   166    80    78   am
   167    52    51    1
   168    48    51    1
   169    48    49    1
   170    11    12    2
   171    78    77    1
   172    19    18   ar
   173    72    70    1
   174    71    70    1
   175    55    56    2
   176    14    13    1
   177    14    16   ar
   178    60    59    1
   179    60    61    1
   180    49    50    2
   181    70    67    1
   182    18    16   ar
   183    77    74    1
   184    62    61    2
   185    74    73    1
   186    74    75    1
   187    73    68   am
   188    68    67    1
   189    68    69    2
   190    67    66    1
   191    75    76    2
