@<TRIPOS>MOLECULE
tmp/5cthB01.pdb
 96 94 0 0 0
SMALL
GASTEIGER

@<TRIPOS>ATOM
      1  N         -8.3160    7.9410   43.8930 N.3    59  TYR59      -0.1241
      2  CA        -7.2990    8.8990   43.4210 C.3    59  TYR59       0.1605
      3  C         -7.7730    9.6880   42.2330 C.2    59  TYR59       0.2264
      4  O         -7.5360   10.8890   42.1620 O.2    59  TYR59      -0.2867
      5  CB        -5.9860    8.2020   43.0390 C.3    59  TYR59       0.0534
      6  CG        -4.8680    9.1630   42.6360 C.ar   59  TYR59      -0.0201
      7  CD1       -3.9720    9.6540   43.5720 C.ar   59  TYR59      -0.0009
      8  CD2       -4.7260    9.5980   41.3160 C.ar   59  TYR59      -0.0009
      9  CE1       -2.9590   10.5480   43.2080 C.ar   59  TYR59       0.0417
     10  CE2       -3.7150   10.4920   40.9480 C.ar   59  TYR59       0.0417
     11  CZ        -2.8390   10.9550   41.9040 C.ar   59  TYR59       0.1957
     12  OH        -1.8420   11.8320   41.5690 O.3    59  TYR59      -0.2866
     13  N         -2.2620   20.1270   49.4260 N.3   127  PRO127     -0.2116
     14  CA        -2.1820   19.0710   48.4250 C.3   127  PRO127      0.1372
     15  C         -1.7860   17.7200   48.9980 C.2   127  PRO127      0.2244
     16  O         -1.6450   16.7670   48.2300 O.2   127  PRO127     -0.2868
     17  CB        -1.0910   19.5790   47.5010 C.3   127  PRO127      0.0268
     18  CG        -0.1460   20.2450   48.4300 C.3   127  PRO127      0.0207
     19  CD        -0.9710   20.8190   49.5610 C.3   127  PRO127      0.0892
     20  N         -3.6070   14.4930   47.9260 N.3   130  GLN130     -0.1231
     21  CA        -3.2390   13.9200   46.6340 C.3   130  GLN130      0.1698
     22  C         -1.9710   13.0930   46.7640 C.2   130  GLN130      0.2592
     23  O         -1.8270   12.0320   46.1550 O.2   130  GLN130     -0.2718
     24  CB        -3.0420   15.0200   45.5880 C.3   130  GLN130      0.0381
     25  CG        -2.6280   14.4960   44.2220 C.3   130  GLN130      0.0905
     26  CD        -2.4810   15.5900   43.1820 C.2   130  GLN130      0.2608
     27  OE1       -1.3770   16.0680   42.9270 O.2   130  GLN130     -0.2717
     28  NE2       -3.5880   15.9860   42.5710 N.am  130  GLN130     -0.0878
     29  N         -1.0570   13.5790   47.5840 N.am  131  GLN131     -0.1979
     30  CA         0.1900   12.8860   47.8050 C.3   131  GLN131      0.1601
     31  C         -0.0370   11.5570   48.5370 C.2   131  GLN131      0.2287
     32  O          0.5830   10.5470   48.2120 O.2   131  GLN131     -0.2864
     33  CB         1.1270   13.8020   48.5730 C.3   131  GLN131      0.0394
     34  CG         1.5950   14.9830   47.7380 C.3   131  GLN131      0.0908
     35  CD         2.1250   16.1220   48.5830 C.2   131  GLN131      0.2608
     36  OE1        1.3850   17.0430   48.9310 O.2   131  GLN131     -0.2717
     37  NE2        3.4130   16.0670   48.9180 N.am  131  GLN131     -0.0878
     38  N          0.3610    7.8790   47.0090 N.3   135  ALA135     -0.1245
     39  CA         1.3370    6.8960   47.4530 C.3   135  ALA135      0.1562
     40  C          0.6610    5.5540   47.7060 C.2   135  ALA135      0.2260
     41  O          1.1840    4.5150   47.3060 O.2   135  ALA135     -0.2867
     42  CB         2.0500    7.3700   48.6870 C.3   135  ALA135      0.0290
     43  N         -0.2940    4.0500   44.2510 N.3   138  MET138     -0.1230
     44  CA         0.9140    3.6270   43.5450 C.3   138  MET138      0.1702
     45  C          1.4290    2.3550   44.1580 C.2   138  MET138      0.2592
     46  O          1.8950    1.4500   43.4690 O.2   138  MET138     -0.2718
     47  CB         1.9950    4.7050   43.5980 C.3   138  MET138      0.0401
     48  CG         3.2390    4.3360   42.8150 C.3   138  MET138      0.0596
     49  SD         4.4740    5.6450   42.7490 S.3   138  MET138     -0.1393
     50  CE         4.9710    5.7600   44.4640 C.3   138  MET138      0.0692
     51  N          1.3540    2.2980   45.4740 N.am  139  ALA139     -0.1980
     52  CA         1.7620    1.1050   46.1730 C.3   139  ALA139      0.1597
     53  C          0.9040   -0.0710   45.7320 C.2   139  ALA139      0.2287
     54  O          1.4260   -1.1430   45.4130 O.2   139  ALA139     -0.2864
     55  CB         1.6550    1.3100   47.6670 C.3   139  ALA139      0.0319
     56  N          2.6890   15.0950   34.1390 N.3   187  ARG187     -0.1231
     57  CA         3.8420   15.3180   35.0150 C.3   187  ARG187      0.1694
     58  C          3.4720   14.8370   36.4190 C.2   187  ARG187      0.2592
     59  O          3.9930   15.3110   37.4300 O.2   187  ARG187     -0.2718
     60  CB         4.2990   16.7830   34.9970 C.3   187  ARG187      0.0321
     61  CG         4.7280   17.2560   33.6000 C.3   187  ARG187      0.0489
     62  CD         5.4330   18.6120   33.6160 C.3   187  ARG187      0.2205
     63  NE         4.5080   19.7350   33.7680 N.pl3 187  ARG187     -0.0865
     64  CZ         4.0200   20.4520   32.7590 C.cat 187  ARG187      0.5346
     65  NH1        4.3610   20.1680   31.5080 N.pl3 187  ARG187      0.1354
     66  NH2        3.1890   21.4560   33.0030 N.pl3 187  ARG187      0.1354
     67  N          2.5320   13.8940   36.4400 N.am  188  ASP188     -0.1960
     68  CA         2.0980   13.1820   37.6360 C.3   188  ASP188      0.1840
     69  C          2.9110   11.9100   37.8470 C.2   188  ASP188      0.2622
     70  O          2.7880   10.9280   37.1170 O.2   188  ASP188     -0.2715
     71  CB         0.6060   12.8450   37.5280 C.3   188  ASP188      0.1450
     72  CG         0.0410   12.2220   38.7920 C.2   188  ASP188      0.3671
     73  OD1       -1.0970   12.5630   39.1530 O.co2 188  ASP188     -0.2456
     74  OD2        0.7190   11.3870   39.4290 O.co2 188  ASP188     -0.2456
     75  N          3.7350   11.9350   38.8770 N.am  189  PHE189     -0.1960
     76  CA         4.5830   10.8070   39.1830 C.3   189  PHE189      0.1771
     77  C          3.7510    9.5750   39.4980 C.2   189  PHE189      0.2619
     78  O          4.0590    8.4760   39.0530 O.2   189  PHE189     -0.2715
     79  CB         5.4970   11.1350   40.3570 C.3   189  PHE189      0.0574
     80  CG         6.3230    9.9820   40.8000 C.ar  189  PHE189     -0.0200
     81  CD1        6.0090    9.2990   41.9500 C.ar  189  PHE189     -0.0042
     82  CD2        7.4080    9.5690   40.0380 C.ar  189  PHE189     -0.0042
     83  CE1        6.7650    8.2330   42.3380 C.ar  189  PHE189     -0.0003
     84  CE2        8.1750    8.5030   40.4190 C.ar  189  PHE189     -0.0003
     85  CZ         7.8580    7.8320   41.5670 C.ar  189  PHE189     -0.0000
     86  N          2.6920    9.7730   40.2760 N.am  190  PHE190     -0.1974
     87  CA         1.8900    8.6670   40.7920 C.3   190  PHE190      0.1639
     88  C          1.2220    7.8520   39.6930 C.2   190  PHE190      0.2290
     89  O          0.9890    6.6500   39.8440 O.2   190  PHE190     -0.2864
     90  CB         0.8360    9.1980   41.7520 C.3   190  PHE190      0.0560
     91  CG         1.4050    9.8180   42.9860 C.ar  190  PHE190     -0.0200
     92  CD1        1.9290    9.0260   43.9870 C.ar  190  PHE190     -0.0042
     93  CD2        1.4010   11.1830   43.1560 C.ar  190  PHE190     -0.0042
     94  CE1        2.4420    9.5860   45.1320 C.ar  190  PHE190     -0.0003
     95  CE2        1.9130   11.7490   44.3000 C.ar  190  PHE190     -0.0003
     96  CZ         2.4340   10.9500   45.2890 C.ar  190  PHE190     -0.0000
@<TRIPOS>BOND
     1    65    64    1
     2    64    66    1
     3    64    63    2
     4    61    62    1
     5    61    60    1
     6    62    63    1
     7    56    57    1
     8    60    57    1
     9    57    58    1
    10    58    67   am
    11    58    59    2
    12    67    68    1
    13    70    69    2
    14    71    68    1
    15    71    72    1
    16    68    69    1
    17    69    75   am
    18    72    73   ar
    19    72    74   ar
    20    75    76    1
    21    78    77    2
    22    76    77    1
    23    76    79    1
    24    77    86   am
    25    88    89    2
    26    88    87    1
    27    82    84   ar
    28    82    80   ar
    29    86    87    1
    30    79    80    1
    31    84    85   ar
    32    87    90    1
    33    80    81   ar
    34    10     8   ar
    35    10    11   ar
    36     8     6   ar
    37    85    83   ar
    38    12    11    1
    39    90    91    1
    40    11     9   ar
    41    81    83   ar
    42     4     3    2
    43     3     2    1
    44    28    26   am
    45     6     5    1
    46     6     7   ar
    47    49    48    1
    48    49    50    1
    49    48    47    1
    50    27    26    2
    51    91    93   ar
    52    91    92   ar
    53     5     2    1
    54    93    95   ar
    55    26    25    1
    56     9     7   ar
    57     2     1    1
    58    46    45    2
    59    44    47    1
    60    44    45    1
    61    44    43    1
    62    92    94   ar
    63    45    51   am
    64    25    24    1
    65    95    96   ar
    66    94    96   ar
    67    54    53    2
    68    51    52    1
    69    24    21    1
    70    53    52    1
    71    23    22    2
    72    52    55    1
    73    21    22    1
    74    21    20    1
    75    22    29   am
    76    38    39    1
    77    41    40    2
    78    39    40    1
    79    39    42    1
    80    17    14    1
    81    17    18    1
    82    29    30    1
    83    34    33    1
    84    34    35    1
    85    30    31    1
    86    30    33    1
    87    32    31    2
    88    16    15    2
    89    14    15    1
    90    14    13    1
    91    18    19    1
    92    35    37   am
    93    35    36    2
    94    13    19    1
