@<TRIPOS>MOLECULE
tmp/5cthA02.pdb
 97 96 0 0 0
SMALL
GASTEIGER

@<TRIPOS>ATOM
      1  N         22.0470    7.7200   44.1480 N.3    60  TYR60      -0.1241
      2  CA        21.9880    8.6450   45.2780 C.3    60  TYR60       0.1605
      3  C         23.2930    9.4050   45.4230 C.2    60  TYR60       0.2264
      4  O         23.2940   10.6090   45.6710 O.2    60  TYR60      -0.2867
      5  CB        21.6940    7.9130   46.5790 C.3    60  TYR60       0.0534
      6  CG        21.4880    8.8510   47.7360 C.ar   60  TYR60      -0.0201
      7  CD1       20.3750    9.6730   47.7930 C.ar   60  TYR60      -0.0009
      8  CD2       22.4080    8.9270   48.7660 C.ar   60  TYR60      -0.0009
      9  CE1       20.1770   10.5430   48.8520 C.ar   60  TYR60       0.0417
     10  CE2       22.2190    9.7970   49.8330 C.ar   60  TYR60       0.0417
     11  CZ        21.1000   10.6020   49.8680 C.ar   60  TYR60       0.1957
     12  OH        20.8990   11.4690   50.9150 O.3    60  TYR60      -0.2866
     13  N         27.9100   14.1920   48.3790 N.3    69  ARG69      -0.1245
     14  CA        27.8620   12.7580   48.6590 C.3    69  ARG69       0.1563
     15  C         28.8240   12.0370   47.7380 C.2    69  ARG69       0.2260
     16  O         28.4190   11.3560   46.8000 O.2    69  ARG69      -0.2867
     17  CB        26.4500   12.2090   48.4670 C.3    69  ARG69       0.0307
     18  CG        25.4190   12.8140   49.3930 C.3    69  ARG69       0.0489
     19  CD        25.6350   12.4040   50.8340 C.3    69  ARG69       0.2205
     20  NE        24.6370   13.0090   51.7120 N.pl3  69  ARG69      -0.0865
     21  CZ        24.6430   14.2860   52.0910 C.cat  69  ARG69       0.5346
     22  NH1       23.6910   14.7460   52.8940 N.pl3  69  ARG69       0.1354
     23  NH2       25.5980   15.1080   51.6700 N.pl3  69  ARG69       0.1354
     24  N         14.5270   19.9840   47.5510 N.3   128  PRO128     -0.2116
     25  CA        15.2810   18.8510   48.0830 C.3   128  PRO128      0.1372
     26  C         14.5130   17.5490   48.0180 C.2   128  PRO128      0.2244
     27  O         15.0450   16.5210   48.4310 O.2   128  PRO128     -0.2868
     28  CB        15.5120   19.2560   49.5340 C.3   128  PRO128      0.0268
     29  CG        14.2620   19.9870   49.8880 C.3   128  PRO128      0.0207
     30  CD        13.7770   20.6700   48.6170 C.3   128  PRO128      0.0892
     31  N         16.2930   14.3330   46.5780 N.3   131  GLN131     -0.1231
     32  CA        17.2320   13.6320   47.4380 C.3   131  GLN131      0.1698
     33  C         16.4670   12.8400   48.4890 C.2   131  GLN131      0.2592
     34  O         16.8940   11.7710   48.8970 O.2   131  GLN131     -0.2718
     35  CB        18.2240   14.5870   48.0880 C.3   131  GLN131      0.0381
     36  CG        19.1940   13.8670   48.9930 C.3   131  GLN131      0.0905
     37  CD        20.2410   14.7690   49.5750 C.2   131  GLN131      0.2608
     38  OE1       20.6850   15.7140   48.9300 O.2   131  GLN131     -0.2717
     39  NE2       20.6510   14.4830   50.8040 N.am  131  GLN131     -0.0878
     40  N         15.3390   13.3780   48.9340 N.am  132  GLN132     -0.1979
     41  CA        14.5040   12.6970   49.9110 C.3   132  GLN132      0.1601
     42  C         13.9280   11.3960   49.3350 C.2   132  GLN132      0.2287
     43  O         13.8430   10.3840   50.0240 O.2   132  GLN132     -0.2864
     44  CB        13.3770   13.6200   50.3740 C.3   132  GLN132      0.0394
     45  CG        13.8260   14.7820   51.2610 C.3   132  GLN132      0.0908
     46  CD        12.7860   15.8960   51.3480 C.2   132  GLN132      0.2608
     47  OE1       12.8380   16.8760   50.6050 O.2   132  GLN132     -0.2717
     48  NE2       11.8270   15.7390   52.2550 N.am  132  GLN132     -0.0878
     49  N         27.5000   13.9150   58.3270 N.3   187  LEU187     -0.1231
     50  CA        26.6780   14.5990   57.3390 C.3   187  LEU187      0.1693
     51  C         25.2730   14.9430   57.8430 C.2   187  LEU187      0.2592
     52  O         24.5600   15.7060   57.1960 O.2   187  LEU187     -0.2718
     53  CB        26.5860   13.7630   56.0660 C.3   187  LEU187      0.0284
     54  CG        27.6200   14.1620   55.0130 C.3   187  LEU187      0.0019
     55  CD1       29.0080   14.0420   55.5840 C.3   187  LEU187      0.0001
     56  CD2       27.4900   13.3150   53.7670 C.3   187  LEU187      0.0001
     57  N         24.8660   14.3240   58.9520 N.am  188  ARG188     -0.1966
     58  CA        23.5430   14.5150   59.5640 C.3   188  ARG188      0.1729
     59  C         22.4710   14.0550   58.5620 C.2   188  ARG188      0.2616
     60  O         21.2950   14.4270   58.6370 O.2   188  ARG188     -0.2715
     61  CB        23.3360   15.9710   60.0520 C.3   188  ARG188      0.0348
     62  CG        22.6760   16.9710   59.0900 C.3   188  ARG188      0.0492
     63  CD        22.3730   18.3120   59.7620 C.3   188  ARG188      0.2205
     64  NE        23.5710   19.1280   59.9610 N.pl3 188  ARG188     -0.0865
     65  CZ        23.5510   20.4080   60.3200 C.cat 188  ARG188      0.5346
     66  NH1       24.6880   21.0720   60.4790 N.pl3 188  ARG188      0.1354
     67  NH2       22.3930   21.0250   60.5170 N.pl3 188  ARG188      0.1354
     68  N         22.8990   13.1870   57.6510 N.am  189  ASP189     -0.1957
     69  CA        22.0150   12.5770   56.6720 C.3   189  ASP189      0.1840
     70  C         21.4600   11.2690   57.2290 C.2   189  ASP189      0.2622
     71  O         22.1890   10.2880   57.3820 O.2   189  ASP189     -0.2715
     72  CB        22.7740   12.3360   55.3650 C.3   189  ASP189      0.1450
     73  CG        21.8680   11.9280   54.2230 C.2   189  ASP189      0.3671
     74  OD1       20.9030   11.1720   54.4490 O.co2 189  ASP189     -0.2456
     75  OD2       22.1260   12.3650   53.0830 O.co2 189  ASP189     -0.2456
     76  N         20.1630   11.2620   57.5200 N.am  190  PHE190     -0.1960
     77  CA        19.5060   10.0990   58.1090 C.3   190  PHE190      0.1771
     78  C         19.6100    8.8560   57.2340 C.2   190  PHE190      0.2619
     79  O         19.8640    7.7590   57.7340 O.2   190  PHE190     -0.2715
     80  CB        18.0320   10.4020   58.3740 C.3   190  PHE190      0.0574
     81  CG        17.2500    9.2120   58.8340 C.ar  190  PHE190     -0.0200
     82  CD1       17.3640    8.7470   60.1300 C.ar  190  PHE190     -0.0042
     83  CD2       16.4330    8.5290   57.9550 C.ar  190  PHE190     -0.0042
     84  CE1       16.6470    7.6380   60.5480 C.ar  190  PHE190     -0.0003
     85  CE2       15.7220    7.4210   58.3650 C.ar  190  PHE190     -0.0003
     86  CZ        15.8290    6.9740   59.6620 C.ar  190  PHE190     -0.0000
     87  N         19.4060    9.0360   55.9300 N.am  191  PHE191     -0.1974
     88  CA        19.3230    7.9160   54.9940 C.3   191  PHE191      0.1639
     89  C         20.6140    7.1330   54.9630 C.2   191  PHE191      0.2290
     90  O         20.6090    5.9300   54.7330 O.2   191  PHE191     -0.2864
     91  CB        19.0150    8.3890   53.5670 C.3   191  PHE191      0.0560
     92  CG        17.6880    9.0600   53.4170 C.ar  191  PHE191     -0.0200
     93  CD1       17.6130   10.4200   53.1860 C.ar  191  PHE191     -0.0042
     94  CD2       16.5190    8.3240   53.4630 C.ar  191  PHE191     -0.0042
     95  CE1       16.4000   11.0350   53.0320 C.ar  191  PHE191     -0.0003
     96  CE2       15.3020    8.9380   53.3190 C.ar  191  PHE191     -0.0003
     97  CZ        15.2430   10.2970   53.1020 C.ar  191  PHE191     -0.0000
@<TRIPOS>BOND
     1     1     2    1
     2     2     3    1
     3     2     5    1
     4     3     4    2
     5    31    32    1
     6     5     6    1
     7    16    15    2
     8    32    35    1
     9    32    33    1
    10    24    25    1
    11    24    30    1
    12     6     7   ar
    13     6     8   ar
    14    15    14    1
    15     7     9   ar
    16    26    25    1
    17    26    27    2
    18    25    28    1
    19    35    36    1
    20    13    14    1
    21    17    14    1
    22    17    18    1
    23    33    34    2
    24    33    40   am
    25    30    29    1
    26     8    10   ar
    27     9    11   ar
    28    38    37    2
    29    40    41    1
    30    36    37    1
    31    42    41    1
    32    42    43    2
    33    18    19    1
    34    28    29    1
    35    37    39   am
    36    10    11   ar
    37    11    12    1
    38    41    44    1
    39    44    45    1
    40    47    46    2
    41    19    20    1
    42    45    46    1
    43    46    48   am
    44    23    21    1
    45    20    21    2
    46    21    22    1
    47    95    97   ar
    48    95    93   ar
    49    75    73   ar
    50    97    96   ar
    51    93    92   ar
    52    96    94   ar
    53    92    94   ar
    54    92    91    1
    55    91    88    1
    56    56    54    1
    57    73    74   ar
    58    73    72    1
    59    90    89    2
    60    89    88    1
    61    88    87    1
    62    54    55    1
    63    54    53    1
    64    72    69    1
    65    87    78   am
    66    53    50    1
    67    69    70    1
    68    69    68    1
    69    52    51    2
    70    70    71    2
    71    70    76   am
    72    78    79    2
    73    78    77    1
    74    50    51    1
    75    50    49    1
    76    76    77    1
    77    68    59   am
    78    51    57   am
    79    83    85   ar
    80    83    81   ar
    81    77    80    1
    82    85    86   ar
    83    80    81    1
    84    59    60    2
    85    59    58    1
    86    81    82   ar
    87    57    58    1
    88    62    63    1
    89    62    61    1
    90    58    61    1
    91    86    84   ar
    92    63    64    1
    93    64    65    2
    94    82    84   ar
    95    65    66    1
    96    65    67    1
