@<TRIPOS>MOLECULE
tmp/5cthC00.pdb
 91 88 0 0 0
SMALL
GASTEIGER

@<TRIPOS>ATOM
      1  N          7.6240   14.0630   64.3660 N.3   128  GLN128     -0.1231
      2  CA         6.3210   13.4600   64.6620 C.3   128  GLN128      0.1698
      3  C          5.7690   12.6630   63.4960 C.2   128  GLN128      0.2592
      4  O          5.1850   11.5940   63.6790 O.2   128  GLN128     -0.2718
      5  CB         5.2870   14.5220   65.0290 C.3   128  GLN128      0.0381
      6  CG         3.8980   13.9370   65.2670 C.3   128  GLN128      0.0905
      7  CD         2.8610   14.9710   65.6490 C.2   128  GLN128      0.2608
      8  OE1        2.9800   16.1440   65.3010 O.2   128  GLN128     -0.2717
      9  NE2        1.8230   14.5360   66.3550 N.am  128  GLN128     -0.0878
     10  N          5.9630   13.1900   62.2940 N.am  129  GLN129     -0.1979
     11  CA         5.4610   12.5460   61.0950 C.3   129  GLN129      0.1601
     12  C          6.1610   11.2230   60.8540 C.2   129  GLN129      0.2287
     13  O          5.5240   10.2400   60.5010 O.2   129  GLN129     -0.2864
     14  CB         5.6280   13.4670   59.8900 C.3   129  GLN129      0.0394
     15  CG         4.6950   14.6670   59.9050 C.3   129  GLN129      0.0908
     16  CD         5.1580   15.7790   58.9820 C.2   129  GLN129      0.2608
     17  OE1        5.8700   16.6910   59.4030 O.2   129  GLN129     -0.2717
     18  NE2        4.7410   15.7220   57.7230 N.am  129  GLN129     -0.0878
     19  N          4.7010    7.5690   61.1770 N.3   133  ALA133     -0.1245
     20  CA         4.6050    6.6620   60.0520 C.3   133  ALA133      0.1562
     21  C          5.0970    5.2870   60.4600 C.2   133  ALA133      0.2260
     22  O          4.4250    4.2880   60.2120 O.2   133  ALA133     -0.2867
     23  CB         5.3980    7.1810   58.8840 C.3   133  ALA133      0.0290
     24  N          2.4400    3.6120   62.8110 N.3   136  MET136     -0.1230
     25  CA         1.2860    3.1580   62.0510 C.3   136  MET136      0.1702
     26  C          1.6330    1.8990   61.2790 C.2   136  MET136      0.2592
     27  O          0.8310    0.9690   61.2080 O.2   136  MET136     -0.2718
     28  CB         0.8150    4.2340   61.0870 C.3   136  MET136      0.0401
     29  CG        -0.4020    3.8350   60.3000 C.3   136  MET136      0.0596
     30  SD        -0.9790    5.1810   59.2550 S.3   136  MET136     -0.1393
     31  CE         0.3840    5.3600   58.1040 C.3   136  MET136      0.0692
     32  N          2.8380    1.8750   60.7100 N.am  137  ALA137     -0.1980
     33  CA         3.3130    0.7130   59.9650 C.3   137  ALA137      0.1597
     34  C          3.3690   -0.5250   60.8450 C.2   137  ALA137      0.2287
     35  O          2.9700   -1.6110   60.4240 O.2   137  ALA137     -0.2864
     36  CB         4.6770    0.9860   59.3690 C.3   137  ALA137      0.0319
     37  N         -0.2260   -1.6870   61.8930 N.3   140  ILE140     -0.1231
     38  CA        -0.8370   -2.3320   60.7390 C.3   140  ILE140      0.1692
     39  C         -0.2240   -3.7040   60.4900 C.2   140  ILE140      0.2592
     40  O         -0.9340   -4.6520   60.1650 O.2   140  ILE140     -0.2718
     41  CB        -0.6860   -1.4740   59.4790 C.3   140  ILE140      0.0266
     42  CG1       -1.5220   -0.2040   59.6030 C.3   140  ILE140      0.0019
     43  CG2       -1.1600   -2.2240   58.2830 C.3   140  ILE140      0.0020
     44  CD1       -2.9870   -0.4580   59.6670 C.3   140  ILE140      0.0001
     45  N          1.0840   -3.8210   60.6990 N.am  141  SER141     -0.1952
     46  CA         1.7700   -5.0910   60.4800 C.3   141  SER141      0.1924
     47  C          1.2590   -6.1530   61.4320 C.2   141  SER141      0.2314
     48  O          1.1370   -7.3220   61.0740 O.2   141  SER141     -0.2863
     49  CB         3.2770   -4.9440   60.6740 C.3   141  SER141      0.2116
     50  OG         3.6280   -5.1100   62.0420 O.3   141  SER141     -0.2180
     51  N         -7.6610   14.2740   66.1440 N.3   185  ARG185     -0.1231
     52  CA        -7.4210   14.5630   64.7310 C.3   185  ARG185      0.1694
     53  C         -6.0020   14.1770   64.3200 C.2   185  ARG185      0.2592
     54  O         -5.4600   14.7160   63.3590 O.2   185  ARG185     -0.2718
     55  CB        -7.6880   16.0370   64.4140 C.3   185  ARG185      0.0321
     56  CG        -9.1710   16.3950   64.4440 C.3   185  ARG185      0.0489
     57  CD        -9.3770   17.7920   63.8530 C.3   185  ARG185      0.2205
     58  NE        -8.6970   18.8000   64.6600 N.pl3 185  ARG185     -0.0865
     59  CZ        -9.1720   19.2860   65.8040 C.cat 185  ARG185      0.5346
     60  NH1      -10.3550   18.9080   66.2710 N.pl3 185  ARG185      0.1354
     61  NH2       -8.4660   20.1840   66.4880 N.pl3 185  ARG185      0.1354
     62  N         -5.3990   13.2550   65.0670 N.am  186  ASP186     -0.1960
     63  CA        -4.0960   12.6980   64.7170 C.3   186  ASP186      0.1840
     64  C         -4.3300   11.4150   63.9050 C.2   186  ASP186      0.2622
     65  O         -4.7930   10.4090   64.4510 O.2   186  ASP186     -0.2715
     66  CB        -3.2700   12.4270   65.9830 C.3   186  ASP186      0.1450
     67  CG        -1.8040   12.1200   65.6900 C.2   186  ASP186      0.3671
     68  OD1       -0.9410   12.5300   66.4970 O.co2 186  ASP186     -0.2456
     69  OD2       -1.5090   11.4490   64.6810 O.co2 186  ASP186     -0.2456
     70  N         -3.9940   11.4560   62.6140 N.am  187  PHE187     -0.1960
     71  CA        -4.2330   10.3550   61.6730 C.3   187  PHE187      0.1771
     72  C         -3.5560    9.0390   62.0680 C.2   187  PHE187      0.2619
     73  O         -4.1470    7.9680   61.9370 O.2   187  PHE187     -0.2715
     74  CB        -3.7690   10.7740   60.2740 C.3   187  PHE187      0.0574
     75  CG        -3.8450    9.6770   59.2400 C.ar  187  PHE187     -0.0200
     76  CD1       -5.0610    9.2910   58.6990 C.ar  187  PHE187     -0.0042
     77  CD2       -2.6920    9.0410   58.7990 C.ar  187  PHE187     -0.0042
     78  CE1       -5.1270    8.2900   57.7460 C.ar  187  PHE187     -0.0003
     79  CE2       -2.7550    8.0400   57.8530 C.ar  187  PHE187     -0.0003
     80  CZ        -3.9770    7.6640   57.3290 C.ar  187  PHE187     -0.0000
     81  N         -2.3150    9.1230   62.5380 N.am  188  PHE188     -0.1974
     82  CA        -1.5090    7.9350   62.8150 C.3   188  PHE188      0.1639
     83  C         -2.1360    7.0490   63.8880 C.2   188  PHE188      0.2290
     84  O         -1.9540    5.8370   63.8800 O.2   188  PHE188     -0.2864
     85  CB        -0.0960    8.3290   63.2470 C.3   188  PHE188      0.0560
     86  CG         0.6900    9.0370   62.1870 C.ar  188  PHE188     -0.0200
     87  CD1        0.9110   10.3980   62.2660 C.ar  188  PHE188     -0.0042
     88  CD2        1.2140    8.3410   61.1150 C.ar  188  PHE188     -0.0042
     89  CE1        1.6360   11.0490   61.2970 C.ar  188  PHE188     -0.0003
     90  CE2        1.9410    8.9880   60.1450 C.ar  188  PHE188     -0.0003
     91  CZ         2.1520   10.3430   60.2360 C.ar  188  PHE188     -0.0000
@<TRIPOS>BOND
     1    80    78   ar
     2    80    79   ar
     3    18    16   am
     4    78    76   ar
     5    79    77   ar
     6    31    30    1
     7    43    41    1
     8    76    75   ar
     9    77    75   ar
    10    23    20    1
    11    16    17    2
    12    16    15    1
    13    75    74    1
    14    30    29    1
    15    36    33    1
    16    41    42    1
    17    41    38    1
    18    42    44    1
    19    14    15    1
    20    14    11    1
    21    33    32    1
    22    33    34    1
    23    20    21    1
    24    20    19    1
    25    90    91   ar
    26    90    88   ar
    27    40    39    2
    28    22    21    2
    29    91    89   ar
    30    74    71    1
    31    29    28    1
    32    35    34    2
    33    46    49    1
    34    46    45    1
    35    46    47    1
    36    39    45   am
    37    39    38    1
    38    13    12    2
    39    49    50    1
    40    32    26   am
    41    38    37    1
    42    12    11    1
    43    48    47    2
    44    28    25    1
    45    11    10    1
    46    88    86   ar
    47    27    26    2
    48    26    25    1
    49    89    87   ar
    50    71    72    1
    51    71    70    1
    52    73    72    2
    53    25    24    1
    54    72    81   am
    55    86    87   ar
    56    86    85    1
    57    10     3   am
    58    81    82    1
    59    70    64   am
    60    82    85    1
    61    82    83    1
    62    54    53    2
    63     3     4    2
    64     3     2    1
    65    57    56    1
    66    57    58    1
    67    84    83    2
    68    64    65    2
    69    64    63    1
    70    53    52    1
    71    53    62   am
    72     1     2    1
    73    55    56    1
    74    55    52    1
    75    58    59    2
    76     2     5    1
    77    69    67   ar
    78    63    62    1
    79    63    66    1
    80    52    51    1
    81     5     6    1
    82     6     7    1
    83     8     7    2
    84     7     9   am
    85    67    66    1
    86    67    68   ar
    87    59    60    1
    88    59    61    1
