@<TRIPOS>MOLECULE
tmp/5ctlA00.pdb
 125 121 0 0 0
SMALL
GASTEIGER

@<TRIPOS>ATOM
      1  N         -3.5500    0.7880    0.7160 N.3    49  TRP49      -0.1228
      2  CA        -3.2900    2.1330    1.2590 C.3    49  TRP49       0.1722
      3  C         -4.4840    3.0840    1.5400 C.2    49  TRP49       0.2437
      4  O         -4.4230    3.8030    2.5240 O.2    49  TRP49      -0.2733
      5  CB        -2.2100    2.8470    0.4470 C.3    49  TRP49       0.0563
      6  CG        -2.6200    3.1860   -0.9000 C.ar   49  TRP49       0.0003
      7  CD1       -2.4290    2.4570   -2.0200 C.ar   49  TRP49       0.0946
      8  CD2       -3.3190    4.3610   -1.2950 C.ar   49  TRP49       0.0152
      9  NE1       -2.9740    3.1040   -3.1030 N.ar   49  TRP49      -0.2442
     10  CE2       -3.5200    4.2820   -2.6790 C.ar   49  TRP49       0.0810
     11  CE3       -3.8010    5.4760   -0.6040 C.ar   49  TRP49       0.0012
     12  CZ2       -4.1790    5.2680   -3.3860 C.ar   49  TRP49       0.0191
     13  CZ3       -4.4380    6.4600   -1.3090 C.ar   49  TRP49       0.0001
     14  CH2       -4.6220    6.3560   -2.6870 C.ar   49  TRP49       0.0015
     15  N         -5.5750    3.1000    0.7160 N.am   50  PRO50      -0.2718
     16  CA        -6.7230    3.9080    1.1980 C.3    50  PRO50       0.1535
     17  C         -7.4490    3.3380    2.4330 C.2    50  PRO50       0.2598
     18  O         -8.1950    4.0570    3.0900 O.2    50  PRO50      -0.2715
     19  CB        -7.6650    3.9470   -0.0170 C.3    50  PRO50       0.0310
     20  CG        -6.8560    3.4550   -1.1770 C.3    50  PRO50       0.0237
     21  CD        -5.9100    2.4760   -0.5780 C.3    50  PRO50       0.0939
     22  N         -7.2050    2.0690    2.7390 N.am   51  PHE51      -0.1974
     23  CA        -7.8570    1.3470    3.8190 C.3    51  PHE51       0.1639
     24  C         -7.0020    1.2720    5.0970 C.2    51  PHE51       0.2290
     25  O         -7.4710    0.7920    6.1260 O.2    51  PHE51      -0.2864
     26  CB        -8.1930   -0.0720    3.3140 C.3    51  PHE51       0.0560
     27  CG        -9.0830   -0.0790    2.0780 C.ar   51  PHE51      -0.0200
     28  CD1       -8.5390    0.0490    0.8070 C.ar   51  PHE51      -0.0042
     29  CD2      -10.4700   -0.1900    2.1940 C.ar   51  PHE51      -0.0042
     30  CE1       -9.3560    0.0880   -0.3140 C.ar   51  PHE51      -0.0003
     31  CE2      -11.2790   -0.1840    1.0710 C.ar   51  PHE51      -0.0003
     32  CZ       -10.7210   -0.0380   -0.1860 C.ar   51  PHE51      -0.0000
     33  N        -11.0390    7.3070    7.3380 N.3    55  VAL55      -0.1245
     34  CA       -11.3050    8.3450    6.3290 C.3    55  VAL55       0.1561
     35  C        -11.2150    9.7390    6.9810 C.2    55  VAL55       0.2260
     36  O        -12.0380   10.1160    7.8240 O.2    55  VAL55      -0.2867
     37  CB       -12.6630    8.1280    5.5980 C.3    55  VAL55       0.0252
     38  CG1      -13.1160    9.3690    4.8520 C.3    55  VAL55       0.0019
     39  CG2      -12.5730    6.9500    4.6390 C.3    55  VAL55       0.0019
     40  N         -9.2370   14.7190    2.3210 N.3    60  LEU60      -0.1245
     41  CA        -9.6120   13.9760    1.1210 C.3    60  LEU60       0.1561
     42  C        -10.7900   14.5740    0.3320 C.2    60  LEU60       0.2260
     43  O        -11.1740   14.0260   -0.6910 O.2    60  LEU60      -0.2867
     44  CB        -9.9210   12.5070    1.5070 C.3    60  LEU60       0.0270
     45  CG        -8.8540   11.7090    2.3000 C.3    60  LEU60       0.0019
     46  CD1       -9.3790   10.3300    2.7040 C.3    60  LEU60       0.0001
     47  CD2       -7.5310   11.5990    1.5500 C.3    60  LEU60       0.0001
     48  N        -14.1100   14.6160    1.0150 N.3    62  LEU62      -0.1245
     49  CA       -15.3000   13.7150    1.0160 C.3    62  LEU62       0.1561
     50  C        -16.3100   14.1940    2.0520 C.2    62  LEU62       0.2260
     51  O        -16.7310   13.4310    2.9210 O.2    62  LEU62      -0.2867
     52  CB       -14.9290   12.2520    1.3070 C.3    62  LEU62       0.0270
     53  CG       -13.9910   11.4900    0.3640 C.3    62  LEU62       0.0019
     54  CD1      -13.6330   10.1360    0.9620 C.3    62  LEU62       0.0001
     55  CD2      -14.5680   11.2970   -1.0410 C.3    62  LEU62       0.0001
     56  N        -18.9440   11.9840    3.4620 N.3    65  TYR65      -0.1241
     57  CA       -18.5720   10.6210    3.8770 C.3    65  TYR65       0.1605
     58  C        -19.2850   10.2020    5.1240 C.2    65  TYR65       0.2264
     59  O        -19.9150    9.1510    5.1280 O.2    65  TYR65      -0.2867
     60  CB       -17.0540   10.4240    4.1030 C.3    65  TYR65       0.0534
     61  CG       -16.7330    8.9620    4.2780 C.ar   65  TYR65      -0.0201
     62  CD1      -16.7090    8.0980    3.1800 C.ar   65  TYR65      -0.0009
     63  CD2      -16.5190    8.4160    5.5310 C.ar   65  TYR65      -0.0009
     64  CE1      -16.4440    6.7430    3.3300 C.ar   65  TYR65       0.0417
     65  CE2      -16.2630    7.0590    5.6920 C.ar   65  TYR65       0.0417
     66  CZ       -16.2190    6.2270    4.5940 C.ar   65  TYR65       0.1957
     67  OH       -15.9740    4.8800    4.7550 O.3    65  TYR65      -0.2866
     68  N        -15.9020   -2.4670    6.8380 N.3   100  MET100     -0.1245
     69  CA       -14.9940   -1.6490    6.0180 C.3   100  MET100      0.1570
     70  C        -15.3370   -1.7470    4.5120 C.2   100  MET100      0.2261
     71  O        -15.4020   -0.7280    3.8180 O.2   100  MET100     -0.2867
     72  CB       -13.5570   -2.0920    6.2880 C.3   100  MET100      0.0387
     73  CG       -12.4990   -1.4370    5.4310 C.3   100  MET100      0.0595
     74  SD       -10.8530   -2.1330    5.7230 S.3   100  MET100     -0.1393
     75  CE       -10.9370   -3.6650    4.8330 C.3   100  MET100      0.0692
     76  N        -17.5410    0.8710    1.9000 N.3   104  CYS104     -0.1235
     77  CA       -16.9590    1.2110    0.6110 C.3   104  CYS104      0.1677
     78  C        -17.9340    1.0620   -0.5390 C.2   104  CYS104      0.2270
     79  O        -18.0030    1.9500   -1.3880 O.2   104  CYS104     -0.2867
     80  CB       -15.7150    0.3710    0.3390 C.3   104  CYS104      0.0956
     81  SG       -14.8210    1.0870   -1.0100 S.3   104  CYS104     -0.0801
     82  N        -20.8950    3.8560   -0.0410 N.3   107  TYR107     -0.1227
     83  CA       -20.5940    5.2500   -0.3330 C.3   107  TYR107      0.1736
     84  C        -20.3460    5.4930   -1.8390 C.2   107  TYR107      0.2595
     85  O        -20.5140    6.5990   -2.3210 O.2   107  TYR107     -0.2718
     86  CB       -19.4050    5.7310    0.5350 C.3   107  TYR107      0.0548
     87  CG       -18.9560    7.1610    0.2680 C.ar  107  TYR107     -0.0200
     88  CD1      -19.7250    8.2520    0.6710 C.ar  107  TYR107     -0.0009
     89  CD2      -17.7660    7.4190   -0.4040 C.ar  107  TYR107     -0.0009
     90  CE1      -19.3230    9.5510    0.3980 C.ar  107  TYR107      0.0417
     91  CE2      -17.3500    8.7170   -0.6690 C.ar  107  TYR107      0.0417
     92  CZ       -18.1270    9.7860   -0.2750 C.ar  107  TYR107      0.1957
     93  OH       -17.7140   11.0810   -0.5610 O.3   107  TYR107     -0.2866
     94  N        -19.9600    4.4570   -2.5780 N.am  108  ASN108     -0.1974
     95  CA       -19.4430    4.5900   -3.9360 C.3   108  ASN108      0.1688
     96  C        -20.1830    3.7410   -4.9470 C.2   108  ASN108      0.2292
     97  O        -20.9570    2.8690   -4.6030 O.2   108  ASN108     -0.2864
     98  CB       -17.9740    4.1720   -3.9340 C.3   108  ASN108      0.1181
     99  CG       -17.1440    4.9830   -2.9580 C.2   108  ASN108      0.2629
    100  OD1      -16.9140    6.1770   -3.1830 O.2   108  ASN108     -0.2716
    101  ND2      -16.7070    4.3480   -1.8640 N.am  108  ASN108     -0.0877
    102  N        -12.6860    3.4630   -8.8780 N.3   113  ASP113     -0.1225
    103  CA       -11.3960    2.8750   -8.4990 C.3   113  ASP113      0.1805
    104  C        -11.4400    2.2430   -7.1220 C.2   113  ASP113      0.2597
    105  O        -11.0220    1.0970   -6.9390 O.2   113  ASP113     -0.2718
    106  CB       -10.2840    3.9210   -8.4910 C.3   113  ASP113      0.1424
    107  CG        -9.6580    4.1220   -9.8340 C.2   113  ASP113      0.3668
    108  OD1       -9.9460    3.3460  -10.7770 O.co2 113  ASP113     -0.2456
    109  OD2       -8.8430    5.0650   -9.9340 O.co2 113  ASP113     -0.2456
    110  N        -11.9560    3.0010   -6.1600 N.am  114  ILE114     -0.1980
    111  CA       -12.0220    2.5390   -4.7740 C.3   114  ILE114      0.1595
    112  C        -12.8430    1.2450   -4.6260 C.2   114  ILE114      0.2287
    113  O        -12.4770    0.3920   -3.8080 O.2   114  ILE114     -0.2864
    114  CB       -12.5070    3.6610   -3.8070 C.3   114  ILE114      0.0276
    115  CG1      -12.1170    3.3190   -2.3640 C.3   114  ILE114      0.0022
    116  CG2      -13.9990    3.9470   -3.9700 C.3   114  ILE114      0.0022
    117  CD1      -10.6280    3.3530   -2.0910 C.3   114  ILE114      0.0001
    118  N        -10.5590   -1.5760   -5.8610 N.3   117  MET117     -0.1245
    119  CA        -9.5750   -1.8560   -4.8040 C.3   117  MET117      0.1570
    120  C        -10.1580   -2.7330   -3.6810 C.2   117  MET117      0.2261
    121  O         -9.5710   -3.7490   -3.3010 O.2   117  MET117     -0.2867
    122  CB        -9.0120   -0.5380   -4.2710 C.3   117  MET117      0.0387
    123  CG        -8.1190    0.1850   -5.2830 C.3   117  MET117      0.0595
    124  SD        -7.6140    1.8840   -4.8770 S.3   117  MET117     -0.1393
    125  CE        -5.9730    1.6900   -4.1970 C.3   117  MET117      0.0692
@<TRIPOS>BOND
     1   108   107   ar
     2   109   107   ar
     3   107   106    1
     4   102   103    1
     5   103   106    1
     6   103   104    1
     7   104   105    2
     8   104   110   am
     9   110   111    1
    10   118   119    1
    11   123   124    1
    12   123   122    1
    13    96    97    2
    14    96    95    1
    15   124   125    1
    16   119   122    1
    17   119   120    1
    18   111   112    1
    19   111   114    1
    20   112   113    2
    21   116   114    1
    22    95    98    1
    23    95    94    1
    24    98    99    1
    25   114   115    1
    26   120   121    2
    27    12    14   ar
    28    12    10   ar
    29   100    99    2
    30     9    10   ar
    31     9     7   ar
    32    99   101   am
    33    14    13   ar
    34    10     8   ar
    35    94    84   am
    36   115   117    1
    37    85    84    2
    38     7     6   ar
    39    84    83    1
    40    79    78    2
    41    13    11   ar
    42     8     6   ar
    43     8    11   ar
    44    20    21    1
    45    20    19    1
    46    55    53    1
    47    81    80    1
    48     6     5    1
    49    43    42    2
    50    91    89   ar
    51    91    92   ar
    52    21    15    1
    53    93    92    1
    54    78    77    1
    55    89    87   ar
    56    83    82    1
    57    83    86    1
    58    30    32   ar
    59    30    28   ar
    60    92    90   ar
    61    32    31   ar
    62    19    16    1
    63    87    86    1
    64    87    88   ar
    65    42    41    1
    66    80    77    1
    67    53    54    1
    68    53    52    1
    69    90    88   ar
    70     5     2    1
    71    77    76    1
    72     1     2    1
    73    15    16    1
    74    15     3   am
    75    28    27   ar
    76    48    49    1
    77    49    52    1
    78    49    50    1
    79    31    29   ar
    80    41    44    1
    81    41    40    1
    82    16    17    1
    83     2     3    1
    84    44    45    1
    85     3     4    2
    86    47    45    1
    87    50    51    2
    88    27    29   ar
    89    27    26    1
    90    45    46    1
    91    17    22   am
    92    17    18    2
    93    22    23    1
    94    62    64   ar
    95    62    61   ar
    96    26    23    1
    97    64    66   ar
    98    56    57    1
    99    71    70    2
   100    23    24    1
   101    57    60    1
   102    57    58    1
   103    60    61    1
   104    61    63   ar
   105    70    69    1
   106    66    67    1
   107    66    65   ar
   108    39    37    1
   109    75    74    1
   110    38    37    1
   111    24    25    2
   112    58    59    2
   113    73    74    1
   114    73    72    1
   115    63    65   ar
   116    37    34    1
   117    69    72    1
   118    69    68    1
   119    34    35    1
   120    34    33    1
   121    35    36    2
