@<TRIPOS>MOLECULE
tmp/5ctmB00.pdb
 96 90 0 0 0
SMALL
GASTEIGER

@<TRIPOS>ATOM
      1  N          9.5910   16.9570   32.9770 N.3    42  GLN42      -0.1231
      2  CA        10.8130   17.2380   32.2300 C.3    42  GLN42       0.1698
      3  C         10.7770   16.4080   30.9430 C.2    42  GLN42       0.2592
      4  O          9.7000   16.1930   30.3790 O.2    42  GLN42      -0.2718
      5  CB        12.0640   16.9950   33.0870 C.3    42  GLN42       0.0381
      6  CG        11.9490   17.4580   34.5500 C.3    42  GLN42       0.0905
      7  CD        11.6700   18.9370   34.7020 C.2    42  GLN42       0.2608
      8  OE1       10.8460   19.4990   33.9910 O.2    42  GLN42      -0.2717
      9  NE2       12.3450   19.5800   35.6550 N.am   42  GLN42      -0.0878
     10  N         11.9140   15.9340   30.4600 N.am   43  SER43      -0.1952
     11  CA        11.9040   15.2240   29.1780 C.3    43  SER43       0.1924
     12  C         11.2250   13.8620   29.1940 C.2    43  SER43       0.2314
     13  O         11.0690   13.2660   28.1240 O.2    43  SER43      -0.2863
     14  CB        13.3040   15.1230   28.5990 C.3    43  SER43       0.2116
     15  OG        13.7550   16.3910   28.1600 O.3    43  SER43      -0.2180
     16  N         24.6270   21.2370   24.6810 N.3    74  ILE74      -0.1245
     17  CA        24.7750   19.7960   24.5300 C.3    74  ILE74       0.1561
     18  C         25.1500   19.5040   23.0880 C.2    74  ILE74       0.2260
     19  O         24.3750   19.7670   22.1610 O.2    74  ILE74      -0.2867
     20  CB        23.4900   19.0740   24.9330 C.3    74  ILE74       0.0252
     21  CG1       23.2110   19.3440   26.4130 C.3    74  ILE74       0.0019
     22  CG2       23.6060   17.5790   24.6630 C.3    74  ILE74       0.0019
     23  CD1       21.9590   18.7260   26.9290 C.3    74  ILE74       0.0001
     24  N         22.9620   17.8760   20.3640 N.3    77  TRP77      -0.1241
     25  CA        21.7900   18.6210   19.8940 C.3    77  TRP77       0.1605
     26  C         22.0870   19.4290   18.6380 C.2    77  TRP77       0.2264
     27  O         21.1650   19.8880   17.9550 O.2    77  TRP77      -0.2867
     28  CB        21.3010   19.5840   20.9580 C.3    77  TRP77       0.0550
     29  CG        20.6580   18.9510   22.1600 C.ar   77  TRP77       0.0003
     30  CD1       20.5830   17.6240   22.4850 C.ar   77  TRP77       0.0946
     31  CD2       19.9760   19.6480   23.1940 C.ar   77  TRP77       0.0152
     32  NE1       19.8930   17.4610   23.6620 N.ar   77  TRP77      -0.2442
     33  CE2       19.5150   18.6920   24.1150 C.ar   77  TRP77       0.0810
     34  CE3       19.7230   20.9950   23.4440 C.ar   77  TRP77       0.0012
     35  CZ2       18.8020   19.0360   25.2430 C.ar   77  TRP77       0.0191
     36  CZ3       19.0220   21.3340   24.5730 C.ar   77  TRP77       0.0001
     37  CH2       18.5680   20.3610   25.4570 C.ar   77  TRP77       0.0015
     38  N         18.3420   11.0600   22.2190 N.3    89  ASP89      -0.1225
     39  CA        19.2840   12.0930   22.6590 C.3    89  ASP89       0.1805
     40  C         18.5990   13.2350   23.4050 C.2    89  ASP89       0.2598
     41  O         19.2300   14.2360   23.7340 O.2    89  ASP89      -0.2718
     42  CB        20.0850   12.6440   21.4830 C.3    89  ASP89       0.1424
     43  CG        21.0380   11.6300   20.8970 C.2    89  ASP89       0.3668
     44  OD1       21.2520   10.5570   21.4720 O.co2  89  ASP89      -0.2456
     45  OD2       21.5950   11.9170   19.8280 O.co2  89  ASP89      -0.2456
     46  N         17.3130   13.0690   23.6910 N.am   90  SER90      -0.1952
     47  CA        16.5410   14.0590   24.4370 C.3    90  SER90       0.1924
     48  C         16.7030   15.4720   23.8810 C.2    90  SER90       0.2314
     49  O         17.0180   16.4280   24.5940 O.2    90  SER90      -0.2863
     50  CB        16.8570   14.0090   25.9270 C.3    90  SER90       0.2116
     51  OG        15.7240   14.4490   26.6380 O.3    90  SER90      -0.2180
     52  N         15.5280   18.5900   23.0090 N.3    92  VAL92      -0.1245
     53  CA        14.3920   19.4030   23.3730 C.3    92  VAL92       0.1561
     54  C         13.9010   20.2400   22.1840 C.2    92  VAL92       0.2260
     55  O         12.6900   20.3410   21.9680 O.2    92  VAL92      -0.2867
     56  CB        14.7280   20.2920   24.5980 C.3    92  VAL92       0.0252
     57  CG1       13.5530   21.1890   24.9280 C.3    92  VAL92       0.0019
     58  CG2       15.1000   19.4260   25.8050 C.3    92  VAL92       0.0019
     59  N          8.4870   21.5080   31.1060 N.3   130  LEU130     -0.1245
     60  CA         9.8460   21.8150   31.5360 C.3   130  LEU130      0.1561
     61  C          9.8150   22.7260   32.7620 C.2   130  LEU130      0.2260
     62  O          9.7330   23.9580   32.6480 O.2   130  LEU130     -0.2867
     63  CB        10.6240   22.4740   30.3960 C.3   130  LEU130      0.0270
     64  CG        10.8480   21.5950   29.1650 C.3   130  LEU130      0.0019
     65  CD1       11.3510   22.4330   27.9990 C.3   130  LEU130      0.0001
     66  CD2       11.8140   20.4480   29.4610 C.3   130  LEU130      0.0001
     67  N         13.1480    6.5510   29.5180 N.3   180  LYS180     -0.1231
     68  CA        13.4030    7.9410   29.2190 C.3   180  LYS180      0.1693
     69  C         13.7850    8.6870   30.4930 C.2   180  LYS180      0.2593
     70  O         13.0880    8.6010   31.5090 O.2   180  LYS180     -0.2718
     71  CB        12.1610    8.5870   28.6080 C.3   180  LYS180      0.0285
     72  CG        12.3620   10.0410   28.1720 C.3   180  LYS180      0.0035
     73  CD        13.2920   10.1530   26.9610 C.3   180  LYS180      0.0206
     74  CE        13.7710   11.5710   26.7460 C.3   180  LYS180      0.1093
     75  NZ        14.8320   11.9290   27.7130 N.3   180  LYS180     -0.1314
     76  N         14.8880    9.4220   30.4260 N.am  181  THR181     -0.1939
     77  CA        15.3170   10.3000   31.4890 C.3   181  THR181      0.2028
     78  C         14.5640   11.6240   31.4770 C.2   181  THR181      0.2643
     79  O         14.0720   12.0930   30.4370 O.2   181  THR181     -0.2714
     80  CB        16.8060   10.6420   31.3300 C.3   181  THR181      0.1808
     81  OG1       17.0210   11.1120   30.0020 O.3   181  THR181     -0.2208
     82  CG2       17.6900    9.4370   31.5860 C.3   181  THR181      0.0379
     83  N         14.5330   12.2550   32.6420 N.am  182  GLY182     -0.1939
     84  CA        14.1490   13.6480   32.7490 C.3   182  GLY182      0.2014
     85  C         14.9660   14.2880   33.8460 C.2   182  GLY182      0.2639
     86  O         15.3440   13.6140   34.8090 O.2   182  GLY182     -0.2714
     87  N         15.2550   15.5730   33.7260 N.am  183  SER183     -0.1949
     88  CA        16.0650   16.2540   34.7300 C.3   183  SER183      0.1924
     89  C         15.8050   17.7450   34.6960 C.2   183  SER183      0.2314
     90  O         15.3970   18.2960   33.6820 O.2   183  SER183     -0.2863
     91  CB        17.5520   15.9810   34.4700 C.3   183  SER183      0.2116
     92  OG        18.3120   16.1530   35.6500 O.3   183  SER183     -0.2180
     93  N         18.5160   13.3890   36.5270 N.3   211  GLY211     -0.1225
     94  CA        18.1040   12.2550   35.7190 C.3   211  GLY211      0.1811
     95  C         19.1840   11.1990   35.6000 C.2   211  GLY211      0.2280
     96  O         18.8830   10.0070   35.5830 O.2   211  GLY211     -0.2866
@<TRIPOS>BOND
     1    27    26    2
     2    26    25    1
     3    45    43   ar
     4    25    24    1
     5    25    28    1
     6    43    44   ar
     7    43    42    1
     8    28    29    1
     9    42    39    1
    10    55    54    2
    11    29    30   ar
    12    29    31   ar
    13    19    18    2
    14    54    53    1
    15    38    39    1
    16    30    32   ar
    17    39    40    1
    18    52    53    1
    19    18    17    1
    20    31    34   ar
    21    31    33   ar
    22    53    56    1
    23    40    46   am
    24    40    41    2
    25    34    36   ar
    26    32    33   ar
    27    46    47    1
    28    48    47    1
    29    48    49    2
    30    33    35   ar
    31    47    50    1
    32    17    16    1
    33    17    20    1
    34    36    37   ar
    35    56    57    1
    36    56    58    1
    37    22    20    1
    38    20    21    1
    39    35    37   ar
    40    50    51    1
    41    21    23    1
    42    74    73    1
    43    74    75    1
    44    73    72    1
    45    65    64    1
    46    13    12    2
    47    15    14    1
    48    72    71    1
    49    14    11    1
    50    71    68    1
    51    64    66    1
    52    64    63    1
    53    11    12    1
    54    11    10    1
    55    68    67    1
    56    68    69    1
    57    81    80    1
    58     4     3    2
    59    63    60    1
    60    76    69   am
    61    76    77    1
    62    79    78    2
    63    10     3   am
    64    69    70    2
    65     3     2    1
    66    59    60    1
    67    80    77    1
    68    80    82    1
    69    78    77    1
    70    78    83   am
    71    60    61    1
    72     2     1    1
    73     2     5    1
    74    83    84    1
    75    62    61    2
    76    84    85    1
    77     5     6    1
    78    90    89    2
    79    87    85   am
    80    87    88    1
    81    85    86    2
    82     8     7    2
    83    91    88    1
    84    91    92    1
    85     6     7    1
    86    89    88    1
    87     7     9   am
    88    96    95    2
    89    95    94    1
    90    94    93    1
