@<TRIPOS>MOLECULE
tmp/5ctnA00.pdb
 134 128 0 0 0
SMALL
GASTEIGER

@<TRIPOS>ATOM
      1  N         18.3820    0.5980   -5.0930 N.3    42  GLN42      -0.1231
      2  CA        17.7460    1.8860   -5.3090 C.3    42  GLN42       0.1698
      3  C         17.7210    2.6350   -3.9790 C.2    42  GLN42       0.2592
      4  O         18.6820    2.5470   -3.2170 O.2    42  GLN42      -0.2718
      5  CB        16.3490    1.7140   -5.9210 C.3    42  GLN42       0.0381
      6  CG        16.2440    0.6160   -7.0190 C.3    42  GLN42       0.0905
      7  CD        17.2040    0.7990   -8.1880 C.2    42  GLN42       0.2608
      8  OE1       18.3840    1.1090   -8.0030 O.2    42  GLN42      -0.2717
      9  NE2       16.6990    0.5950   -9.4030 N.am   42  GLN42      -0.0878
     10  N         16.6430    3.3560   -3.6910 N.am   43  SER43      -0.1952
     11  CA        16.6250    4.2000   -2.5050 C.3    43  SER43       0.1924
     12  C         16.5730    3.4290   -1.1930 C.2    43  SER43       0.2314
     13  O         16.7120    4.0420   -0.1390 O.2    43  SER43      -0.2863
     14  CB        15.4530    5.1840   -2.5570 C.3    43  SER43       0.2116
     15  OG        15.5950    6.0710   -3.6650 O.3    43  SER43      -0.2180
     16  N         19.4350    3.9060    1.3110 N.3    46  LYS46      -0.1245
     17  CA        19.4860    4.9990    2.3010 C.3    46  LYS46       0.1561
     18  C         19.5690    4.4790    3.7390 C.2    46  LYS46       0.2260
     19  O         20.1930    5.1260    4.5840 O.2    46  LYS46      -0.2867
     20  CB        18.2860    5.9350    2.1480 C.3    46  LYS46       0.0271
     21  CG        18.3920    6.8040    0.9070 C.3    46  LYS46       0.0035
     22  CD        17.4530    8.0060    0.9490 C.3    46  LYS46       0.0206
     23  CE        17.7320    8.9840   -0.1980 C.3    46  LYS46       0.1093
     24  NZ        17.2330    8.4690   -1.5070 N.3    46  LYS46      -0.1314
     25  N         14.2910   17.4670  -10.1450 N.3    74  GLU74      -0.1231
     26  CA        13.0610   16.9380  -10.7310 C.3    74  GLU74       0.1699
     27  C         11.8660   16.9130   -9.7900 C.2    74  GLU74       0.2592
     28  O         10.7160   16.9810  -10.2300 O.2    74  GLU74      -0.2718
     29  CB        13.3220   15.5190  -11.2470 C.3    74  GLU74       0.0402
     30  CG        14.4260   14.8050  -10.4660 C.3    74  GLU74       0.1161
     31  CD        14.4610   13.3020  -10.6890 C.2    74  GLU74       0.3649
     32  OE1       13.4170   12.7160  -11.0490 O.co2  74  GLU74      -0.2457
     33  OE2       15.5400   12.7030  -10.5060 O.co2  74  GLU74      -0.2457
     34  N         12.1380   16.7820   -8.4950 N.am   75  ILE75      -0.1980
     35  CA        11.0900   16.7340   -7.4840 C.3    75  ILE75       0.1595
     36  C         11.1530   18.0230   -6.6800 C.2    75  ILE75       0.2287
     37  O         12.1760   18.3190   -6.0760 O.2    75  ILE75      -0.2864
     38  CB        11.2510   15.5130   -6.5420 C.3    75  ILE75       0.0276
     39  CG1       11.1050   14.2060   -7.3290 C.3    75  ILE75       0.0022
     40  CG2       10.2450   15.5660   -5.4030 C.3    75  ILE75       0.0022
     41  CD1        9.7060   13.9500   -7.8340 C.3    75  ILE75       0.0001
     42  N         12.5140   18.3330   -3.1440 N.3    78  TRP78      -0.1241
     43  CA        13.9560   18.2290   -3.0160 C.3    78  TRP78       0.1605
     44  C         14.6520   19.5870   -3.0380 C.2    78  TRP78       0.2264
     45  O         15.8050   19.6980   -2.6260 O.2    78  TRP78      -0.2867
     46  CB        14.5170   17.3870   -4.1460 C.3    78  TRP78       0.0550
     47  CG        14.2170   15.9350   -4.0740 C.ar   78  TRP78       0.0003
     48  CD1       13.6040   15.2540   -3.0620 C.ar   78  TRP78       0.0946
     49  CD2       14.5460   14.9770   -5.0660 C.ar   78  TRP78       0.0152
     50  NE1       13.5270   13.9190   -3.3780 N.ar   78  TRP78      -0.2442
     51  CE2       14.1020   13.7270   -4.6050 C.ar   78  TRP78       0.0810
     52  CE3       15.1620   15.0590   -6.3210 C.ar   78  TRP78       0.0012
     53  CZ2       14.2680   12.5630   -5.3450 C.ar   78  TRP78       0.0191
     54  CZ3       15.3290   13.9120   -7.0520 C.ar   78  TRP78       0.0001
     55  CH2       14.8850   12.6760   -6.5630 C.ar   78  TRP78       0.0015
     56  N         11.6950   11.6940    2.6740 N.3    90  ASP90      -0.1225
     57  CA        11.3700   12.2250    1.3480 C.3    90  ASP90       0.1805
     58  C         12.2990   11.7190    0.2410 C.2    90  ASP90       0.2598
     59  O         12.2190   12.1790   -0.9070 O.2    90  ASP90      -0.2718
     60  CB        11.3880   13.7510    1.3820 C.3    90  ASP90       0.1424
     61  CG        10.2980   14.3280    2.2630 C.2    90  ASP90       0.3668
     62  OD1        9.3840   13.5670    2.6530 O.co2  90  ASP90      -0.2456
     63  OD2       10.3490   15.5410    2.5630 O.co2  90  ASP90      -0.2456
     64  N         13.1630   10.7730    0.5990 N.am   91  SER91      -0.1952
     65  CA        14.0900   10.1150   -0.3290 C.3    91  SER91       0.1924
     66  C         14.8700   11.1420   -1.1480 C.2    91  SER91       0.2314
     67  O         14.9150   11.0890   -2.3780 O.2    91  SER91      -0.2863
     68  CB        13.3400    9.1350   -1.2420 C.3    91  SER91       0.2116
     69  OG        14.1970    8.0790   -1.6660 O.3    91  SER91      -0.2180
     70  N         17.7310   12.3620   -2.7700 N.3    93  VAL93      -0.1245
     71  CA        18.9620   11.7830   -3.2950 C.3    93  VAL93       0.1561
     72  C         20.1720   12.6840   -3.1080 C.2    93  VAL93       0.2260
     73  O         21.2220   12.2210   -2.6700 O.2    93  VAL93      -0.2867
     74  CB        18.7920   11.4280   -4.7820 C.3    93  VAL93       0.0252
     75  CG1       20.1190   10.9740   -5.4080 C.3    93  VAL93       0.0019
     76  CG2       17.7360   10.3460   -4.9090 C.3    93  VAL93       0.0019
     77  N         24.3360    2.7930   -5.9260 N.3   130  TRP130     -0.1227
     78  CA        23.1020    2.1510   -5.4710 C.3   130  TRP130      0.1737
     79  C         21.9190    2.3130   -6.4240 C.2   130  TRP130      0.2595
     80  O         20.8600    1.7380   -6.1730 O.2   130  TRP130     -0.2718
     81  CB        22.7000    2.7040   -4.1070 C.3   130  TRP130      0.0564
     82  CG        22.4560    4.1850   -4.1360 C.ar  130  TRP130      0.0003
     83  CD1       21.3270    4.8190   -4.5630 C.ar  130  TRP130      0.0946
     84  CD2       23.3760    5.2130   -3.7490 C.ar  130  TRP130      0.0152
     85  NE1       21.4780    6.1860   -4.4420 N.ar  130  TRP130     -0.2442
     86  CE2       22.7250    6.4500   -3.9380 C.ar  130  TRP130      0.0810
     87  CE3       24.6800    5.2070   -3.2460 C.ar  130  TRP130      0.0012
     88  CZ2       23.3390    7.6680   -3.6480 C.ar  130  TRP130      0.0191
     89  CZ3       25.2850    6.4200   -2.9520 C.ar  130  TRP130      0.0001
     90  CH2       24.6130    7.6290   -3.1480 C.ar  130  TRP130      0.0015
     91  N         22.0790    3.1010   -7.4950 N.am  131  LEU131     -0.1980
     92  CA        20.9740    3.3040   -8.4400 C.3   131  LEU131      0.1596
     93  C         21.2320    2.5760   -9.7450 C.2   131  LEU131      0.2287
     94  O         21.9970    3.0580  -10.5910 O.2   131  LEU131     -0.2864
     95  CB        20.7180    4.7870   -8.7410 C.3   131  LEU131      0.0297
     96  CG        19.7460    5.0030   -9.9280 C.3   131  LEU131      0.0022
     97  CD1       18.4200    4.2380   -9.7850 C.3   131  LEU131      0.0001
     98  CD2       19.4680    6.4880  -10.1400 C.3   131  LEU131      0.0001
     99  N         10.9380    2.7600    0.6140 N.3   182  THR182     -0.1203
    100  CA        10.6720    2.4490   -0.7800 C.3   182  THR182      0.1994
    101  C         11.9290    2.5440   -1.6310 C.2   182  THR182      0.2618
    102  O         12.8790    3.2560   -1.2810 O.2   182  THR182     -0.2717
    103  CB         9.6470    3.4300   -1.3880 C.3   182  THR182      0.1784
    104  OG1       10.0760    4.7710   -1.1270 O.3   182  THR182     -0.2211
    105  CG2        8.2720    3.2220   -0.7920 C.3   182  THR182      0.0376
    106  N         11.9270    1.8250   -2.7510 N.am  183  GLY183     -0.1942
    107  CA        12.9400    2.0000   -3.7810 C.3   183  GLY183      0.2014
    108  C         12.3200    1.8140   -5.1450 C.2   183  GLY183      0.2640
    109  O         11.4320    0.9760   -5.3180 O.2   183  GLY183     -0.2714
    110  N         12.7930    2.6050   -6.1050 N.am  184  SER184     -0.1935
    111  CA        12.3040    2.5860   -7.4850 C.3   184  SER184      0.2055
    112  C         13.4320    2.8290   -8.4650 C.2   184  SER184      0.2643
    113  O         14.4100    3.5120   -8.1440 O.2   184  SER184     -0.2714
    114  CB        11.2470    3.6690   -7.7330 C.3   184  SER184      0.2130
    115  OG        10.1090    3.5210   -6.9210 O.3   184  SER184     -0.2179
    116  N         13.2750    2.2980   -9.6730 N.am  185  GLY185     -0.1954
    117  CA        14.1640    2.6080  -10.7830 C.3   185  GLY185      0.1869
    118  C         14.3830    1.3870  -11.6520 C.2   185  GLY185      0.2309
    119  O         14.4760    0.2750  -11.1450 O.2   185  GLY185     -0.2863
    120  N          7.0900   -0.4090   -9.4400 N.3   211  THR211     -0.1218
    121  CA         7.5920    0.7570   -8.7130 C.3   211  THR211      0.1862
    122  C          7.5870    0.5680   -7.1970 C.2   211  THR211      0.2287
    123  O          6.9150   -0.3220   -6.6670 O.2   211  THR211     -0.2866
    124  CB         6.7600    2.0120   -9.0260 C.3   211  THR211      0.1770
    125  OG1        5.4790    1.9030   -8.3930 O.3   211  THR211     -0.2211
    126  CG2        6.5820    2.1980  -10.5330 C.3   211  THR211      0.0375
    127  N          6.2460    2.5710   -5.0000 N.3   213  ILE213     -0.1245
    128  CA         4.9150    2.8530   -4.4790 C.3   213  ILE213      0.1561
    129  C          4.0080    1.6310   -4.6370 C.2   213  ILE213      0.2260
    130  O          3.2250    1.3110   -3.7450 O.2   213  ILE213     -0.2867
    131  CB         4.2910    4.0790   -5.1600 C.3   213  ILE213      0.0252
    132  CG1        5.0800    5.3360   -4.7870 C.3   213  ILE213      0.0019
    133  CG2        2.8480    4.2460   -4.7310 C.3   213  ILE213      0.0019
    134  CD1        4.7490    6.5300   -5.6390 C.3   213  ILE213      0.0001
@<TRIPOS>BOND
     1   118   119    2
     2   118   117    1
     3    29    26    1
     4    29    30    1
     5    32    31   ar
     6   117   116    1
     7    26    25    1
     8    26    27    1
     9    31    33   ar
    10    31    30    1
    11    94    93    2
    12   126   124    1
    13    28    27    2
    14    98    96    1
    15    96    97    1
    16    96    95    1
    17    27    34   am
    18    93    92    1
    19   116   112   am
    20   120   121    1
    21     9     7   am
    22   124   121    1
    23   124   125    1
    24    95    92    1
    25   121   122    1
    26    34    35    1
    27   112   113    2
    28   112   111    1
    29    92    91    1
    30     7     8    2
    31     7     6    1
    32    41    39    1
    33   114   111    1
    34   114   115    1
    35    91    79   am
    36   111   110    1
    37    35    36    1
    38    35    38    1
    39    39    38    1
    40   122   123    2
    41    54    55   ar
    42    54    52   ar
    43     6     5    1
    44    36    37    2
    45    55    53   ar
    46    38    40    1
    47    79    80    2
    48    79    78    1
    49    52    49   ar
    50   110   108   am
    51    77    78    1
    52     5     2    1
    53   134   132    1
    54    78    81    1
    55    75    74    1
    56    53    51   ar
    57   109   108    2
    58     2     1    1
    59     2     3    1
    60   131   132    1
    61   131   133    1
    62   131   128    1
    63   108   107    1
    64    49    51   ar
    65    49    47   ar
    66   127   128    1
    67    76    74    1
    68    74    71    1
    69   129   128    1
    70   129   130    2
    71    51    50   ar
    72    83    85   ar
    73    83    82   ar
    74    85    86   ar
    75    46    47    1
    76    46    43    1
    77    82    81    1
    78    82    84   ar
    79    47    48   ar
    80     3    10   am
    81     3     4    2
    82    86    84   ar
    83    86    88   ar
    84   107   106    1
    85    84    87   ar
    86    10    11    1
    87    15    14    1
    88    88    90   ar
    89    50    48   ar
    90    71    72    1
    91    71    70    1
    92    87    89   ar
    93    90    89   ar
    94    42    43    1
    95    72    73    2
    96    44    43    1
    97    44    45    2
    98   106   101   am
    99    14    11    1
   100    11    12    1
   101    67    66    2
   102    69    68    1
   103   101   102    2
   104   101   100    1
   105    24    23    1
   106   103   104    1
   107   103   105    1
   108   103   100    1
   109    68    65    1
   110    12    13    2
   111    66    65    1
   112    59    58    2
   113   100    99    1
   114    65    64    1
   115    23    22    1
   116    58    64   am
   117    58    57    1
   118    21    22    1
   119    21    20    1
   120    16    17    1
   121    57    60    1
   122    57    56    1
   123    60    61    1
   124    20    17    1
   125    61    63   ar
   126    61    62   ar
   127    17    18    1
   128    18    19    2
