@<TRIPOS>MOLECULE
tmp/5ctuB02.pdb
 128 119 0 0 0
SMALL
GASTEIGER

@<TRIPOS>ATOM
      1  N          8.4020  -14.9790   33.5120 N.3     2  SER2       -0.1202
      2  CA         8.9710  -16.2210   34.0610 C.3     2  SER2        0.2020
      3  C          9.0640  -17.1500   32.8800 C.2     2  SER2        0.2619
      4  O          8.5350  -16.8350   31.8070 O.2     2  SER2       -0.2717
      5  CB         8.0680  -16.8450   35.1250 C.3     2  SER2        0.2103
      6  OG         6.9490  -17.5110   34.5430 O.3     2  SER2       -0.2182
      7  N          9.7310  -18.2880   33.0490 N.am    3  VAL3       -0.1965
      8  CA         9.9810  -19.1320   31.8790 C.3     3  VAL3        0.1727
      9  C          8.6560  -19.6800   31.2460 C.2     3  VAL3        0.2616
     10  O          8.5990  -19.8740   30.0240 O.2     3  VAL3       -0.2715
     11  CB        11.0900  -20.2200   32.1160 C.3     3  VAL3        0.0290
     12  CG1       12.4450  -19.6190   32.5150 C.3     3  VAL3        0.0023
     13  CG2       10.6860  -21.2890   33.1160 C.3     3  VAL3        0.0023
     14  N          7.6020  -19.8480   32.0560 N.am    4  THR4       -0.1951
     15  CA         6.3270  -20.3830   31.5690 C.3     4  THR4        0.1897
     16  C          5.4080  -19.2770   31.0690 C.2     4  THR4        0.2313
     17  O          4.5850  -19.4770   30.1680 O.2     4  THR4       -0.2863
     18  CB         5.6120  -21.1720   32.6570 C.3     4  THR4        0.1794
     19  OG1        5.6480  -20.4230   33.8710 O.3     4  THR4       -0.2208
     20  CG2        6.3000  -22.4890   32.8720 C.3     4  THR4        0.0378
     21  N          6.6050  -16.7200   29.6430 N.3     6  LEU6       -0.1245
     22  CA         7.3190  -16.0270   28.5770 C.3     6  LEU6        0.1561
     23  C          6.5300  -15.9480   27.2660 C.2     6  LEU6        0.2260
     24  O          6.4500  -16.8970   26.4590 O.2     6  LEU6       -0.2867
     25  CB         8.7300  -16.6040   28.4040 C.3     6  LEU6        0.0270
     26  CG         9.8400  -15.5640   28.2340 C.3     6  LEU6        0.0019
     27  CD1        9.3780  -14.1200   28.4130 C.3     6  LEU6        0.0001
     28  CD2       10.9600  -15.8770   29.2030 C.3     6  LEU6        0.0001
     29  N         17.3840   -9.0320   29.0100 N.3    38  ILE38      -0.1245
     30  CA        17.6610  -10.4500   29.2350 C.3    38  ILE38       0.1561
     31  C         17.7060  -10.6440   30.7370 C.2    38  ILE38       0.2260
     32  O         17.1180  -11.6020   31.2690 O.2    38  ILE38      -0.2867
     33  CB        18.9800  -10.8920   28.5700 C.3    38  ILE38       0.0252
     34  CG1       18.9680  -10.7960   27.0540 C.3    38  ILE38       0.0019
     35  CG2       19.3550  -12.2850   29.0110 C.3    38  ILE38       0.0019
     36  CD1       17.7890  -11.5160   26.3970 C.3    38  ILE38       0.0001
     37  N         14.3010  -11.0990   32.3350 N.3    41  ASN41      -0.1225
     38  CA        13.7270  -12.4240   32.2170 C.3    41  ASN41       0.1785
     39  C         14.1680  -13.2740   33.4140 C.2    41  ASN41       0.2597
     40  O         13.3870  -14.0200   33.9990 O.2    41  ASN41      -0.2718
     41  CB        14.0820  -13.1050   30.8930 C.3    41  ASN41       0.1169
     42  CG        13.5600  -12.3710   29.7020 C.2    41  ASN41       0.2627
     43  OD1       12.5130  -11.7270   29.7880 O.2    41  ASN41      -0.2716
     44  ND2       14.2870  -12.4630   28.5970 N.am   41  ASN41      -0.0877
     45  N         15.4590  -13.1730   33.7820 N.am   42  SER42      -0.1952
     46  CA        15.9310  -13.9340   34.8800 C.3    42  SER42       0.1924
     47  C         15.3590  -13.4360   36.2220 C.2    42  SER42       0.2314
     48  O         15.0610  -14.2030   37.1400 O.2    42  SER42      -0.2863
     49  CB        17.4850  -13.9260   34.9970 C.3    42  SER42       0.2116
     50  OG        18.0660  -14.6160   33.8800 O.3    42  SER42      -0.2180
     51  N         12.0360  -14.9440   36.7900 N.3    45  GLU45      -0.1245
     52  CA        12.1810  -16.2530   37.2750 C.3    45  GLU45       0.1567
     53  C         12.4960  -16.3050   38.7650 C.2    45  GLU45       0.2260
     54  O         12.0240  -17.1920   39.5160 O.2    45  GLU45      -0.2867
     55  CB        13.2150  -16.9810   36.3900 C.3    45  GLU45       0.0388
     56  CG        13.3090  -18.4590   36.5060 C.3    45  GLU45       0.1160
     57  CD        12.0530  -19.2560   36.1740 C.2    45  GLU45       0.3649
     58  OE1       10.9950  -18.7550   35.7540 O.co2  45  GLU45      -0.2457
     59  OE2       12.1620  -20.4920   36.3880 O.co2  45  GLU45      -0.2457
     60  N         20.8990  -17.9660   34.7920 N.3    68  ASP68      -0.1239
     61  CA        20.1960  -18.0940   36.0940 C.3    68  ASP68       0.1674
     62  C         20.0250  -19.5640   36.3810 C.2    68  ASP68       0.2266
     63  O         20.1800  -20.4430   35.5170 O.2    68  ASP68      -0.2867
     64  CB        18.8300  -17.3520   36.0950 C.3    68  ASP68       0.1410
     65  CG        17.8040  -17.9440   35.1360 C.2    68  ASP68       0.3668
     66  OD1       17.3950  -17.2670   34.1490 O.co2  68  ASP68      -0.2456
     67  OD2       17.4510  -19.1080   35.3270 O.co2  68  ASP68      -0.2456
     68  N         14.1200  -22.6000   36.4090 N.3    71  ARG71      -0.1231
     69  CA        13.6030  -23.9110   35.8440 C.3    71  ARG71       0.1694
     70  C         14.1510  -24.2560   34.4990 C.2    71  ARG71       0.2593
     71  O         14.0400  -25.4140   34.0710 O.2    71  ARG71      -0.2718
     72  CB        12.0720  -23.8330   35.7010 C.3    71  ARG71       0.0321
     73  CG        11.4010  -23.7860   37.0800 C.3    71  ARG71       0.0489
     74  CD         9.9440  -23.4340   36.9700 C.3    71  ARG71       0.2205
     75  NE         9.7820  -22.0760   36.5180 N.pl3  71  ARG71      -0.0865
     76  CZ         8.6390  -21.4750   36.3080 C.cat  71  ARG71       0.5346
     77  NH1        8.6080  -20.2050   35.9480 N.pl3  71  ARG71       0.1354
     78  NH2        7.4830  -22.1350   36.4060 N.pl3  71  ARG71       0.1354
     79  N         14.7310  -23.3100   33.8200 N.am   72  GLY72      -0.1942
     80  CA        15.0870  -23.4910   32.3960 C.3    72  GLY72       0.2014
     81  C         13.9440  -23.1310   31.5140 C.2    72  GLY72       0.2639
     82  O         12.8040  -23.5490   31.7840 O.2    72  GLY72      -0.2714
     83  N         14.1850  -22.4450   30.3680 N.am   73  ILE73      -0.1963
     84  CA        13.0980  -22.1430   29.4710 C.3    73  ILE73       0.1712
     85  C         12.4870  -23.4490   28.9590 C.2    73  ILE73       0.2458
     86  O         13.1950  -24.3530   28.5860 O.2    73  ILE73      -0.2730
     87  CB        13.5550  -21.2970   28.2370 C.3    73  ILE73       0.0289
     88  CG1       14.2630  -19.9890   28.7530 C.3    73  ILE73       0.0022
     89  CG2       12.3410  -21.0240   27.3900 C.3    73  ILE73       0.0023
     90  CD1       14.9230  -19.2450   27.5890 C.3    73  ILE73       0.0001
     91  N         11.1420  -23.5710   28.9230 N.am   74  PRO74      -0.2727
     92  CA        10.6100  -24.8240   28.4420 C.3    74  PRO74       0.1402
     93  C         11.0290  -25.1750   27.0400 C.2    74  PRO74       0.2269
     94  O         11.1700  -24.2750   26.1990 O.2    74  PRO74      -0.2865
     95  CB         9.1020  -24.5930   28.5130 C.3    74  PRO74       0.0296
     96  CG         8.9200  -23.4910   29.4910 C.3    74  PRO74       0.0237
     97  CD        10.1710  -22.7510   29.6700 C.3    74  PRO74       0.0939
     98  N          9.8430  -18.5980   21.9430 N.3    86  ILE86      -0.1231
     99  CA        10.1780  -17.4560   22.8240 C.3    86  ILE86       0.1692
    100  C         11.3330  -16.6330   22.2430 C.2    86  ILE86       0.2591
    101  O         11.2450  -15.3900   22.1500 O.2    86  ILE86      -0.2718
    102  CB        10.4870  -17.9330   24.2570 C.3    86  ILE86       0.0266
    103  CG1        9.2180  -18.5050   24.8670 C.3    86  ILE86       0.0019
    104  CG2       11.1430  -16.8480   25.1460 C.3    86  ILE86       0.0020
    105  CD1        9.3960  -19.3880   26.0630 C.3    86  ILE86       0.0001
    106  N         12.4440  -17.2780   21.8770 N.am   87  LEU87      -0.1980
    107  CA        13.6210  -16.5250   21.4860 C.3    87  LEU87       0.1596
    108  C         13.4950  -15.9640   20.0790 C.2    87  LEU87       0.2287
    109  O         14.0430  -14.8800   19.8310 O.2    87  LEU87      -0.2864
    110  CB        14.9530  -17.3440   21.6970 C.3    87  LEU87       0.0297
    111  CG        15.1730  -17.6380   23.1690 C.3    87  LEU87       0.0022
    112  CD1       16.4270  -18.4960   23.3020 C.3    87  LEU87       0.0001
    113  CD2       15.3250  -16.3670   24.0440 C.3    87  LEU87       0.0001
    114  N         18.9880  -21.4390   32.8670 N.3   134  THR134     -0.1218
    115  CA        19.0700  -20.9400   31.4810 C.3   134  THR134      0.1862
    116  C         20.3830  -20.1900   31.3470 C.2   134  THR134      0.2287
    117  O         20.6700  -19.3260   32.2080 O.2   134  THR134     -0.2866
    118  CB        17.8830  -20.0720   31.1090 C.3   134  THR134      0.1770
    119  OG1       16.6610  -20.8260   31.2650 O.3   134  THR134     -0.2211
    120  CG2       17.9360  -19.5910   29.6960 C.3   134  THR134      0.0375
    121  N         21.9220  -17.5810   28.4020 N.3   136  ILE136     -0.1245
    122  CA        21.8140  -16.8580   27.1580 C.3   136  ILE136      0.1561
    123  C         23.1100  -16.1450   26.9160 C.2   136  ILE136      0.2260
    124  O         23.5320  -15.3850   27.7940 O.2   136  ILE136     -0.2867
    125  CB        20.6360  -15.8250   27.2530 C.3   136  ILE136      0.0252
    126  CG1       19.2330  -16.4940   27.4630 C.3   136  ILE136      0.0019
    127  CG2       20.6180  -14.8880   26.0050 C.3   136  ILE136      0.0019
    128  CD1       18.7740  -17.1400   26.2860 C.3   136  ILE136      0.0001
@<TRIPOS>BOND
     1   109   108    2
     2   108   107    1
     3   107   110    1
     4   107   106    1
     5   110   111    1
     6   106   100   am
     7    98    99    1
     8   101   100    2
     9   100    99    1
    10    99   102    1
    11   111   112    1
    12   111   113    1
    13   102   103    1
    14   102   104    1
    15   103   105    1
    16   127   125    1
    17    94    93    2
    18   128   126    1
    19    36    34    1
    20    24    23    2
    21   123   122    1
    22   123   124    2
    23    93    92    1
    24    34    33    1
    25   122   125    1
    26   122   121    1
    27   125   126    1
    28    23    22    1
    29    89    87    1
    30    90    88    1
    31    26    25    1
    32    26    27    1
    33    26    28    1
    34    87    88    1
    35    87    84    1
    36    25    22    1
    37    92    95    1
    38    92    91    1
    39    95    96    1
    40    33    35    1
    41    33    30    1
    42    22    21    1
    43    86    85    2
    44    44    42   am
    45    91    85   am
    46    91    97    1
    47    85    84    1
    48    29    30    1
    49    30    31    1
    50    84    83    1
    51    96    97    1
    52   120   118    1
    53    42    43    2
    54    42    41    1
    55    10     9    2
    56    17    16    2
    57    83    81   am
    58    31    32    2
    59    41    38    1
    60    16    15    1
    61   118   119    1
    62   118   115    1
    63     9     8    1
    64     9    14   am
    65   116   115    1
    66   116   117    2
    67   115   114    1
    68    81    82    2
    69    81    80    1
    70    15    14    1
    71    15    18    1
    72     4     3    2
    73     8    11    1
    74     8     7    1
    75    11    12    1
    76    11    13    1
    77    38    37    1
    78    38    39    1
    79    80    79    1
    80    18    20    1
    81    18    19    1
    82     3     7   am
    83     3     2    1
    84    39    45   am
    85    39    40    2
    86     1     2    1
    87    45    46    1
    88    79    70   am
    89    50    49    1
    90     2     5    1
    91    71    70    2
    92    66    65   ar
    93    70    69    1
    94     6     5    1
    95    60    61    1
    96    46    49    1
    97    46    47    1
    98    65    67   ar
    99    65    64    1
   100    63    62    2
   101    72    69    1
   102    72    73    1
   103    58    57   ar
   104    69    68    1
   105    77    76    1
   106    61    64    1
   107    61    62    1
   108    57    59   ar
   109    57    56    1
   110    47    48    2
   111    76    78    1
   112    76    75    2
   113    55    56    1
   114    55    52    1
   115    75    74    1
   116    51    52    1
   117    74    73    1
   118    52    53    1
   119    53    54    2
