@<TRIPOS>MOLECULE
tmp/5ctvA02.pdb
 123 117 0 0 0
SMALL
GASTEIGER

@<TRIPOS>ATOM
      1  N          8.0450  -13.1280   -9.7340 N.3    28  HIS28      -0.1226
      2  CA         9.2460  -13.6810   -9.1270 C.3    28  HIS28       0.1752
      3  C         10.4380  -12.7480   -9.3390 C.2    28  HIS28       0.2597
      4  O         10.4020  -11.8360  -10.1700 O.2    28  HIS28      -0.2718
      5  CB         9.6160  -14.9930   -9.8090 C.3    28  HIS28       0.0759
      6  CG         8.6660  -16.1310   -9.5890 C.ar   28  HIS28       0.0818
      7  ND1        8.8730  -17.0850   -8.6150 N.ar   28  HIS28      -0.2268
      8  CD2        7.5690  -16.5220  -10.2750 C.ar   28  HIS28       0.1154
      9  CE1        7.9280  -18.0010   -8.6990 C.ar   28  HIS28       0.1986
     10  NE2        7.1250  -17.6850   -9.6980 N.ar   28  HIS28      -0.2212
     11  N         11.5280  -13.0180   -8.6330 N.am   29  SER29      -0.1938
     12  CA        12.8250  -12.4530   -8.9990 C.3    29  SER29       0.2055
     13  C         13.8560  -13.5600   -8.8120 C.2    29  SER29       0.2644
     14  O         13.6320  -14.5090   -8.0620 O.2    29  SER29      -0.2714
     15  CB        13.1690  -11.1810   -8.2090 C.3    29  SER29       0.2130
     16  OG        13.4280  -11.4140   -6.8400 O.3    29  SER29      -0.2179
     17  N         14.9820  -13.4550   -9.5060 N.am   30  THR30      -0.1936
     18  CA        15.8010  -14.6430   -9.7110 C.3    30  THR30       0.2028
     19  C         16.5820  -15.1050   -8.4910 C.2    30  THR30       0.2643
     20  O         17.0780  -16.2320   -8.4670 O.2    30  THR30      -0.2714
     21  CB        16.8350  -14.4410  -10.8220 C.3    30  THR30       0.1808
     22  OG1       17.6920  -13.3640  -10.4380 O.3    30  THR30      -0.2208
     23  CG2       16.1700  -14.1670  -12.1660 C.3    30  THR30       0.0379
     24  N         16.7490  -14.2560   -7.4900 N.am   31  GLY31      -0.1939
     25  CA        17.5910  -14.6220   -6.3580 C.3    31  GLY31       0.2014
     26  C         19.0220  -14.9090   -6.7610 C.2    31  GLY31       0.2638
     27  O         19.7150  -15.6520   -6.0650 O.2    31  GLY31      -0.2714
     28  N         19.4750  -14.3090   -7.8660 N.am   32  ASN32      -0.1972
     29  CA        20.8060  -14.5540   -8.4040 C.3    32  ASN32       0.1688
     30  C         21.4850  -13.2130   -8.6460 C.2    32  ASN32       0.2292
     31  O         21.1310  -12.4980   -9.5760 O.2    32  ASN32      -0.2864
     32  CB        20.7450  -15.3720   -9.6960 C.3    32  ASN32       0.1181
     33  CG        22.1160  -15.8410  -10.1240 C.2    32  ASN32       0.2629
     34  OD1       23.1050  -15.1230   -9.9390 O.2    32  ASN32      -0.2716
     35  ND2       22.1990  -17.0570  -10.6590 N.am   32  ASN32      -0.0877
     36  N         20.1810  -16.5260  -17.4910 N.3    40  GLU40      -0.1245
     37  CA        18.9740  -17.1400  -16.9400 C.3    40  GLU40       0.1567
     38  C         18.2050  -17.9400  -17.9950 C.2    40  GLU40       0.2260
     39  O         17.7250  -19.0430  -17.7220 O.2    40  GLU40      -0.2867
     40  CB        18.0790  -16.0770  -16.2940 C.3    40  GLU40       0.0388
     41  CG        18.6820  -15.4830  -15.0260 C.3    40  GLU40       0.1160
     42  CD        18.5720  -16.3880  -13.8140 C.2    40  GLU40       0.3649
     43  OE1       17.7190  -17.2930  -13.8070 O.co2  40  GLU40      -0.2457
     44  OE2       19.3240  -16.1680  -12.8390 O.co2  40  GLU40      -0.2457
     45  N         20.2110  -21.2210  -18.8480 N.3    43  TYR43      -0.1241
     46  CA        20.0990  -22.2130  -17.7850 C.3    43  TYR43       0.1605
     47  C         18.6870  -22.8030  -17.7670 C.2    43  TYR43       0.2264
     48  O         18.5130  -24.0150  -17.6720 O.2    43  TYR43      -0.2867
     49  CB        20.4660  -21.6140  -16.4270 C.3    43  TYR43       0.0534
     50  CG        20.3100  -22.5980  -15.2980 C.ar   43  TYR43      -0.0201
     51  CD1       21.0730  -23.7610  -15.2580 C.ar   43  TYR43      -0.0009
     52  CD2       19.3860  -22.3810  -14.2760 C.ar   43  TYR43      -0.0009
     53  CE1       20.9210  -24.6790  -14.2280 C.ar   43  TYR43       0.0417
     54  CE2       19.2200  -23.2900  -13.2520 C.ar   43  TYR43       0.0417
     55  CZ        19.9920  -24.4360  -13.2300 C.ar   43  TYR43       0.1957
     56  OH        19.8210  -25.3410  -12.2090 O.3    43  TYR43      -0.2866
     57  N         17.9150  -26.8690  -17.8560 N.3    47  LYS47      -0.1245
     58  CA        17.8430  -27.3920  -16.4970 C.3    47  LYS47       0.1561
     59  C         16.7880  -28.4820  -16.3310 C.2    47  LYS47       0.2260
     60  O         15.8610  -28.6030  -17.1320 O.2    47  LYS47      -0.2867
     61  CB        17.5300  -26.2630  -15.5210 C.3    47  LYS47       0.0271
     62  CG        16.1210  -25.6970  -15.6690 C.3    47  LYS47       0.0035
     63  CD        15.8630  -24.5510  -14.7030 C.3    47  LYS47       0.0206
     64  CE        15.9210  -25.0000  -13.2550 C.3    47  LYS47       0.1093
     65  NZ        15.3410  -23.9590  -12.3540 N.3    47  LYS47      -0.1314
     66  N         13.3890  -28.5420  -10.7380 N.3    51  LEU51      -0.1231
     67  CA        14.0060  -27.5050   -9.9120 C.3    51  LEU51       0.1693
     68  C         13.2520  -26.1820   -9.9840 C.2    51  LEU51       0.2592
     69  O         13.4310  -25.3140   -9.1340 O.2    51  LEU51      -0.2718
     70  CB        15.4530  -27.2900  -10.3370 C.3    51  LEU51       0.0284
     71  CG        16.3880  -28.4870  -10.1740 C.3    51  LEU51       0.0019
     72  CD1       17.7440  -28.1990  -10.7990 C.3    51  LEU51       0.0001
     73  CD2       16.5470  -28.8720   -8.7120 C.3    51  LEU51       0.0001
     74  N         12.4060  -26.0350  -10.9990 N.am   52  GLY52      -0.1957
     75  CA        11.5900  -24.8470  -11.1430 C.3    52  GLY52       0.1869
     76  C         11.6720  -24.3120  -12.5500 C.2    52  GLY52       0.2309
     77  O         12.7580  -24.2500  -13.1410 O.2    52  GLY52      -0.2863
     78  N          9.4830  -21.4360  -15.5110 N.3    54  PHE54      -0.1241
     79  CA         8.6710  -20.2470  -15.5990 C.3    54  PHE54       0.1605
     80  C          8.4730  -19.8780  -17.0690 C.2    54  PHE54       0.2264
     81  O          8.8280  -20.6560  -17.9550 O.2    54  PHE54      -0.2867
     82  CB         9.2780  -19.1130  -14.7380 C.3    54  PHE54       0.0534
     83  CG        10.7740  -19.0590  -14.7730 C.ar   54  PHE54      -0.0203
     84  CD1       11.4440  -18.3710  -15.7710 C.ar   54  PHE54      -0.0042
     85  CD2       11.5140  -19.7070  -13.7980 C.ar   54  PHE54      -0.0042
     86  CE1       12.8350  -18.3470  -15.7920 C.ar   54  PHE54      -0.0003
     87  CE2       12.8960  -19.6920  -13.8160 C.ar   54  PHE54      -0.0003
     88  CZ        13.5570  -19.0100  -14.8080 C.ar   54  PHE54      -0.0000
     89  N          6.5450  -23.4230  -10.7290 N.3    75  ASP75      -0.1239
     90  CA         7.2250  -22.1850  -10.3560 C.3    75  ASP75       0.1674
     91  C          7.1340  -21.8160   -8.8860 C.2    75  ASP75       0.2266
     92  O          8.0390  -21.1450   -8.3840 O.2    75  ASP75      -0.2867
     93  CB         6.7710  -20.9920  -11.2060 C.3    75  ASP75       0.1410
     94  CG         5.3400  -20.5820  -10.9360 C.2    75  ASP75       0.3668
     95  OD1        4.4630  -21.4640  -10.9890 O.co2  75  ASP75      -0.2456
     96  OD2        5.0970  -19.3780  -10.6790 O.co2  75  ASP75      -0.2456
     97  N         10.1920  -13.6810  -14.1400 N.3    89  GLU89      -0.1245
     98  CA        11.3910  -13.5120  -13.3280 C.3    89  GLU89       0.1567
     99  C         12.0970  -12.1990  -13.6420 C.2    89  GLU89       0.2260
    100  O         12.5490  -11.9940  -14.7610 O.2    89  GLU89      -0.2867
    101  CB        12.3700  -14.6420  -13.6210 C.3    89  GLU89       0.0388
    102  CG        11.9040  -15.9930  -13.1210 C.3    89  GLU89       0.1160
    103  CD        12.1340  -16.2150  -11.6480 C.2    89  GLU89       0.3649
    104  OE1       12.8510  -15.4350  -10.9980 O.co2  89  GLU89      -0.2457
    105  OE2       11.5870  -17.2420  -11.1590 O.co2  89  GLU89      -0.2457
    106  N         10.3520  -19.6330   -0.6790 N.3   149  HIS149     -0.1241
    107  CA        10.6930  -18.4540   -1.4640 C.3   149  HIS149      0.1621
    108  C          9.7590  -17.3080   -1.1480 C.2   149  HIS149      0.2264
    109  O          8.5580  -17.4950   -0.9580 O.2   149  HIS149     -0.2867
    110  CB        10.6410  -18.7700   -2.9470 C.3   149  HIS149      0.0745
    111  CG        11.6880  -19.7410   -3.3840 C.ar  149  HIS149      0.0817
    112  ND1       12.0240  -19.9200   -4.7060 N.ar  149  HIS149     -0.2268
    113  CD2       12.4970  -20.5630   -2.6750 C.ar  149  HIS149      0.1154
    114  CE1       12.9860  -20.8210   -4.7930 C.ar  149  HIS149      0.1986
    115  NE2       13.2940  -21.2240   -3.5760 N.ar  149  HIS149     -0.2212
    116  N         10.3930  -14.0450   -2.8780 N.3   151  ASP151     -0.1239
    117  CA        10.5530  -13.0590   -3.9240 C.3   151  ASP151      0.1674
    118  C          9.2080  -12.4860   -4.3570 C.2   151  ASP151      0.2266
    119  O          8.1700  -13.1450   -4.1960 O.2   151  ASP151     -0.2867
    120  CB        11.3090  -13.6520   -5.1310 C.3   151  ASP151      0.1410
    121  CG        10.7710  -15.0070   -5.6100 C.2   151  ASP151      0.3668
    122  OD1       10.6260  -15.9400   -4.7820 O.co2 151  ASP151     -0.2456
    123  OD2       10.5380  -15.1370   -6.8320 O.co2 151  ASP151     -0.2456
@<TRIPOS>BOND
     1    45    46    1
     2    38    39    2
     3    38    37    1
     4    81    80    2
     5    57    58    1
     6    46    47    1
     7    46    49    1
     8    47    48    2
     9    36    37    1
    10    60    59    2
    11    80    79    1
    12    37    40    1
    13    58    59    1
    14    58    61    1
    15    49    50    1
    16    40    41    1
    17    86    84   ar
    18    86    88   ar
    19    84    83   ar
    20    62    61    1
    21    62    63    1
    22    79    78    1
    23    79    82    1
    24    50    51   ar
    25    50    52   ar
    26    51    53   ar
    27    41    42    1
    28    88    87   ar
    29    83    82    1
    30    83    85   ar
    31   100    99    2
    32    63    64    1
    33    52    54   ar
    34    53    55   ar
    35    97    98    1
    36    87    85   ar
    37    42    43   ar
    38    42    44   ar
    39    99    98    1
    40   101    98    1
    41   101   102    1
    42    64    65    1
    43    54    55   ar
    44    55    56    1
    45    77    76    2
    46   102   103    1
    47    76    75    1
    48    23    21    1
    49   103   105   ar
    50   103   104   ar
    51    93    94    1
    52    93    90    1
    53    75    74    1
    54    74    68   am
    55    95    94   ar
    56    94    96   ar
    57    21    22    1
    58    21    18    1
    59    72    71    1
    60    66    67    1
    61    89    90    1
    62    35    33   am
    63    90    91    1
    64    70    71    1
    65    70    67    1
    66     8    10   ar
    67     8     6   ar
    68    71    73    1
    69     4     3    2
    70    33    34    2
    71    33    32    1
    72    68    67    1
    73    68    69    2
    74     5     6    1
    75     5     2    1
    76     1     2    1
    77    18    17    1
    78    18    19    1
    79    10     9   ar
    80    32    29    1
    81     6     7   ar
    82    31    30    2
    83    17    13   am
    84     3     2    1
    85     3    11   am
    86    12    13    1
    87    12    11    1
    88    12    15    1
    89    91    92    2
    90    13    14    2
    91     9     7   ar
    92    30    29    1
    93    19    20    2
    94    19    24   am
    95    29    28    1
    96    15    16    1
    97    28    26   am
    98    24    25    1
    99   123   121   ar
   100    26    25    1
   101    26    27    2
   102   121   120    1
   103   121   122   ar
   104   120   117    1
   105   114   112   ar
   106   114   115   ar
   107   112   111   ar
   108   118   119    2
   109   118   117    1
   110   117   116    1
   111   115   113   ar
   112   111   110    1
   113   111   113   ar
   114   110   107    1
   115   107   108    1
   116   107   106    1
   117   108   109    2
