@<TRIPOS>MOLECULE
tmp/5ctwA02.pdb
 78 73 0 0 0
SMALL
GASTEIGER

@<TRIPOS>ATOM
      1  N          8.1410   36.0470   -3.5950 N.3     5  GLN5       -0.1231
      2  CA         8.5340   37.0460   -4.6090 C.3     5  GLN5        0.1698
      3  C          7.3250   37.5780   -5.3930 C.2     5  GLN5        0.2592
      4  O          7.3570   38.6930   -5.9260 O.2     5  GLN5       -0.2718
      5  CB         9.5300   36.3750   -5.5510 C.3     5  GLN5        0.0381
      6  CG        10.1410   37.1890   -6.6670 C.3     5  GLN5        0.0905
      7  CD        11.1640   36.3510   -7.4020 C.2     5  GLN5        0.2608
      8  OE1       10.8270   35.5700   -8.2960 O.2     5  GLN5       -0.2717
      9  NE2       12.4110   36.4600   -6.9850 N.am    5  GLN5       -0.0878
     10  N          6.2730   36.7660   -5.4690 N.am    6  VAL6       -0.1980
     11  CA         5.0270   37.1290   -6.1550 C.3     6  VAL6        0.1595
     12  C          4.2340   38.1490   -5.3380 C.2     6  VAL6        0.2287
     13  O          3.6140   39.0270   -5.9130 O.2     6  VAL6       -0.2864
     14  CB         4.1370   35.8790   -6.4290 C.3     6  VAL6        0.0276
     15  CG1        2.7930   36.2680   -7.0420 C.3     6  VAL6        0.0022
     16  CG2        4.8650   34.8860   -7.3230 C.3     6  VAL6        0.0022
     17  N          5.6970   41.7320   -5.5010 N.3     9  GLY9       -0.1210
     18  CA         5.3480   42.2980   -6.8070 C.3     9  GLY9        0.1956
     19  C          3.9630   42.9270   -6.7440 C.2     9  GLY9        0.2611
     20  O          3.7340   44.0200   -7.2390 O.2     9  GLY9       -0.2717
     21  N          3.0380   42.2810   -6.0800 N.am   10  LEU10      -0.1979
     22  CA         1.6760   42.8590   -5.9700 C.3    10  LEU10       0.1596
     23  C          1.6220   44.1930   -5.1140 C.2    10  LEU10       0.2287
     24  O          0.9780   45.2200   -5.5190 O.2    10  LEU10      -0.2864
     25  CB         0.7040   41.8170   -5.3960 C.3    10  LEU10       0.0297
     26  CG         0.4760   40.4700   -6.1230 C.3    10  LEU10       0.0022
     27  CD1       -0.3220   39.5630   -5.2170 C.3    10  LEU10       0.0001
     28  CD2       -0.2550   40.6150   -7.4370 C.3    10  LEU10       0.0001
     29  N          3.0890   47.0970   -7.1700 N.3    13  VAL13      -0.1245
     30  CA         2.1860   47.5480   -8.2390 C.3    13  VAL13       0.1561
     31  C          1.0600   48.4010   -7.6800 C.2    13  VAL13       0.2260
     32  O          0.7340   49.4230   -8.2100 O.2    13  VAL13      -0.2867
     33  CB         1.5690   46.3110   -8.9990 C.3    13  VAL13       0.0252
     34  CG1        0.4670   46.7250   -9.9580 C.3    13  VAL13       0.0019
     35  CG2        2.6490   45.5850   -9.7760 C.3    13  VAL13       0.0019
     36  N          3.7600   51.6500  -13.0230 N.3    20  TYR20      -0.1241
     37  CA         3.4710   50.5670  -13.9520 C.3    20  TYR20       0.1605
     38  C          2.5570   50.9230  -15.1020 C.2    20  TYR20       0.2264
     39  O          2.7870   50.4280  -16.2030 O.2    20  TYR20      -0.2867
     40  CB         2.8850   49.4240  -13.1750 C.3    20  TYR20       0.0534
     41  CG         3.8780   48.8200  -12.2480 C.ar   20  TYR20      -0.0201
     42  CD1        4.1110   49.3450  -10.9790 C.ar   20  TYR20      -0.0009
     43  CD2        4.6420   47.7270  -12.6510 C.ar   20  TYR20      -0.0009
     44  CE1        5.0640   48.7760  -10.1270 C.ar   20  TYR20       0.0417
     45  CE2        5.5520   47.1320  -11.7940 C.ar   20  TYR20       0.0417
     46  CZ         5.7920   47.6710  -10.5560 C.ar   20  TYR20       0.1957
     47  OH         6.7030   47.0380   -9.7360 O.3    20  TYR20      -0.2866
     48  N         -0.9360   35.6690  -11.3890 N.3    89  THR89      -0.1203
     49  CA        -0.4380   36.3020  -10.1840 C.3    89  THR89       0.1994
     50  C          0.8030   37.1560  -10.3960 C.2    89  THR89       0.2619
     51  O          1.0000   38.2150   -9.7230 O.2    89  THR89      -0.2717
     52  CB        -0.2290   35.2570   -9.0440 C.3    89  THR89       0.1784
     53  OG1        0.6920   34.1820   -9.3720 O.3    89  THR89      -0.2211
     54  CG2       -1.5610   34.6020   -8.6550 C.3    89  THR89       0.0376
     55  N          1.4700   37.2720  -11.5830 N.am   90  SER90      -0.1937
     56  CA         2.4030   38.3490  -11.8410 C.3    90  SER90       0.2055
     57  C          1.8980   39.3910  -12.8300 C.2    90  SER90       0.2644
     58  O          2.6460   40.1430  -13.3960 O.2    90  SER90      -0.2714
     59  CB         3.7200   37.7020  -12.3500 C.3    90  SER90       0.2130
     60  OG         3.4240   36.9880  -13.4850 O.3    90  SER90      -0.2179
     61  N          0.5760   39.3980  -13.0920 N.am   91  SER91      -0.1935
     62  CA        -0.0600   40.2790  -14.0400 C.3    91  SER91       0.2055
     63  C         -0.3520   41.5810  -13.3470 C.2    91  SER91       0.2642
     64  O         -1.0600   41.5070  -12.3230 O.2    91  SER91      -0.2714
     65  CB        -1.4160   39.6760  -14.4320 C.3    91  SER91       0.2130
     66  OG        -2.0920   40.6120  -15.2360 O.3    91  SER91      -0.2179
     67  N          0.0750   42.6800  -13.9270 N.am   92  VAL92      -0.1977
     68  CA        -0.2650   44.0580  -13.4680 C.3    92  VAL92       0.1596
     69  C         -1.8050   44.2200  -13.4450 C.2    92  VAL92       0.2287
     70  O         -2.3780   44.7100  -12.4520 O.2    92  VAL92      -0.2864
     71  CB         0.4310   45.1540  -14.2800 C.3    92  VAL92       0.0276
     72  CG1       -0.2360   46.5120  -14.1080 C.3    92  VAL92       0.0022
     73  CG2        1.8540   45.2770  -13.8100 C.3    92  VAL92       0.0022
     74  N         -3.4040   42.5300  -10.4720 N.3    95  ALA95      -0.1245
     75  CA        -3.0720   43.3200   -9.2720 C.3    95  ALA95       0.1562
     76  C         -3.9580   44.5210   -9.0490 C.2    95  ALA95       0.2260
     77  O         -4.2530   44.8500   -7.8760 O.2    95  ALA95      -0.2867
     78  CB        -1.6110   43.7890   -9.2840 C.3    95  ALA95       0.0290
@<TRIPOS>BOND
     1    39    38    2
     2    66    65    1
     3    38    37    1
     4    65    62    1
     5    71    72    1
     6    71    73    1
     7    71    68    1
     8    62    63    1
     9    62    61    1
    10    37    40    1
    11    37    36    1
    12    67    68    1
    13    67    63   am
    14    60    59    1
    15    68    69    1
    16    69    70    2
    17    58    57    2
    18    63    64    2
    19    40    41    1
    20    61    57   am
    21    57    56    1
    22    43    41   ar
    23    43    45   ar
    24    59    56    1
    25    41    42   ar
    26    56    55    1
    27    45    46   ar
    28    55    50   am
    29    48    49    1
    30    42    44   ar
    31    46    44   ar
    32    46    47    1
    33    74    75    1
    34    50    49    1
    35    50    51    2
    36    49    52    1
    37    34    33    1
    38    35    33    1
    39    53    52    1
    40    78    75    1
    41    75    76    1
    42    76    77    2
    43    52    54    1
    44    33    30    1
    45     8     7    2
    46    30    31    1
    47    30    29    1
    48    32    31    2
    49    28    26    1
    50     7     9   am
    51     7     6    1
    52    16    14    1
    53    20    19    2
    54    15    14    1
    55    18    19    1
    56    18    17    1
    57    19    21   am
    58     6     5    1
    59    14    11    1
    60    11    10    1
    61    11    12    1
    62    26    25    1
    63    26    27    1
    64    21    22    1
    65    22    25    1
    66    22    23    1
    67     4     3    2
    68    13    12    2
    69     5     2    1
    70    24    23    2
    71    10     3   am
    72     3     2    1
    73     2     1    1
