@<TRIPOS>MOLECULE
tmp/5ctwA00.pdb
 111 103 0 0 0
SMALL
GASTEIGER

@<TRIPOS>ATOM
      1  N         -4.0570   43.2540  -21.5360 N.3    36  ILE36      -0.1245
      2  CA        -4.6500   41.9670  -21.7640 C.3    36  ILE36       0.1561
      3  C         -4.7390   41.6920  -23.2760 C.2    36  ILE36       0.2260
      4  O         -4.4370   40.5970  -23.7560 O.2    36  ILE36      -0.2867
      5  CB        -6.0400   41.8370  -21.0690 C.3    36  ILE36       0.0252
      6  CG1       -5.9710   41.9800  -19.5150 C.3    36  ILE36       0.0019
      7  CG2       -6.6810   40.5370  -21.4020 C.3    36  ILE36       0.0019
      8  CD1       -5.0530   41.0700  -18.7530 C.3    36  ILE36       0.0001
      9  N         -1.5900   40.4380  -25.0110 N.3    39  ASN39      -0.1225
     10  CA        -1.3310   38.9450  -24.8920 C.3    39  ASN39       0.1785
     11  C         -2.0490   38.1450  -25.9660 C.2    39  ASN39       0.2597
     12  O         -1.5040   37.2300  -26.5750 O.2    39  ASN39      -0.2718
     13  CB        -1.6310   38.4030  -23.4980 C.3    39  ASN39       0.1169
     14  CG        -0.7010   38.9940  -22.4400 C.2    39  ASN39       0.2627
     15  OD1        0.5050   39.1420  -22.6530 O.2    39  ASN39      -0.2716
     16  ND2       -1.2650   39.3750  -21.3380 N.am   39  ASN39      -0.0877
     17  N         -3.3310   38.4310  -26.1910 N.am   40  SER40      -0.1952
     18  CA        -4.1020   37.7930  -27.2420 C.3    40  SER40       0.1924
     19  C         -3.4710   38.0730  -28.6140 C.2    40  SER40       0.2314
     20  O         -3.4500   37.1920  -29.4230 O.2    40  SER40      -0.2863
     21  CB        -5.5490   38.2320  -27.2250 C.3    40  SER40       0.2116
     22  OG        -6.0970   37.8750  -25.9630 O.3    40  SER40      -0.2180
     23  N         -0.7830   35.6580  -29.3050 N.3    43  GLU43      -0.1245
     24  CA        -1.2800   34.3470  -29.7330 C.3    43  GLU43       0.1567
     25  C         -1.5040   34.2970  -31.2220 C.2    43  GLU43       0.2260
     26  O         -1.3740   33.2340  -31.8460 O.2    43  GLU43      -0.2867
     27  CB        -2.6470   33.9930  -29.0890 C.3    43  GLU43       0.0388
     28  CG        -2.5790   33.3310  -27.7710 C.3    43  GLU43       0.1160
     29  CD        -1.6050   32.1710  -27.7660 C.2    43  GLU43       0.3649
     30  OE1       -0.4580   32.3800  -27.3410 O.co2  43  GLU43      -0.2457
     31  OE2       -1.9520   31.0400  -28.1460 O.co2  43  GLU43      -0.2457
     32  N         -9.8770   35.1690  -26.6470 N.3    66  ASP66      -0.1239
     33  CA        -9.1980   34.8050  -27.9270 C.3    66  ASP66       0.1674
     34  C         -9.3650   33.3810  -28.2050 C.2    66  ASP66       0.2266
     35  O         -9.6550   32.5660  -27.2990 O.2    66  ASP66      -0.2867
     36  CB        -7.7900   35.2210  -27.9260 C.3    66  ASP66       0.1410
     37  CG        -6.9380   34.4760  -26.9100 C.2    66  ASP66       0.3668
     38  OD1       -6.3340   35.1510  -26.0240 O.co2  66  ASP66      -0.2456
     39  OD2       -6.8380   33.2360  -27.0130 O.co2  66  ASP66      -0.2456
     40  N         -3.9920   29.3160  -27.9330 N.3    69  ARG69      -0.1231
     41  CA        -3.6140   28.0250  -27.3950 C.3    69  ARG69       0.1694
     42  C         -4.2730   27.7170  -26.0970 C.2    69  ARG69       0.2593
     43  O         -4.2900   26.5340  -25.7100 O.2    69  ARG69      -0.2718
     44  CB        -2.1330   27.9830  -27.1840 C.3    69  ARG69       0.0321
     45  CG        -1.5000   27.8260  -28.5300 C.3    69  ARG69       0.0489
     46  CD        -0.0020   28.0810  -28.4370 C.3    69  ARG69       0.2205
     47  NE         0.3210   29.4570  -28.0950 N.pl3  69  ARG69      -0.0865
     48  CZ         1.5250   30.0380  -28.1170 C.cat  69  ARG69       0.5346
     49  NH1        1.6370   31.3000  -27.7970 N.pl3  69  ARG69       0.1354
     50  NH2        2.5990   29.3900  -28.5200 N.pl3  69  ARG69       0.1354
     51  N         -4.7610   28.7550  -25.4360 N.am   70  GLY70      -0.1942
     52  CA        -5.1190   28.6020  -23.9930 C.3    70  GLY70       0.2014
     53  C         -3.9190   28.7190  -23.1150 C.2    70  GLY70       0.2639
     54  O         -2.8230   28.1630  -23.4350 O.2    70  GLY70      -0.2714
     55  N         -4.0200   29.4410  -22.0310 N.am   71  ILE71      -0.1963
     56  CA        -2.8670   29.5770  -21.1420 C.3    71  ILE71       0.1712
     57  C         -2.5540   28.1520  -20.5910 C.2    71  ILE71       0.2458
     58  O         -3.4550   27.3270  -20.2320 O.2    71  ILE71      -0.2730
     59  CB        -3.1040   30.5950  -19.9580 C.3    71  ILE71       0.0289
     60  CG1       -3.5480   31.9510  -20.4850 C.3    71  ILE71       0.0022
     61  CG2       -1.8040   30.7140  -19.1200 C.3    71  ILE71       0.0023
     62  CD1       -3.9100   33.0070  -19.4750 C.3    71  ILE71       0.0001
     63  N         -1.2580   27.7810  -20.5090 N.am   72  PRO72      -0.2727
     64  CA        -0.9390   26.4210  -19.9760 C.3    72  PRO72       0.1402
     65  C         -1.3880   26.2020  -18.5330 C.2    72  PRO72       0.2269
     66  O         -1.4240   27.1430  -17.7700 O.2    72  PRO72      -0.2865
     67  CB         0.5640   26.3660  -20.0650 C.3    72  PRO72       0.0296
     68  CG         0.8660   27.2750  -21.1910 C.3    72  PRO72       0.0237
     69  CD        -0.0840   28.3990  -21.1470 C.3    72  PRO72       0.0939
     70  N          1.3150   32.8440  -14.1140 N.3    87  ILE87      -0.1231
     71  CA         1.1680   33.8780  -15.1050 C.3    87  ILE87       0.1692
     72  C          0.2680   35.0350  -14.6290 C.2    87  ILE87       0.2591
     73  O          0.5710   36.2580  -14.7010 O.2    87  ILE87      -0.2718
     74  CB         0.7230   33.2780  -16.4380 C.3    87  ILE87       0.0266
     75  CG1        1.8870   32.5350  -17.1270 C.3    87  ILE87       0.0019
     76  CG2        0.2330   34.3910  -17.3740 C.3    87  ILE87       0.0020
     77  CD1        1.4710   31.6480  -18.2800 C.3    87  ILE87       0.0001
     78  N         -0.8930   34.6450  -14.0880 N.am   88  LEU88      -0.1980
     79  CA        -1.8630   35.6430  -13.6820 C.3    88  LEU88       0.1596
     80  C         -1.5860   36.3520  -12.3300 C.2    88  LEU88       0.2287
     81  O         -1.8830   37.5130  -12.2020 O.2    88  LEU88      -0.2864
     82  CB        -3.3160   35.0950  -13.7570 C.3    88  LEU88       0.0297
     83  CG        -3.8060   34.7890  -15.1950 C.3    88  LEU88       0.0022
     84  CD1       -5.2650   34.3910  -15.1240 C.3    88  LEU88       0.0001
     85  CD2       -3.6580   35.8770  -16.2520 C.3    88  LEU88       0.0001
     86  N         -8.5250   24.1990  -23.0980 N.3   106  ARG106     -0.1245
     87  CA        -7.2910   23.5050  -23.5030 C.3   106  ARG106      0.1563
     88  C         -7.3950   22.0570  -23.0710 C.2   106  ARG106      0.2260
     89  O         -8.0090   21.7910  -22.0420 O.2   106  ARG106     -0.2867
     90  CB        -6.1010   24.1210  -22.7820 C.3   106  ARG106      0.0307
     91  CG        -4.7470   23.6610  -23.2730 C.3   106  ARG106      0.0489
     92  CD        -3.7140   24.6460  -22.6710 C.3   106  ARG106      0.2205
     93  NE        -2.3780   24.1210  -22.8920 N.pl3 106  ARG106     -0.0865
     94  CZ        -1.4140   24.6690  -23.6450 C.cat 106  ARG106      0.5346
     95  NH1       -1.5330   25.8760  -24.2380 N.pl3 106  ARG106      0.1354
     96  NH2       -0.2720   24.0280  -23.7350 N.pl3 106  ARG106      0.1354
     97  N         -8.5880   31.4290  -24.5430 N.3   135  THR135     -0.1218
     98  CA        -8.5540   32.0330  -23.1970 C.3   135  THR135      0.1862
     99  C         -9.5680   33.1320  -23.1120 C.2   135  THR135      0.2287
    100  O         -9.7240   33.9780  -24.0310 O.2   135  THR135     -0.2866
    101  CB        -7.1580   32.5660  -22.8650 C.3   135  THR135      0.1770
    102  OG1       -6.2130   31.5050  -22.9870 O.3   135  THR135     -0.2211
    103  CG2       -7.0940   33.1060  -21.4630 C.3   135  THR135      0.0375
    104  N        -10.5060   36.1150  -20.2870 N.3   137  ILE137     -0.1245
    105  CA       -10.1720   36.9010  -19.0810 C.3   137  ILE137      0.1561
    106  C        -11.2740   37.9460  -18.8390 C.2   137  ILE137      0.2260
    107  O        -11.5400   38.7910  -19.6860 O.2   137  ILE137     -0.2867
    108  CB        -8.7650   37.5290  -19.1860 C.3   137  ILE137      0.0252
    109  CG1       -7.7380   36.3650  -19.1310 C.3   137  ILE137      0.0019
    110  CG2       -8.5340   38.5100  -18.0260 C.3   137  ILE137      0.0019
    111  CD1       -6.3220   36.7230  -19.3980 C.3   137  ILE137      0.0001
@<TRIPOS>BOND
     1    26    25    2
     2    25    24    1
     3    24    23    1
     4    24    27    1
     5    20    19    2
     6    27    28    1
     7    19    18    1
     8    45    46    1
     9    45    44    1
    10    50    48    1
    11    46    47    1
    12    34    33    1
    13    34    35    2
    14    31    29   ar
    15    48    47    2
    16    48    49    1
    17    40    41    1
    18    33    36    1
    19    33    32    1
    20    36    37    1
    21    28    29    1
    22    29    30   ar
    23    41    44    1
    24    41    42    1
    25    18    21    1
    26    18    17    1
    27    21    22    1
    28    39    37   ar
    29    37    38   ar
    30    12    11    2
    31    17    11   am
    32    42    43    2
    33    42    51   am
    34    11    10    1
    35    51    52    1
    36     9    10    1
    37    10    13    1
    38    97    98    1
    39    95    94    1
    40   100    99    2
    41    52    53    1
    42     4     3    2
    43    96    94    1
    44    94    93    2
    45    87    86    1
    46    87    88    1
    47    87    90    1
    48    13    14    1
    49    54    53    2
    50     3     2    1
    51    91    90    1
    52    91    92    1
    53    98    99    1
    54    98   101    1
    55    53    55   am
    56    88    89    2
    57   102   101    1
    58    93    92    1
    59   101   103    1
    60    15    14    2
    61    14    16   am
    62    55    56    1
    63     2     1    1
    64     2     5    1
    65     7     5    1
    66    68    69    1
    67    68    67    1
    68    69    63    1
    69    56    57    1
    70    56    59    1
    71     5     6    1
    72    57    63   am
    73    57    58    2
    74    63    64    1
    75    60    59    1
    76    60    62    1
    77   104   105    1
    78    67    64    1
    79    64    65    1
    80    59    61    1
    81   107   106    2
    82     6     8    1
    83   111   109    1
    84   108   109    1
    85   108   105    1
    86   108   110    1
    87   105   106    1
    88    65    66    2
    89    77    75    1
    90    76    74    1
    91    75    74    1
    92    74    71    1
    93    85    83    1
    94    83    84    1
    95    83    82    1
    96    71    72    1
    97    71    70    1
    98    73    72    2
    99    72    78   am
   100    78    79    1
   101    82    79    1
   102    79    80    1
   103    80    81    2
