@<TRIPOS>MOLECULE
tmp/5ctxB02.pdb
 119 111 0 0 0
SMALL
GASTEIGER

@<TRIPOS>ATOM
      1  N         17.5260   -9.1390   29.1180 N.3    32  ILE32      -0.1245
      2  CA        17.8140  -10.5320   29.4210 C.3    32  ILE32       0.1561
      3  C         17.8890  -10.6840   30.9520 C.2    32  ILE32       0.2260
      4  O         17.3090  -11.5990   31.5500 O.2    32  ILE32      -0.2867
      5  CB        19.1600  -10.9690   28.7460 C.3    32  ILE32       0.0252
      6  CG1       19.0910  -10.8870   27.1880 C.3    32  ILE32       0.0019
      7  CG2       19.5990  -12.3450   29.2300 C.3    32  ILE32       0.0019
      8  CD1       17.8990  -11.6140   26.6190 C.3    32  ILE32       0.0001
      9  N         14.4710  -11.0100   32.5970 N.3    35  ASN35      -0.1225
     10  CA        13.8700  -12.3080   32.5100 C.3    35  ASN35       0.1785
     11  C         14.3800  -13.2470   33.6110 C.2    35  ASN35       0.2597
     12  O         13.6100  -14.0120   34.2000 O.2    35  ASN35      -0.2718
     13  CB        14.1670  -12.8900   31.1070 C.3    35  ASN35       0.1169
     14  CG        13.4170  -12.1500   29.9870 C.2    35  ASN35       0.2627
     15  OD1       12.3920  -11.5160   30.2440 O.2    35  ASN35      -0.2716
     16  ND2       13.9370  -12.2270   28.7910 N.am   35  ASN35      -0.0877
     17  N         15.6880  -13.1630   33.9340 N.am   36  SER36      -0.1952
     18  CA        16.2400  -13.9110   35.0760 C.3    36  SER36       0.1924
     19  C         15.6540  -13.4430   36.3890 C.2    36  SER36       0.2314
     20  O         15.3570  -14.2430   37.2680 O.2    36  SER36      -0.2863
     21  CB        17.7660  -13.8490   35.0800 C.3    36  SER36       0.2116
     22  OG        18.2960  -14.6000   34.0070 O.3    36  SER36      -0.2180
     23  N         12.6510  -12.1470   36.7580 N.3    38  ASP38      -0.1225
     24  CA        11.2880  -12.7050   36.7910 C.3    38  ASP38       0.1805
     25  C         11.2960  -14.1370   37.3540 C.2    38  ASP38       0.2597
     26  O         10.4350  -14.5770   38.1060 O.2    38  ASP38      -0.2718
     27  CB        10.6050  -12.6320   35.4430 C.3    38  ASP38       0.1424
     28  CG        10.1550  -11.2410   35.0800 C.2    38  ASP38       0.3668
     29  OD1       10.0090  -11.0160   33.8770 O.co2  38  ASP38      -0.2456
     30  OD2        9.9540  -10.3770   35.9570 O.co2  38  ASP38      -0.2456
     31  N         12.3310  -14.8970   36.9640 N.am   39  GLU39      -0.1979
     32  CA        12.4620  -16.2370   37.4460 C.3    39  GLU39       0.1602
     33  C         12.7820  -16.3150   38.9440 C.2    39  GLU39       0.2287
     34  O         12.3540  -17.2260   39.6530 O.2    39  GLU39      -0.2864
     35  CB        13.4490  -16.9640   36.5520 C.3    39  GLU39       0.0415
     36  CG        13.5750  -18.4100   36.6690 C.3    39  GLU39       0.1163
     37  CD        12.3130  -19.2200   36.2870 C.2    39  GLU39       0.3649
     38  OE1       11.2270  -18.7280   35.9570 O.co2  39  GLU39      -0.2457
     39  OE2       12.4180  -20.4410   36.4860 O.co2  39  GLU39      -0.2457
     40  N         21.2050  -17.8950   34.8730 N.3    62  ASP62      -0.1239
     41  CA        20.4880  -18.0020   36.1490 C.3    62  ASP62       0.1674
     42  C         20.2890  -19.4770   36.5030 C.2    62  ASP62       0.2266
     43  O         20.4390  -20.3470   35.6370 O.2    62  ASP62      -0.2867
     44  CB        19.1360  -17.2840   36.1340 C.3    62  ASP62       0.1410
     45  CG        18.1380  -17.8910   35.1320 C.2    62  ASP62       0.3668
     46  OD1       17.7050  -17.1720   34.2150 O.co2  62  ASP62      -0.2456
     47  OD2       17.6750  -19.0510   35.3490 O.co2  62  ASP62      -0.2456
     48  N         14.3940  -22.5140   36.4890 N.3    65  ARG65      -0.1231
     49  CA        13.8850  -23.8210   35.9540 C.3    65  ARG65       0.1694
     50  C         14.4410  -24.2090   34.5940 C.2    65  ARG65       0.2593
     51  O         14.3730  -25.4010   34.2030 O.2    65  ARG65      -0.2718
     52  CB        12.3720  -23.7940   35.8600 C.3    65  ARG65       0.0321
     53  CG        11.7760  -23.6930   37.1920 C.3    65  ARG65       0.0489
     54  CD        10.2760  -23.3960   37.0830 C.3    65  ARG65       0.2205
     55  NE        10.0490  -22.0520   36.6730 N.pl3  65  ARG65      -0.0865
     56  CZ         8.8760  -21.4630   36.4850 C.cat  65  ARG65       0.5346
     57  NH1        8.8430  -20.1550   36.2500 N.pl3  65  ARG65       0.1354
     58  NH2        7.7190  -22.1240   36.6010 N.pl3  65  ARG65       0.1354
     59  N         15.0250  -23.2490   33.8840 N.am   66  GLY66      -0.1942
     60  CA        15.3680  -23.4670   32.5010 C.3    66  GLY66       0.2014
     61  C         14.1990  -23.1960   31.5900 C.2    66  GLY66       0.2639
     62  O         13.0630  -23.6440   31.8690 O.2    66  GLY66      -0.2714
     63  N         14.4280  -22.4650   30.4820 N.am   67  ILE67      -0.1963
     64  CA        13.3580  -22.1630   29.5410 C.3    67  ILE67       0.1712
     65  C         12.7670  -23.4790   29.0100 C.2    67  ILE67       0.2458
     66  O         13.4870  -24.3710   28.6500 O.2    67  ILE67      -0.2730
     67  CB        13.8280  -21.2930   28.3520 C.3    67  ILE67       0.0289
     68  CG1       14.5180  -20.0340   28.8940 C.3    67  ILE67       0.0022
     69  CG2       12.6900  -20.9740   27.4140 C.3    67  ILE67       0.0023
     70  CD1       15.0950  -19.1670   27.7850 C.3    67  ILE67       0.0001
     71  N         11.4370  -23.6300   29.0200 N.am   68  PRO68      -0.2727
     72  CA        10.8870  -24.8780   28.5260 C.3    68  PRO68       0.1402
     73  C         11.2750  -25.1950   27.0930 C.2    68  PRO68       0.2269
     74  O         11.3950  -24.2710   26.2340 O.2    68  PRO68      -0.2865
     75  CB         9.3710  -24.6900   28.6630 C.3    68  PRO68       0.0296
     76  CG         9.1970  -23.6060   29.6550 C.3    68  PRO68       0.0237
     77  CD        10.4090  -22.7300   29.5720 C.3    68  PRO68       0.0939
     78  N         10.0440  -18.5600   21.9570 N.3    83  ILE83      -0.1231
     79  CA        10.3710  -17.4630   22.8600 C.3    83  ILE83       0.1692
     80  C         11.5280  -16.6480   22.3220 C.2    83  ILE83       0.2591
     81  O         11.3990  -15.3960   22.2190 O.2    83  ILE83      -0.2718
     82  CB        10.6560  -17.9500   24.3120 C.3    83  ILE83       0.0266
     83  CG1        9.3940  -18.5400   24.9460 C.3    83  ILE83       0.0019
     84  CG2       11.2330  -16.8220   25.1980 C.3    83  ILE83       0.0020
     85  CD1        9.6270  -19.5350   26.0690 C.3    83  ILE83       0.0001
     86  N         12.6400  -17.3040   21.9740 N.am   84  LEU84      -0.1980
     87  CA        13.8080  -16.5270   21.5710 C.3    84  LEU84       0.1596
     88  C         13.6590  -15.8980   20.1940 C.2    84  LEU84       0.2287
     89  O         14.2290  -14.8090   19.9670 O.2    84  LEU84      -0.2864
     90  CB        15.1400  -17.3630   21.7030 C.3    84  LEU84       0.0297
     91  CG        15.4890  -17.5840   23.2290 C.3    84  LEU84       0.0022
     92  CD1       16.6630  -18.5040   23.4800 C.3    84  LEU84       0.0001
     93  CD2       15.7470  -16.2800   23.9710 C.3    84  LEU84       0.0001
     94  N         17.7550  -28.5300   31.8910 N.3   102  ARG102     -0.1245
     95  CA        16.4050  -28.9170   32.2860 C.3   102  ARG102      0.1563
     96  C         16.2430  -30.4090   31.9850 C.2   102  ARG102      0.2260
     97  O         16.8380  -30.9070   31.0210 O.2   102  ARG102     -0.2867
     98  CB        15.3960  -28.0520   31.4920 C.3   102  ARG102      0.0307
     99  CG        13.9120  -28.1870   31.7540 C.3   102  ARG102      0.0489
    100  CD        13.1180  -27.1210   31.0690 C.3   102  ARG102      0.2205
    101  NE        11.7080  -27.4080   31.2890 N.pl3 102  ARG102     -0.0865
    102  CZ        10.9110  -26.7570   32.0800 C.cat 102  ARG102      0.5346
    103  NH1       11.3050  -25.6780   32.7140 N.pl3 102  ARG102      0.1354
    104  NH2        9.6570  -27.1820   32.2120 N.pl3 102  ARG102      0.1354
    105  N         19.2500  -21.4090   32.9420 N.3   131  THR131     -0.1218
    106  CA        19.3620  -20.9320   31.5800 C.3   131  THR131      0.1862
    107  C         20.6210  -20.1300   31.4230 C.2   131  THR131      0.2287
    108  O         20.9390  -19.3110   32.3320 O.2   131  THR131     -0.2866
    109  CB        18.1300  -20.0340   31.2370 C.3   131  THR131      0.1770
    110  OG1       16.9290  -20.8520   31.3800 O.3   131  THR131     -0.2211
    111  CG2       18.1600  -19.5190   29.8580 C.3   131  THR131      0.0375
    112  N         22.1800  -17.5570   28.4700 N.3   133  ILE133     -0.1245
    113  CA        21.9950  -16.8020   27.2250 C.3   133  ILE133      0.1561
    114  C         23.2920  -16.0460   26.9640 C.2   133  ILE133      0.2260
    115  O         23.7510  -15.3130   27.8660 O.2   133  ILE133     -0.2867
    116  CB        20.8470  -15.7440   27.2870 C.3   133  ILE133      0.0252
    117  CG1       19.4780  -16.3730   27.6190 C.3   133  ILE133      0.0019
    118  CG2       20.6820  -15.0960   25.8930 C.3   133  ILE133      0.0019
    119  CD1       18.8510  -16.9460   26.3860 C.3   133  ILE133      0.0001
@<TRIPOS>BOND
     1    89    88    2
     2    88    87    1
     3    87    90    1
     4    87    86    1
     5    90    91    1
     6    78    79    1
     7    86    80   am
     8    81    80    2
     9    80    79    1
    10    79    82    1
    11    91    92    1
    12    91    93    1
    13    82    83    1
    14    82    84    1
    15    83    85    1
    16   118   116    1
    17    74    73    2
    18   119   117    1
    19     8     6    1
    20   114   113    1
    21   114   115    2
    22    73    72    1
    23     6     5    1
    24   113   116    1
    25   113   112    1
    26   116   117    1
    27    69    67    1
    28    70    68    1
    29    67    68    1
    30    67    64    1
    31    72    75    1
    32    72    71    1
    33    66    65    2
    34    75    76    1
    35     5     7    1
    36     5     2    1
    37    16    14   am
    38    65    71   am
    39    65    64    1
    40    71    77    1
    41     1     2    1
    42     2     3    1
    43    64    63    1
    44    77    76    1
    45   111   109    1
    46    14    15    2
    47    14    13    1
    48    63    61   am
    49     3     4    2
    50    97    96    2
    51   100   101    1
    52   100    99    1
    53    13    10    1
    54   109   110    1
    55   109   106    1
    56   101   102    2
    57   107   106    1
    58   107   108    2
    59    98    99    1
    60    98    95    1
    61   106   105    1
    62    61    62    2
    63    61    60    1
    64    94    95    1
    65    96    95    1
    66   102   104    1
    67   102   103    1
    68    60    59    1
    69    10     9    1
    70    10    11    1
    71    11    17   am
    72    11    12    2
    73    29    28   ar
    74    59    50   am
    75    17    18    1
    76    22    21    1
    77    51    50    2
    78    46    45   ar
    79    50    49    1
    80    40    41    1
    81    18    21    1
    82    18    19    1
    83    28    27    1
    84    28    30   ar
    85    45    47   ar
    86    45    44    1
    87    27    24    1
    88    43    42    2
    89    52    49    1
    90    52    53    1
    91    49    48    1
    92    38    37   ar
    93    44    41    1
    94    41    42    1
    95    57    56    1
    96    37    39   ar
    97    37    36    1
    98    19    20    2
    99    56    58    1
   100    56    55    2
   101    35    36    1
   102    35    32    1
   103    55    54    1
   104    23    24    1
   105    24    25    1
   106    31    25   am
   107    31    32    1
   108    54    53    1
   109    25    26    2
   110    32    33    1
   111    33    34    2
