@<TRIPOS>MOLECULE
tmp/5ctyB03.pdb
 111 103 0 0 0
SMALL
GASTEIGER

@<TRIPOS>ATOM
      1  N         17.6100   -9.0580   29.0320 N.3    32  ILE32      -0.1245
      2  CA        17.8940  -10.4730   29.3300 C.3    32  ILE32       0.1561
      3  C         17.9650  -10.6450   30.8700 C.2    32  ILE32       0.2260
      4  O         17.3950  -11.5780   31.4120 O.2    32  ILE32      -0.2867
      5  CB        19.2320  -10.9350   28.6690 C.3    32  ILE32       0.0252
      6  CG1       19.1380  -10.8440   27.1360 C.3    32  ILE32       0.0019
      7  CG2       19.6120  -12.3270   29.1600 C.3    32  ILE32       0.0019
      8  CD1       17.9740  -11.5820   26.5140 C.3    32  ILE32       0.0001
      9  N         14.5640  -11.0550   32.3820 N.3    35  ASN35      -0.1225
     10  CA        14.0170  -12.3730   32.2490 C.3    35  ASN35       0.1785
     11  C         14.4830  -13.2930   33.3800 C.2    35  ASN35       0.2597
     12  O         13.6650  -14.0420   33.9470 O.2    35  ASN35      -0.2718
     13  CB        14.3510  -13.0160   30.8760 C.3    35  ASN35       0.1169
     14  CG        13.7440  -12.2610   29.6830 C.2    35  ASN35       0.2627
     15  OD1       12.7880  -11.5650   29.8810 O.2    35  ASN35      -0.2716
     16  ND2       14.4340  -12.2340   28.5700 N.am   35  ASN35      -0.0877
     17  N         15.7710  -13.1990   33.7710 N.am   36  SER36      -0.1952
     18  CA        16.2570  -13.9530   34.9200 C.3    36  SER36       0.1924
     19  C         15.6310  -13.4740   36.2360 C.2    36  SER36       0.2314
     20  O         15.3360  -14.2680   37.1200 O.2    36  SER36      -0.2863
     21  CB        17.7660  -13.8530   35.0160 C.3    36  SER36       0.2116
     22  OG        18.3530  -14.5860   33.9590 O.3    36  SER36      -0.2180
     23  N         12.3690  -14.9680   36.8340 N.3    39  GLU39      -0.1245
     24  CA        12.5300  -16.3140   37.3150 C.3    39  GLU39       0.1567
     25  C         12.8120  -16.3300   38.8200 C.2    39  GLU39       0.2260
     26  O         12.3790  -17.2150   39.5440 O.2    39  GLU39      -0.2867
     27  CB        13.5630  -17.0090   36.4390 C.3    39  GLU39       0.0388
     28  CG        13.6420  -18.4040   36.5140 C.3    39  GLU39       0.1160
     29  CD        12.3440  -19.1870   36.1430 C.2    39  GLU39       0.3649
     30  OE1       11.2610  -18.7260   35.7630 O.co2  39  GLU39      -0.2457
     31  OE2       12.4610  -20.3760   36.4250 O.co2  39  GLU39      -0.2457
     32  N         21.2220  -17.8830   34.8520 N.3    62  ASP62      -0.1239
     33  CA        20.5090  -18.0000   36.1220 C.3    62  ASP62       0.1674
     34  C         20.3300  -19.4570   36.4810 C.2    62  ASP62       0.2266
     35  O         20.5240  -20.3130   35.6090 O.2    62  ASP62      -0.2867
     36  CB        19.1560  -17.2700   36.0830 C.3    62  ASP62       0.1410
     37  CG        18.1410  -17.8800   35.0540 C.2    62  ASP62       0.3668
     38  OD1       17.7120  -17.1920   34.1160 O.co2  62  ASP62      -0.2456
     39  OD2       17.7430  -19.0550   35.2380 O.co2  62  ASP62      -0.2456
     40  N         14.4080  -22.3860   36.3600 N.3    65  ARG65      -0.1231
     41  CA        13.9290  -23.7540   35.8860 C.3    65  ARG65       0.1694
     42  C         14.4920  -24.1630   34.5540 C.2    65  ARG65       0.2593
     43  O         14.3700  -25.3550   34.1860 O.2    65  ARG65      -0.2718
     44  CB        12.4330  -23.7350   35.8070 C.3    65  ARG65       0.0321
     45  CG        11.8030  -23.5970   37.1310 C.3    65  ARG65       0.0489
     46  CD        10.3000  -23.3030   37.0100 C.3    65  ARG65       0.2205
     47  NE        10.0880  -21.9500   36.5880 N.pl3  65  ARG65      -0.0865
     48  CZ         8.9090  -21.3510   36.4310 C.cat  65  ARG65       0.5346
     49  NH1        8.8390  -20.0510   36.1300 N.pl3  65  ARG65       0.1354
     50  NH2        7.7730  -22.0330   36.6080 N.pl3  65  ARG65       0.1354
     51  N         15.0350  -23.2320   33.8100 N.am   66  GLY66      -0.1942
     52  CA        15.4190  -23.4500   32.4170 C.3    66  GLY66       0.2014
     53  C         14.2560  -23.1990   31.4950 C.2    66  GLY66       0.2639
     54  O         13.0870  -23.6030   31.8010 O.2    66  GLY66      -0.2714
     55  N         14.4800  -22.4650   30.3910 N.am   67  ILE67      -0.1963
     56  CA        13.4060  -22.1590   29.4560 C.3    67  ILE67       0.1712
     57  C         12.7970  -23.4800   28.9210 C.2    67  ILE67       0.2458
     58  O         13.5130  -24.3630   28.5410 O.2    67  ILE67      -0.2730
     59  CB        13.8650  -21.2880   28.2620 C.3    67  ILE67       0.0289
     60  CG1       14.5280  -19.9920   28.7750 C.3    67  ILE67       0.0022
     61  CG2       12.6920  -20.9420   27.3780 C.3    67  ILE67       0.0023
     62  CD1       15.1580  -19.1860   27.6430 C.3    67  ILE67       0.0001
     63  N         11.4580  -23.5980   28.9270 N.am   68  PRO68      -0.2727
     64  CA        10.9000  -24.8650   28.4490 C.3    68  PRO68       0.1402
     65  C         11.2700  -25.1570   27.0170 C.2    68  PRO68       0.2269
     66  O         11.4020  -24.2160   26.1840 O.2    68  PRO68      -0.2865
     67  CB         9.4020  -24.6390   28.5800 C.3    68  PRO68       0.0296
     68  CG         9.2530  -23.5200   29.6270 C.3    68  PRO68       0.0237
     69  CD        10.4520  -22.6820   29.5110 C.3    68  PRO68       0.0939
     70  N         10.0060  -18.4750   22.0020 N.3    80  ILE80      -0.1231
     71  CA        10.3570  -17.3850   22.8840 C.3    80  ILE80       0.1692
     72  C         11.5260  -16.5730   22.3510 C.2    80  ILE80       0.2591
     73  O         11.4580  -15.2840   22.3100 O.2    80  ILE80      -0.2718
     74  CB        10.6790  -17.8820   24.3330 C.3    80  ILE80       0.0266
     75  CG1        9.4030  -18.4750   24.9670 C.3    80  ILE80       0.0019
     76  CG2       11.2650  -16.7590   25.1870 C.3    80  ILE80       0.0020
     77  CD1        9.6440  -19.4070   26.1420 C.3    80  ILE80       0.0001
     78  N         12.6350  -17.2460   22.0260 N.am   81  LEU81      -0.1980
     79  CA        13.8220  -16.4860   21.5900 C.3    81  LEU81       0.1596
     80  C         13.6980  -15.8290   20.2070 C.2    81  LEU81       0.2287
     81  O         14.2690  -14.7540   19.9700 O.2    81  LEU81      -0.2864
     82  CB        15.1210  -17.3330   21.7540 C.3    81  LEU81       0.0297
     83  CG        15.4310  -17.5710   23.2480 C.3    81  LEU81       0.0022
     84  CD1       16.6910  -18.3500   23.3820 C.3    81  LEU81       0.0001
     85  CD2       15.5610  -16.3160   24.1620 C.3    81  LEU81       0.0001
     86  N         17.7900  -28.4310   31.8080 N.3    99  ARG99      -0.1245
     87  CA        16.4590  -28.8440   32.2230 C.3    99  ARG99       0.1563
     88  C         16.2940  -30.3380   31.8970 C.2    99  ARG99       0.2260
     89  O         16.8080  -30.8110   30.9130 O.2    99  ARG99      -0.2867
     90  CB        15.4430  -27.9980   31.4590 C.3    99  ARG99       0.0307
     91  CG        14.0000  -28.1040   31.7970 C.3    99  ARG99       0.0489
     92  CD        13.1950  -27.0870   31.0210 C.3    99  ARG99       0.2205
     93  NE        11.7480  -27.3230   31.1830 N.pl3  99  ARG99      -0.0865
     94  CZ        10.9580  -26.7260   32.0330 C.cat  99  ARG99       0.5346
     95  NH1       11.3710  -25.7100   32.7610 N.pl3  99  ARG99       0.1354
     96  NH2        9.6790  -27.0750   32.0750 N.pl3  99  ARG99       0.1354
     97  N         19.2940  -21.4060   32.9090 N.3   128  THR128     -0.1218
     98  CA        19.4130  -20.9200   31.5420 C.3   128  THR128      0.1862
     99  C         20.6680  -20.1060   31.4000 C.2   128  THR128      0.2287
    100  O         20.9890  -19.2650   32.2730 O.2   128  THR128     -0.2866
    101  CB        18.2030  -20.0510   31.1840 C.3   128  THR128      0.1770
    102  OG1       16.9680  -20.8170   31.3180 O.3   128  THR128     -0.2211
    103  CG2       18.2430  -19.5140   29.7630 C.3   128  THR128      0.0375
    104  N         22.1540  -17.5110   28.4220 N.3   130  ILE130     -0.1245
    105  CA        21.9880  -16.7570   27.1680 C.3   130  ILE130      0.1561
    106  C         23.2850  -16.0360   26.9230 C.2   130  ILE130      0.2260
    107  O         23.7360  -15.3100   27.8330 O.2   130  ILE130     -0.2867
    108  CB        20.8480  -15.6990   27.3150 C.3   130  ILE130      0.0252
    109  CG1       19.4750  -16.3390   27.6080 C.3   130  ILE130      0.0019
    110  CG2       20.8130  -14.8300   26.0530 C.3   130  ILE130      0.0019
    111  CD1       18.8960  -17.0050   26.4580 C.3   130  ILE130      0.0001
@<TRIPOS>BOND
     1    81    80    2
     2    80    79    1
     3    79    82    1
     4    79    78    1
     5    82    83    1
     6    70    71    1
     7    78    72   am
     8    73    72    2
     9    72    71    1
    10    71    74    1
    11    83    84    1
    12    83    85    1
    13    74    75    1
    14    74    76    1
    15    75    77    1
    16   110   108    1
    17    66    65    2
    18   111   109    1
    19     8     6    1
    20   106   105    1
    21   106   107    2
    22    65    64    1
    23     6     5    1
    24   105   108    1
    25   105   104    1
    26   108   109    1
    27    61    59    1
    28    62    60    1
    29    59    60    1
    30    59    56    1
    31    64    67    1
    32    64    63    1
    33    58    57    2
    34    16    14   am
    35    67    68    1
    36     5     7    1
    37     5     2    1
    38    57    63   am
    39    57    56    1
    40    63    69    1
    41     1     2    1
    42     2     3    1
    43    56    55    1
    44    69    68    1
    45    14    15    2
    46    14    13    1
    47   103   101    1
    48    55    53   am
    49     3     4    2
    50    13    10    1
    51    89    88    2
    52    92    93    1
    53    92    91    1
    54    93    94    2
    55   101   102    1
    56   101    98    1
    57    99    98    1
    58    99   100    2
    59    90    91    1
    60    90    87    1
    61    53    54    2
    62    53    52    1
    63    98    97    1
    64    86    87    1
    65    88    87    1
    66    94    96    1
    67    94    95    1
    68    10     9    1
    69    10    11    1
    70    52    51    1
    71    11    17   am
    72    11    12    2
    73    17    18    1
    74    51    42   am
    75    22    21    1
    76    38    37   ar
    77    43    42    2
    78    42    41    1
    79    32    33    1
    80    18    21    1
    81    18    19    1
    82    37    39   ar
    83    37    36    1
    84    35    34    2
    85    30    29   ar
    86    44    41    1
    87    44    45    1
    88    41    40    1
    89    36    33    1
    90    33    34    1
    91    49    48    1
    92    29    31   ar
    93    29    28    1
    94    19    20    2
    95    48    47    2
    96    48    50    1
    97    27    28    1
    98    27    24    1
    99    47    46    1
   100    23    24    1
   101    46    45    1
   102    24    25    1
   103    25    26    2
