@<TRIPOS>MOLECULE
tmp/5cu0A00.pdb
 157 148 0 0 0
SMALL
GASTEIGER

@<TRIPOS>ATOM
      1  N         77.5270  125.1190  361.5720 N.3    52  VAL52      -0.1245
      2  CA        76.5080  125.8170  362.3450 C.3    52  VAL52       0.1561
      3  C         75.3220  124.9030  362.6190 C.2    52  VAL52       0.2260
      4  O         74.8720  124.1810  361.7300 O.2    52  VAL52      -0.2867
      5  CB        76.1310  127.1610  361.6810 C.3    52  VAL52       0.0252
      6  CG1       75.1410  127.9540  362.5310 C.3    52  VAL52       0.0019
      7  CG2       77.3780  127.9900  361.4170 C.3    52  VAL52       0.0019
      8  N         65.6440  132.8270  360.8780 N.3   117  ASN117     -0.1225
      9  CA        65.8690  133.5240  359.6190 C.3   117  ASN117      0.1785
     10  C         64.7050  133.2280  358.6910 C.2   117  ASN117      0.2597
     11  O         64.3790  132.0600  358.4500 O.2   117  ASN117     -0.2718
     12  CB        67.2000  133.1540  358.9620 C.3   117  ASN117      0.1169
     13  CG        67.5790  134.0700  357.8070 C.2   117  ASN117      0.2627
     14  OD1       67.9370  135.2530  357.9850 O.2   117  ASN117     -0.2716
     15  ND2       67.5130  133.5390  356.5910 N.am  117  ASN117     -0.0877
     16  N         64.0460  134.3040  358.2380 N.am  118  THR118     -0.1953
     17  CA        62.9450  134.2910  357.2890 C.3   118  THR118      0.1897
     18  C         63.6110  134.0230  355.9520 C.2   118  THR118      0.2313
     19  O         64.6780  134.6030  355.6920 O.2   118  THR118     -0.2863
     20  CB        62.2530  135.6580  357.3140 C.3   118  THR118      0.1794
     21  OG1       61.7830  135.8850  358.6440 O.3   118  THR118     -0.2208
     22  CG2       61.0990  135.7510  356.3150 C.3   118  THR118      0.0378
     23  N         64.8580  134.0810  352.3820 N.3   120  PHE120     -0.1241
     24  CA        65.3350  135.1270  351.4920 C.3   120  PHE120      0.1605
     25  C         64.6780  135.0670  350.0930 C.2   120  PHE120      0.2264
     26  O         64.2440  136.1090  349.5960 O.2   120  PHE120     -0.2867
     27  CB        66.8760  135.0310  351.4360 C.3   120  PHE120      0.0534
     28  CG        67.6500  135.8200  350.4020 C.ar  120  PHE120     -0.0203
     29  CD1       67.5610  137.2080  350.3500 C.ar  120  PHE120     -0.0042
     30  CD2       68.5430  135.1820  349.5450 C.ar  120  PHE120     -0.0042
     31  CE1       68.3190  137.9390  349.4270 C.ar  120  PHE120     -0.0003
     32  CE2       69.2980  135.9140  348.6200 C.ar  120  PHE120     -0.0003
     33  CZ        69.1810  137.2870  348.5660 C.ar  120  PHE120     -0.0000
     34  N         61.2240  136.5080  350.2080 N.3   123  LEU123     -0.1245
     35  CA        61.2300  137.9200  350.6140 C.3   123  LEU123      0.1561
     36  C         61.2530  138.8210  349.3660 C.2   123  LEU123      0.2260
     37  O         60.4540  139.7510  349.2650 O.2   123  LEU123     -0.2867
     38  CB        62.4740  138.2320  351.4960 C.3   123  LEU123      0.0270
     39  CG        62.3360  138.1800  353.0320 C.3   123  LEU123      0.0019
     40  CD1       63.6700  137.8380  353.6900 C.3   123  LEU123      0.0001
     41  CD2       61.8350  139.5030  353.5920 C.3   123  LEU123      0.0001
     42  N         58.5790  142.2450  349.1100 N.3   127  LEU127     -0.1245
     43  CA        59.3180  143.3280  349.7540 C.3   127  LEU127      0.1561
     44  C         59.0880  144.7010  349.1180 C.2   127  LEU127      0.2260
     45  O         59.0450  144.8260  347.8950 O.2   127  LEU127     -0.2867
     46  CB        60.7920  142.9670  349.7200 C.3   127  LEU127      0.0270
     47  CG        61.7100  143.6710  350.6570 C.3   127  LEU127      0.0019
     48  CD1       61.8390  142.9050  351.9740 C.3   127  LEU127      0.0001
     49  CD2       63.0320  143.7460  350.0380 C.3   127  LEU127      0.0001
     50  N         63.1120  147.9890  352.4430 N.3   132  ILE132     -0.1245
     51  CA        64.5380  148.1210  352.1210 C.3   132  ILE132      0.1561
     52  C         65.1560  149.2670  352.9420 C.2   132  ILE132      0.2260
     53  O         66.2150  149.0600  353.5100 O.2   132  ILE132     -0.2867
     54  CB        64.8050  148.2310  350.5870 C.3   132  ILE132      0.0252
     55  CG1       64.3410  146.9300  349.8770 C.3   132  ILE132      0.0019
     56  CG2       66.2980  148.5200  350.2840 C.3   132  ILE132      0.0019
     57  CD1       64.3970  146.9460  348.4220 C.3   132  ILE132      0.0001
     58  N         65.4160  147.9710  356.8180 N.3   135  TYR135     -0.1227
     59  CA        66.5040  147.0300  357.1080 C.3   135  TYR135      0.1736
     60  C         67.8930  147.6380  356.8190 C.2   135  TYR135      0.2595
     61  O         68.8270  147.3360  357.5590 O.2   135  TYR135     -0.2718
     62  CB        66.2920  145.6870  356.4210 C.3   135  TYR135      0.0548
     63  CG        65.1270  144.9260  357.0150 C.ar  135  TYR135     -0.0200
     64  CD1       65.1210  144.5580  358.3610 C.ar  135  TYR135     -0.0009
     65  CD2       64.0480  144.5380  356.2270 C.ar  135  TYR135     -0.0009
     66  CE1       64.0420  143.8790  358.9200 C.ar  135  TYR135      0.0417
     67  CE2       62.9690  143.8450  356.7730 C.ar  135  TYR135      0.0417
     68  CZ        62.9730  143.5160  358.1230 C.ar  135  TYR135      0.1957
     69  OH        61.9290  142.8250  358.6820 O.3   135  TYR135     -0.2866
     70  N         68.0110  148.5380  355.7990 N.am  136  MET136     -0.1979
     71  CA        69.2670  149.2550  355.5160 C.3   136  MET136      0.1605
     72  C         69.6750  150.0650  356.7610 C.2   136  MET136      0.2287
     73  O         70.8390  150.0030  357.1790 O.2   136  MET136     -0.2864
     74  CB        69.1670  150.1960  354.2960 C.3   136  MET136      0.0413
     75  CG        69.3680  149.5280  352.9620 C.3   136  MET136      0.0598
     76  SD        70.9410  148.6570  352.7640 S.3   136  MET136     -0.1393
     77  CE        72.0090  150.0930  352.7950 C.3   136  MET136      0.0692
     78  N         71.0210  147.8390  359.5990 N.3   139  ILE139     -0.1245
     79  CA        72.3960  147.4000  359.3220 C.3   139  ILE139      0.1561
     80  C         73.3980  148.5190  359.6980 C.2   139  ILE139      0.2260
     81  O         74.4580  148.2360  360.2490 O.2   139  ILE139     -0.2867
     82  CB        72.5580  146.9570  357.8090 C.3   139  ILE139      0.0252
     83  CG1       71.7400  145.6750  357.5240 C.3   139  ILE139      0.0019
     84  CG2       74.0620  146.6990  357.4690 C.3   139  ILE139      0.0019
     85  CD1       71.5410  145.3210  356.0820 C.3   139  ILE139      0.0001
     86  N         74.7320  139.6010  352.2270 N.3   158  PRO158     -0.2102
     87  CA        73.3960  139.1070  352.6480 C.3   158  PRO158      0.1504
     88  C         73.4180  137.8700  353.5240 C.2   158  PRO158      0.2575
     89  O         72.5810  137.7790  354.4010 O.2   158  PRO158     -0.2718
     90  CB        72.6560  138.8610  351.3100 C.3   158  PRO158      0.0282
     91  CG        73.3700  139.6920  350.3160 C.3   158  PRO158      0.0208
     92  CD        74.8040  139.7050  350.7450 C.3   158  PRO158      0.0893
     93  N         74.3750  136.9510  353.3300 N.am  159  HIS159     -0.1976
     94  CA        74.4980  135.7540  354.1660 C.3   159  HIS159      0.1656
     95  C         74.8140  136.0890  355.6330 C.2   159  HIS159      0.2291
     96  O         74.4300  135.3280  356.5270 O.2   159  HIS159     -0.2864
     97  CB        75.5610  134.7870  353.6130 C.3   159  HIS159      0.0771
     98  CG        75.4820  133.4290  354.2390 C.ar  159  HIS159      0.0820
     99  ND1       74.6450  132.4660  353.7340 N.ar  159  HIS159     -0.2267
    100  CD2       76.0930  132.9410  355.3450 C.ar  159  HIS159      0.1154
    101  CE1       74.7920  131.4080  354.5150 C.ar  159  HIS159      0.1986
    102  NE2       75.6230  131.6570  355.5220 N.ar  159  HIS159     -0.2212
    103  N         73.7260  138.8440  357.2580 N.3   161  VAL161     -0.1231
    104  CA        72.6650  139.6930  357.7920 C.3   161  VAL161      0.1692
    105  C         71.4670  138.7640  357.9830 C.2   161  VAL161      0.2592
    106  O         70.9270  138.2900  356.9950 O.2   161  VAL161     -0.2718
    107  CB        72.3250  140.9200  356.8990 C.3   161  VAL161      0.0266
    108  CG1       71.1440  141.6960  357.4750 C.3   161  VAL161      0.0020
    109  CG2       73.5330  141.8510  356.7450 C.3   161  VAL161      0.0020
    110  N         71.0920  138.4570  359.2530 N.am  162  MET162     -0.1965
    111  CA        69.9330  137.5920  359.5360 C.3   162  MET162      0.1736
    112  C         68.6920  138.4210  359.8690 C.2   162  MET162      0.2616
    113  O         68.7730  139.3700  360.6610 O.2   162  MET162     -0.2715
    114  CB        70.2180  136.5890  360.6460 C.3   162  MET162      0.0427
    115  CG        71.1730  135.5010  360.2240 C.3   162  MET162      0.0599
    116  SD        71.4070  134.3160  361.5740 S.3   162  MET162     -0.1393
    117  CE        70.1310  133.1470  361.2030 C.3   162  MET162      0.0692
    118  N         67.5500  138.0650  359.2600 N.am  163  ILE163     -0.1977
    119  CA        66.3030  138.8080  359.4350 C.3   163  ILE163      0.1596
    120  C         65.1350  137.9030  359.8390 C.2   163  ILE163      0.2287
    121  O         64.8650  136.8980  359.1880 O.2   163  ILE163     -0.2864
    122  CB        65.9680  139.6500  358.1670 C.3   163  ILE163      0.0276
    123  CG1       67.0280  140.7430  357.9230 C.3   163  ILE163      0.0022
    124  CG2       64.5460  140.2350  358.2100 C.3   163  ILE163      0.0022
    125  CD1       67.0590  141.3060  356.5380 C.3   163  ILE163      0.0001
    126  N         75.8260  139.0190  361.7470 N.3   173  ILE173     -0.1245
    127  CA        76.5130  137.7990  362.2150 C.3   173  ILE173      0.1561
    128  C         77.9030  137.5980  361.6000 C.2   173  ILE173      0.2260
    129  O         78.3600  138.3960  360.7730 O.2   173  ILE173     -0.2867
    130  CB        75.6100  136.5390  361.9790 C.3   173  ILE173      0.0252
    131  CG1       75.4360  136.2360  360.4680 C.3   173  ILE173      0.0019
    132  CG2       74.2920  136.6300  362.7100 C.3   173  ILE173      0.0019
    133  CD1       75.2070  134.7480  360.1740 C.3   173  ILE173      0.0001
    134  N         75.1720  145.5760  348.4600 N.3   220  MET220     -0.1230
    135  CA        73.9150  144.9860  348.9180 C.3   220  MET220      0.1702
    136  C         72.7410  145.8530  348.5570 C.2   220  MET220      0.2592
    137  O         71.6880  145.3250  348.2040 O.2   220  MET220     -0.2718
    138  CB        73.9140  144.8010  350.4420 C.3   220  MET220      0.0401
    139  CG        74.5010  143.4720  350.8530 C.3   220  MET220      0.0596
    140  SD        74.5380  143.1510  352.6290 S.3   220  MET220     -0.1393
    141  CE        73.8250  144.6060  353.2740 C.3   220  MET220      0.0692
    142  N         72.8780  147.1770  348.7210 N.am  221  LEU221     -0.1980
    143  CA        71.7640  148.0710  348.4100 C.3   221  LEU221      0.1596
    144  C         71.4790  148.0550  346.8980 C.2   221  LEU221      0.2287
    145  O         70.3240  147.9000  346.5140 O.2   221  LEU221     -0.2864
    146  CB        72.0080  149.4870  348.9380 C.3   221  LEU221      0.0297
    147  CG        71.0320  150.5750  348.4630 C.3   221  LEU221      0.0022
    148  CD1       69.6860  150.4600  349.1430 C.3   221  LEU221      0.0001
    149  CD2       71.6220  151.9510  348.6610 C.3   221  LEU221      0.0001
    150  N         69.6270  144.9570  345.9350 N.3   224  MET224     -0.1245
    151  CA        68.2470  144.9890  346.4140 C.3   224  MET224      0.1570
    152  C         67.3440  145.9080  345.6070 C.2   224  MET224      0.2261
    153  O         66.2530  145.4810  345.1970 O.2   224  MET224     -0.2867
    154  CB        68.1820  145.4060  347.8990 C.3   224  MET224      0.0387
    155  CG        68.5170  144.2940  348.8610 C.3   224  MET224      0.0595
    156  SD        67.6510  142.7060  348.6510 S.3   224  MET224     -0.1393
    157  CE        66.0010  143.1920  348.9290 C.3   224  MET224      0.0692
@<TRIPOS>BOND
     1   153   152    2
     2   152   151    1
     3   150   151    1
     4   151   154    1
     5   145   144    2
     6   144   143    1
     7    45    44    2
     8   154   155    1
     9   137   136    2
    10   143   142    1
    11   143   146    1
    12    57    55    1
    13   134   135    1
    14   147   149    1
    15   147   146    1
    16   147   148    1
    17   136   142   am
    18   136   135    1
    19    33    32   ar
    20    33    31   ar
    21    32    30   ar
    22   156   155    1
    23   156   157    1
    24   135   138    1
    25    42    43    1
    26    44    43    1
    27    37    36    2
    28    36    35    1
    29    31    29   ar
    30    30    28   ar
    31    26    25    2
    32    46    43    1
    33    46    47    1
    34    55    54    1
    35    49    47    1
    36    25    24    1
    37    34    35    1
    38    56    54    1
    39    91    92    1
    40    91    90    1
    41    29    28   ar
    42    28    27    1
    43   138   139    1
    44    54    51    1
    45    35    38    1
    46    47    48    1
    47    92    86    1
    48   139   140    1
    49    90    87    1
    50    27    24    1
    51    24    23    1
    52    38    39    1
    53    51    50    1
    54    51    52    1
    55    86    87    1
    56   140   141    1
    57    87    88    1
    58    76    77    1
    59    76    75    1
    60    52    53    2
    61    75    74    1
    62    39    41    1
    63    39    40    1
    64    93    88   am
    65    93    94    1
    66    88    89    2
    67    97    94    1
    68    97    98    1
    69    99    98   ar
    70    99   101   ar
    71    94    95    1
    72    98   100   ar
    73    74    71    1
    74   101   102   ar
    75   100   102   ar
    76    71    70    1
    77    71    72    1
    78    95    96    2
    79    19    18    2
    80    70    60   am
    81    18    17    1
    82    85    83    1
    83    65    67   ar
    84    65    63   ar
    85    22    20    1
    86    62    63    1
    87    62    59    1
    88   125   123    1
    89    15    13   am
    90   109   107    1
    91    72    73    2
    92    67    68   ar
    93    58    59    1
    94    60    59    1
    95    60    61    2
    96   107   108    1
    97   107   104    1
    98   106   105    2
    99    63    64   ar
   100   103   104    1
   101    17    20    1
   102    17    16    1
   103    20    21    1
   104    84    82    1
   105    83    82    1
   106   104   105    1
   107    13    14    2
   108    13    12    1
   109    82    79    1
   110   123   122    1
   111   105   110   am
   112    68    69    1
   113    68    66   ar
   114   122   124    1
   115   122   119    1
   116    16    10   am
   117    64    66   ar
   118    11    10    2
   119    10     9    1
   120    12     9    1
   121   121   120    2
   122   110   111    1
   123   118   119    1
   124   118   112   am
   125    79    78    1
   126    79    80    1
   127   119   120    1
   128   111   112    1
   129   111   114    1
   130     9     8    1
   131    80    81    2
   132   112   113    2
   133   133   131    1
   134   115   114    1
   135   115   116    1
   136   131   130    1
   137   129   128    2
   138   117   116    1
   139     7     5    1
   140     1     2    1
   141   128   127    1
   142     5     2    1
   143     5     6    1
   144     4     3    2
   145   126   127    1
   146   130   127    1
   147   130   132    1
   148     2     3    1
