@<TRIPOS>MOLECULE
tmp/5cu0A02.pdb
 113 106 0 0 0
SMALL
GASTEIGER

@<TRIPOS>ATOM
      1  N         72.4360  123.9110  360.5170 N.3    44  LEU44      -0.1245
      2  CA        71.8950  125.0890  359.8150 C.3    44  LEU44       0.1561
      3  C         72.6390  125.3740  358.5220 C.2    44  LEU44       0.2260
      4  O         72.0310  125.8390  357.5550 O.2    44  LEU44      -0.2867
      5  CB        71.9010  126.3550  360.6950 C.3    44  LEU44       0.0270
      6  CG        70.9290  126.4100  361.8690 C.3    44  LEU44       0.0019
      7  CD1       70.9390  127.7830  362.4940 C.3    44  LEU44       0.0001
      8  CD2       69.5330  126.0930  361.4280 C.3    44  LEU44       0.0001
      9  N         77.5270  125.1190  361.5720 N.3    52  VAL52      -0.1245
     10  CA        76.5080  125.8170  362.3450 C.3    52  VAL52       0.1561
     11  C         75.3220  124.9030  362.6190 C.2    52  VAL52       0.2260
     12  O         74.8720  124.1810  361.7300 O.2    52  VAL52      -0.2867
     13  CB        76.1310  127.1610  361.6810 C.3    52  VAL52       0.0252
     14  CG1       75.1410  127.9540  362.5310 C.3    52  VAL52       0.0019
     15  CG2       77.3780  127.9900  361.4170 C.3    52  VAL52       0.0019
     16  N         72.0120  129.0050  368.8970 N.3    65  VAL65      -0.1245
     17  CA        72.7520  128.6490  367.7020 C.3    65  VAL65       0.1561
     18  C         74.1870  128.3100  368.1750 C.2    65  VAL65       0.2260
     19  O         74.7870  129.0880  368.9180 O.2    65  VAL65      -0.2867
     20  CB        72.7290  129.7610  366.6350 C.3    65  VAL65       0.0252
     21  CG1       73.7360  129.4650  365.5270 C.3    65  VAL65       0.0019
     22  CG2       71.3120  129.9490  366.0620 C.3    65  VAL65       0.0019
     23  N         77.9750  127.3860  366.8010 N.3    67  LYS67      -0.1245
     24  CA        78.8690  127.4270  365.6540 C.3    67  LYS67       0.1561
     25  C         80.1610  126.7160  366.0500 C.2    67  LYS67       0.2260
     26  O         80.9630  127.2730  366.8060 O.2    67  LYS67      -0.2867
     27  CB        79.1170  128.8850  365.2600 C.3    67  LYS67       0.0271
     28  CG        80.0440  129.1370  364.0740 C.3    67  LYS67       0.0035
     29  CD        80.3750  130.5720  364.1250 C.3    67  LYS67       0.0206
     30  CE        81.2380  131.0490  363.0170 C.3    67  LYS67       0.1093
     31  NZ        81.5630  132.4690  363.2630 N.3    67  LYS67      -0.1314
     32  N         87.9560  136.5770  367.1460 N.3    80  GLU80      -0.1245
     33  CA        86.5030  136.5190  366.9970 C.3    80  GLU80       0.1567
     34  C         85.8360  136.5890  368.3690 C.2    80  GLU80       0.2260
     35  O         84.9210  137.4050  368.5650 O.2    80  GLU80      -0.2867
     36  CB        86.0780  135.2640  366.2260 C.3    80  GLU80       0.0388
     37  CG        84.5730  135.2440  365.9980 C.3    80  GLU80       0.1160
     38  CD        84.0060  134.1740  365.1010 C.2    80  GLU80       0.3649
     39  OE1       84.7800  133.3350  364.5790 O.co2  80  GLU80      -0.2457
     40  OE2       82.7660  134.1850  364.9100 O.co2  80  GLU80      -0.2457
     41  N         74.8140  140.2980  366.7440 N.3    94  ILE94      -0.1245
     42  CA        74.5230  138.9630  367.2810 C.3    94  ILE94       0.1561
     43  C         75.1010  138.8530  368.6900 C.2    94  ILE94       0.2260
     44  O         76.2270  139.2990  368.9260 O.2    94  ILE94      -0.2867
     45  CB        75.0530  137.8380  366.3380 C.3    94  ILE94       0.0252
     46  CG1       74.3840  136.4800  366.6490 C.3    94  ILE94       0.0019
     47  CG2       76.5800  137.7380  366.3170 C.3    94  ILE94       0.0019
     48  CD1       72.8870  136.4720  366.4070 C.3    94  ILE94       0.0001
     49  N         75.4480  131.3410  370.3440 N.3   112  PHE112     -0.1227
     50  CA        74.7600  132.6030  370.1240 C.3   112  PHE112      0.1736
     51  C         73.2870  132.5040  370.4610 C.2   112  PHE112      0.2595
     52  O         72.7060  131.4180  370.4370 O.2   112  PHE112     -0.2718
     53  CB        74.8760  133.0330  368.6370 C.3   112  PHE112      0.0547
     54  CG        76.2760  133.2250  368.1150 C.ar  112  PHE112     -0.0202
     55  CD1       76.9530  134.4200  368.3210 C.ar  112  PHE112     -0.0042
     56  CD2       76.9310  132.2020  367.4350 C.ar  112  PHE112     -0.0042
     57  CE1       78.2610  134.5900  367.8690 C.ar  112  PHE112     -0.0003
     58  CE2       78.2410  132.3690  366.9820 C.ar  112  PHE112     -0.0003
     59  CZ        78.9020  133.5630  367.2070 C.ar  112  PHE112     -0.0000
     60  N         72.6670  133.6840  370.6730 N.am  113  GLU113     -0.1979
     61  CA        71.2210  133.8930  370.8000 C.3   113  GLU113      0.1602
     62  C         70.6320  133.3920  369.4790 C.2   113  GLU113      0.2287
     63  O         71.2610  133.5550  368.4070 O.2   113  GLU113     -0.2864
     64  CB        70.9090  135.4080  370.8790 C.3   113  GLU113      0.0415
     65  CG        71.5280  136.2130  369.7240 C.3   113  GLU113      0.1163
     66  CD        70.8120  137.4740  369.2810 C.2   113  GLU113      0.3649
     67  OE1       69.6010  137.4040  368.9670 O.co2 113  GLU113     -0.2457
     68  OE2       71.4810  138.5270  369.1950 O.co2 113  GLU113     -0.2457
     69  N         68.1220  133.2780  366.2220 N.3   115  VAL115     -0.1245
     70  CA        67.4800  134.1680  365.2490 C.3   115  VAL115      0.1561
     71  C         66.7630  133.2620  364.2620 C.2   115  VAL115      0.2260
     72  O         67.4030  132.4140  363.6470 O.2   115  VAL115     -0.2867
     73  CB        68.4510  135.1350  364.4970 C.3   115  VAL115      0.0252
     74  CG1       67.6930  136.0090  363.4940 C.3   115  VAL115      0.0019
     75  CG2       69.2520  136.0070  365.4610 C.3   115  VAL115      0.0019
     76  N         71.0920  138.4570  359.2530 N.3   162  MET162     -0.1245
     77  CA        69.9330  137.5920  359.5360 C.3   162  MET162      0.1570
     78  C         68.6920  138.4210  359.8690 C.2   162  MET162      0.2261
     79  O         68.7730  139.3700  360.6610 O.2   162  MET162     -0.2867
     80  CB        70.2180  136.5890  360.6460 C.3   162  MET162      0.0387
     81  CG        71.1730  135.5010  360.2240 C.3   162  MET162      0.0595
     82  SD        71.4070  134.3160  361.5740 S.3   162  MET162     -0.1393
     83  CE        70.1310  133.1470  361.2030 C.3   162  MET162      0.0692
     84  N         75.8260  139.0190  361.7470 N.3   173  ILE173     -0.1231
     85  CA        76.5130  137.7990  362.2150 C.3   173  ILE173      0.1692
     86  C         77.9030  137.5980  361.6000 C.2   173  ILE173      0.2592
     87  O         78.3600  138.3960  360.7730 O.2   173  ILE173     -0.2718
     88  CB        75.6100  136.5390  361.9790 C.3   173  ILE173      0.0266
     89  CG1       75.4360  136.2360  360.4680 C.3   173  ILE173      0.0019
     90  CG2       74.2920  136.6300  362.7100 C.3   173  ILE173      0.0020
     91  CD1       75.2070  134.7480  360.1740 C.3   173  ILE173      0.0001
     92  N         78.5600  136.5030  362.0190 N.am  174  ASP174     -0.1960
     93  CA        79.8880  136.0220  361.5740 C.3   174  ASP174      0.1840
     94  C         81.0020  137.0660  361.5590 C.2   174  ASP174      0.2622
     95  O         81.4160  137.5560  360.5010 O.2   174  ASP174     -0.2715
     96  CB        79.8340  135.2920  360.2250 C.3   174  ASP174      0.1450
     97  CG        81.0730  134.4260  359.9760 C.2   174  ASP174      0.3671
     98  OD1       82.0230  134.4790  360.7970 O.co2 174  ASP174     -0.2456
     99  OD2       81.0910  133.7080  358.9840 O.co2 174  ASP174     -0.2456
    100  N         81.5150  137.3240  362.7640 N.am  175  TRP175     -0.1974
    101  CA        82.5580  138.2690  363.0710 C.3   175  TRP175      0.1640
    102  C         83.9350  137.5810  363.0090 C.2   175  TRP175      0.2290
    103  O         84.9090  138.1070  363.5300 O.2   175  TRP175     -0.2864
    104  CB        82.2490  138.9210  364.4450 C.3   175  TRP175      0.0576
    105  CG        80.9720  139.7230  364.4240 C.ar  175  TRP175      0.0006
    106  CD1       79.6940  139.2430  364.5010 C.ar  175  TRP175      0.0946
    107  CD2       80.8570  141.1310  364.1950 C.ar  175  TRP175      0.0152
    108  NE1       78.7920  140.2750  364.3420 N.ar  175  TRP175     -0.2442
    109  CE2       79.4790  141.4460  364.1920 C.ar  175  TRP175      0.0810
    110  CE3       81.7960  142.1690  363.9940 C.ar  175  TRP175      0.0012
    111  CZ2       79.0100  142.7460  363.9690 C.ar  175  TRP175      0.0191
    112  CZ3       81.3330  143.4640  363.8090 C.ar  175  TRP175      0.0001
    113  CH2       79.9580  143.7390  363.7530 C.ar  175  TRP175      0.0015
@<TRIPOS>BOND
     1     4     3    2
     2     3     2    1
     3    99    97   ar
     4    76    77    1
     5    77    78    1
     6    77    80    1
     7     2     1    1
     8     2     5    1
     9    78    79    2
    10    97    96    1
    11    97    98   ar
    12    91    89    1
    13    81    80    1
    14    81    82    1
    15    96    93    1
    16    89    88    1
    17    95    94    2
    18     5     6    1
    19    87    86    2
    20    83    82    1
    21    15    13    1
    22     8     6    1
    23    94    93    1
    24    94   100   am
    25     9    10    1
    26    93    92    1
    27    86    92   am
    28    86    85    1
    29    13    10    1
    30    13    14    1
    31    12    11    2
    32    84    85    1
    33     6     7    1
    34    88    85    1
    35    88    90    1
    36    10    11    1
    37   100   101    1
    38   102   101    1
    39   102   103    2
    40    30    31    1
    41    30    29    1
    42   101   104    1
    43    74    73    1
    44    72    71    2
    45   113   112   ar
    46   113   111   ar
    47   112   110   ar
    48   111   109   ar
    49   110   107   ar
    50    28    29    1
    51    28    27    1
    52   109   107   ar
    53   109   108   ar
    54   107   105   ar
    55    71    70    1
    56   108   106   ar
    57   105   104    1
    58   105   106   ar
    59    73    70    1
    60    73    75    1
    61    39    38   ar
    62    40    38   ar
    63    38    37    1
    64    70    69    1
    65    27    24    1
    66    21    20    1
    67    24    25    1
    68    24    23    1
    69    37    36    1
    70    25    26    2
    71    22    20    1
    72    36    33    1
    73    47    45    1
    74    45    46    1
    75    45    42    1
    76    48    46    1
    77    20    17    1
    78    41    42    1
    79    58    59   ar
    80    58    56   ar
    81    33    32    1
    82    33    34    1
    83    59    57   ar
    84    42    43    1
    85    56    54   ar
    86    17    18    1
    87    17    16    1
    88    57    55   ar
    89    54    55   ar
    90    54    53    1
    91    18    19    2
    92    34    35    2
    93    63    62    2
    94    53    50    1
    95    43    44    2
    96    67    66   ar
    97    68    66   ar
    98    66    65    1
    99    62    61    1
   100    65    64    1
   101    50    49    1
   102    50    51    1
   103    52    51    2
   104    51    60   am
   105    60    61    1
   106    61    64    1
