@<TRIPOS>MOLECULE
tmp/5cu0A01.pdb
 111 103 0 0 0
SMALL
GASTEIGER

@<TRIPOS>ATOM
      1  N         79.4400  122.2730  377.7200 N.3    35  GLN35      -0.1231
      2  CA        78.9890  121.7320  376.4280 C.3    35  GLN35       0.1698
      3  C         77.6920  120.9520  376.6530 C.2    35  GLN35       0.2592
      4  O         76.7770  121.0880  375.8420 O.2    35  GLN35      -0.2718
      5  CB        80.0410  120.7830  375.8530 C.3    35  GLN35       0.0381
      6  CG        80.2730  119.5370  376.7070 C.3    35  GLN35       0.0905
      7  CD        81.3180  119.6930  377.8140 C.2    35  GLN35       0.2608
      8  OE1       81.6690  120.8030  378.2520 O.2    35  GLN35      -0.2717
      9  NE2       81.8490  118.5580  378.2880 N.am   35  GLN35      -0.0878
     10  N         77.5930  120.1980  377.8010 N.am   36  ASP36      -0.1974
     11  CA        76.4660  119.3660  378.2140 C.3    36  ASP36       0.1709
     12  C         75.1760  120.1450  378.4580 C.2    36  ASP36       0.2293
     13  O         74.1070  119.5510  378.4890 O.2    36  ASP36      -0.2864
     14  CB        76.8240  118.4980  379.4310 C.3    36  ASP36       0.1436
     15  CG        77.8990  117.4740  379.1370 C.2    36  ASP36       0.3671
     16  OD1       78.2430  117.2870  377.9340 O.co2  36  ASP36      -0.2456
     17  OD2       78.3640  116.8180  380.0870 O.co2  36  ASP36      -0.2456
     18  N         73.9420  122.0030  376.2940 N.3    38  TYR38      -0.1227
     19  CA        73.4440  122.1430  374.9250 C.3    38  TYR38       0.1736
     20  C         73.2140  120.8240  374.2250 C.2    38  TYR38       0.2595
     21  O         74.0550  119.9310  374.2500 O.2    38  TYR38      -0.2718
     22  CB        74.3790  123.0640  374.0990 C.3    38  TYR38       0.0548
     23  CG        74.6080  124.4030  374.7860 C.ar   38  TYR38      -0.0200
     24  CD1       73.6410  125.4030  374.7500 C.ar   38  TYR38      -0.0009
     25  CD2       75.7580  124.6370  375.5390 C.ar   38  TYR38      -0.0009
     26  CE1       73.8090  126.6040  375.4530 C.ar   38  TYR38       0.0417
     27  CE2       75.9400  125.8410  376.2390 C.ar   38  TYR38       0.0417
     28  CZ        74.9680  126.8270  376.1780 C.ar   38  TYR38       0.1957
     29  OH        75.1410  128.0180  376.8400 O.3    38  TYR38      -0.2866
     30  N         72.0320  120.6990  373.6360 N.am   39  GLN39      -0.1965
     31  CA        71.6190  119.5510  372.8440 C.3    39  GLN39       0.1733
     32  C         71.4470  120.0400  371.4100 C.2    39  GLN39       0.2616
     33  O         70.6270  120.9180  371.1550 O.2    39  GLN39      -0.2715
     34  CB        70.3050  118.9640  373.3830 C.3    39  GLN39       0.0408
     35  CG        70.3300  117.4410  373.5150 C.3    39  GLN39       0.0908
     36  CD        69.0310  116.9060  374.0870 C.2    39  GLN39       0.2608
     37  OE1       67.9940  116.8540  373.4070 O.2    39  GLN39      -0.2717
     38  NE2       69.0580  116.4820  375.3490 N.am   39  GLN39      -0.0878
     39  N         72.2730  119.5290  370.4990 N.am   40  LEU40      -0.1977
     40  CA        72.2270  119.8570  369.0660 C.3    40  LEU40       0.1596
     41  C         70.9690  119.2770  368.4010 C.2    40  LEU40       0.2287
     42  O         70.6510  118.0970  368.5770 O.2    40  LEU40      -0.2864
     43  CB        73.5090  119.3790  368.3430 C.3    40  LEU40       0.0297
     44  CG        74.8140  119.9960  368.8120 C.3    40  LEU40       0.0022
     45  CD1       75.9470  119.4970  367.9740 C.3    40  LEU40       0.0001
     46  CD2       74.7600  121.5290  368.7640 C.3    40  LEU40       0.0001
     47  N         69.2990  123.1470  377.5280 N.3    58  ILE58      -0.1245
     48  CA        68.4660  122.2840  378.3810 C.3    58  ILE58       0.1561
     49  C         68.3520  122.7910  379.8530 C.2    58  ILE58       0.2260
     50  O         67.6970  122.1440  380.6700 O.2    58  ILE58      -0.2867
     51  CB        68.9170  120.7850  378.3070 C.3    58  ILE58       0.0252
     52  CG1       70.3760  120.5920  378.7910 C.3    58  ILE58       0.0019
     53  CG2       68.6980  120.2140  376.8960 C.3    58  ILE58       0.0019
     54  CD1       70.8020  119.1740  379.1040 C.3    58  ILE58       0.0001
     55  N         74.7060  127.1450  367.7740 N.3    66  VAL66      -0.1245
     56  CA        76.0460  126.6770  368.1130 C.3    66  VAL66       0.1561
     57  C         76.8760  126.6240  366.8350 C.2    66  VAL66       0.2260
     58  O         76.5380  125.8750  365.9180 O.2    66  VAL66      -0.2867
     59  CB        76.0310  125.2920  368.8130 C.3    66  VAL66       0.0252
     60  CG1       77.4570  124.8290  369.1330 C.3    66  VAL66       0.0019
     61  CG2       75.1690  125.3310  370.0790 C.3    66  VAL66       0.0019
     62  N         80.3300  125.4770  365.5720 N.3    68  ILE68      -0.1245
     63  CA        81.5050  124.6360  365.8530 C.3    68  ILE68       0.1561
     64  C         82.6510  125.0700  364.9190 C.2    68  ILE68       0.2260
     65  O         82.4690  125.0860  363.7040 O.2    68  ILE68      -0.2867
     66  CB        81.1340  123.1240  365.7270 C.3    68  ILE68       0.0252
     67  CG1       80.1470  122.7020  366.8440 C.3    68  ILE68       0.0019
     68  CG2       82.3760  122.2440  365.7380 C.3    68  ILE68       0.0019
     69  CD1       79.3900  121.4180  366.5980 C.3    68  ILE68       0.0001
     70  N         81.9150  127.1640  374.3090 N.3   100  VAL100     -0.1231
     71  CA        82.0800  125.8110  374.8720 C.3   100  VAL100      0.1692
     72  C         83.1030  124.9750  374.0980 C.2   100  VAL100      0.2592
     73  O         83.4400  125.3130  372.9610 O.2   100  VAL100     -0.2718
     74  CB        80.7290  125.0470  375.0640 C.3   100  VAL100      0.0266
     75  CG1       79.7750  125.7870  376.0200 C.3   100  VAL100      0.0020
     76  CG2       80.0440  124.7010  373.7360 C.3   100  VAL100      0.0020
     77  N         83.5960  123.8770  374.7160 N.am  101  LYS101     -0.1966
     78  CA        84.5540  122.9620  374.1100 C.3   101  LYS101      0.1728
     79  C         84.0900  121.5110  374.2030 C.2   101  LYS101      0.2616
     80  O         83.4530  121.1090  375.1790 O.2   101  LYS101     -0.2715
     81  CB        85.9360  123.1020  374.7500 C.3   101  LYS101      0.0311
     82  CG        87.0620  122.7830  373.7700 C.3   101  LYS101      0.0038
     83  CD        88.4110  122.7120  374.4500 C.3   101  LYS101      0.0206
     84  CE        89.5320  122.4280  373.4770 C.3   101  LYS101      0.1093
     85  NZ        90.8570  122.5160  374.1450 N.3   101  LYS101     -0.1314
     86  N         84.4340  120.7320  373.1710 N.am  102  ASP102     -0.1971
     87  CA        84.1840  119.3090  373.0950 C.3   102  ASP102      0.1709
     88  C         85.5230  118.6550  373.4700 C.2   102  ASP102      0.2293
     89  O         86.4820  118.7270  372.6920 O.2   102  ASP102     -0.2864
     90  CB        83.7260  118.8890  371.6780 C.3   102  ASP102      0.1436
     91  CG        83.3430  117.4190  371.5490 C.2   102  ASP102      0.3671
     92  OD1       83.2080  116.7360  372.6000 O.co2 102  ASP102     -0.2456
     93  OD2       83.1460  116.9600  370.4040 O.co2 102  ASP102     -0.2456
     94  N         86.9170  115.5400  370.8480 N.3   105  SER105     -0.1217
     95  CA        87.3830  115.9990  369.5350 C.3   105  SER105      0.1889
     96  C         88.3750  117.1520  369.6670 C.2   105  SER105      0.2288
     97  O         89.1230  117.4030  368.7190 O.2   105  SER105     -0.2866
     98  CB        86.2010  116.4290  368.6730 C.3   105  SER105      0.2089
     99  OG        85.5300  117.5330  369.2560 O.3   105  SER105     -0.2183
    100  N         87.5910  120.5560  370.1670 N.3   107  THR107     -0.1218
    101  CA        87.0030  121.5100  369.2290 C.3   107  THR107      0.1862
    102  C         86.2550  122.6400  369.9430 C.2   107  THR107      0.2287
    103  O         85.3580  122.3550  370.7380 O.2   107  THR107     -0.2866
    104  CB        86.0610  120.7750  368.2410 C.3   107  THR107      0.1770
    105  OG1       86.7550  119.7020  367.6170 O.3   107  THR107     -0.2211
    106  CG2       85.5390  121.6720  367.1700 C.3   107  THR107      0.0375
    107  N         83.5230  125.8500  370.2250 N.3   109  ALA109     -0.1245
    108  CA        82.2130  126.2030  369.7110 C.3   109  ALA109      0.1562
    109  C         81.7370  127.5310  370.3310 C.2   109  ALA109      0.2260
    110  O         81.9340  127.7790  371.5220 O.2   109  ALA109     -0.2867
    111  CB        81.2080  125.0980  369.9810 C.3   109  ALA109      0.0290
@<TRIPOS>BOND
     1    65    64    2
     2    64    63    1
     3    62    63    1
     4    66    68    1
     5    66    63    1
     6    66    67    1
     7    58    57    2
     8    69    67    1
     9    57    56    1
    10   106   104    1
    11   105   104    1
    12    55    56    1
    13    45    44    1
    14    56    59    1
    15   104   101    1
    16    43    44    1
    17    43    40    1
    18    41    42    2
    19    41    40    1
    20    98    99    1
    21    98    95    1
    22    97    96    2
    23    46    44    1
    24    59    60    1
    25    59    61    1
    26    40    39    1
    27   101   102    1
    28   101   100    1
    29    95    96    1
    30    95    94    1
    31   108   111    1
    32   108   107    1
    33   108   109    1
    34   102   103    2
    35   109   110    2
    36    93    91   ar
    37    39    32   am
    38    33    32    2
    39    32    31    1
    40    91    90    1
    41    91    92   ar
    42    90    87    1
    43    89    88    2
    44    31    34    1
    45    31    30    1
    46    73    72    2
    47    87    86    1
    48    87    88    1
    49    86    79   am
    50    34    35    1
    51    37    36    2
    52    84    85    1
    53    84    83    1
    54    35    36    1
    55    30    20   am
    56    76    74    1
    57    82    83    1
    58    82    81    1
    59    36    38   am
    60    72    77   am
    61    72    71    1
    62    22    23    1
    63    22    19    1
    64    78    79    1
    65    78    77    1
    66    78    81    1
    67    79    80    2
    68    20    21    2
    69    20    19    1
    70    70    71    1
    71    24    23   ar
    72    24    26   ar
    73    23    25   ar
    74    71    74    1
    75    19    18    1
    76    74    75    1
    77    26    28   ar
    78    25    27   ar
    79     4     3    2
    80     5     2    1
    81     5     6    1
    82    28    27   ar
    83    28    29    1
    84     2     3    1
    85     2     1    1
    86     3    10   am
    87     6     7    1
    88    53    51    1
    89    47    48    1
    90    10    11    1
    91     7     8    2
    92     7     9   am
    93    16    15   ar
    94    11    12    1
    95    11    14    1
    96    51    48    1
    97    51    52    1
    98    48    49    1
    99    12    13    2
   100    52    54    1
   101    15    14    1
   102    15    17   ar
   103    49    50    2
