@<TRIPOS>MOLECULE
tmp/5cu2B00.pdb
 199 188 0 0 0
SMALL
GASTEIGER

@<TRIPOS>ATOM
      1  N         14.0380  161.6600  392.6480 N.3    43  LEU43      -0.1231
      2  CA        12.8980  162.2230  393.3570 C.3    43  LEU43       0.1693
      3  C         12.5240  161.3940  394.5910 C.2    43  LEU43       0.2593
      4  O         12.0250  161.9470  395.5730 O.2    43  LEU43      -0.2718
      5  CB        11.7020  162.3260  392.4090 C.3    43  LEU43       0.0284
      6  CG        11.7570  163.3410  391.2700 C.3    43  LEU43       0.0019
      7  CD1       10.4670  163.3120  390.4550 C.3    43  LEU43       0.0001
      8  CD2       11.9690  164.7420  391.7950 C.3    43  LEU43       0.0001
      9  N         12.7350  160.0820  394.5200 N.am   44  GLY44      -0.1942
     10  CA        12.4000  159.1800  395.6140 C.3    44  GLY44       0.2014
     11  C         12.5790  157.7200  395.2740 C.2    44  GLY44       0.2638
     12  O         12.9690  157.3820  394.1520 O.2    44  GLY44      -0.2714
     13  N         12.3020  156.8470  396.2650 N.am   45  ARG45      -0.1977
     14  CA        12.4350  155.3900  396.1750 C.3    45  ARG45       0.1597
     15  C         11.1970  154.7010  396.7340 C.2    45  ARG45       0.2287
     16  O         10.6060  155.1720  397.7090 O.2    45  ARG45      -0.2864
     17  CB        13.6430  154.9060  397.0060 C.3    45  ARG45       0.0334
     18  CG        15.0060  155.1480  396.4010 C.3    45  ARG45       0.0492
     19  CD        16.0560  154.7260  397.4040 C.3    45  ARG45       0.2205
     20  NE        17.3920  155.1940  397.0530 N.pl3  45  ARG45      -0.0865
     21  CZ        18.4710  155.0280  397.8130 C.cat  45  ARG45       0.5346
     22  NH1       18.3810  154.3940  398.9770 N.pl3  45  ARG45       0.1354
     23  NH2       19.6480  155.4930  397.4150 N.pl3  45  ARG45       0.1354
     24  N         12.3680  156.7060  391.4090 N.3    51  VAL51      -0.1245
     25  CA        11.7130  157.7240  390.5830 C.3    51  VAL51       0.1561
     26  C         12.6880  158.8700  390.3540 C.2    51  VAL51       0.2260
     27  O         13.3200  159.3290  391.3050 O.2    51  VAL51      -0.2867
     28  CB        10.3970  158.1880  391.2460 C.3    51  VAL51       0.0252
     29  CG1        9.7390  159.3180  390.4700 C.3    51  VAL51       0.0019
     30  CG2        9.4200  157.0180  391.4270 C.3    51  VAL51       0.0019
     31  N          8.7610  162.3280  384.2920 N.3    64  VAL64      -0.1245
     32  CA         9.1570  161.5930  385.4710 C.3    64  VAL64       0.1561
     33  C          9.3770  160.1720  384.9720 C.2    64  VAL64       0.2260
     34  O          8.5440  159.6440  384.2330 O.2    64  VAL64      -0.2867
     35  CB         8.1050  161.6670  386.6090 C.3    64  VAL64       0.0252
     36  CG1        8.2950  160.5250  387.6010 C.3    64  VAL64       0.0019
     37  CG2        8.1400  163.0390  387.3170 C.3    64  VAL64       0.0019
     38  N          4.9400  168.6610  392.3650 N.3   116  ASN116     -0.1225
     39  CA         4.2900  168.3440  393.6330 C.3   116  ASN116      0.1785
     40  C          4.4040  169.4640  394.6920 C.2   116  ASN116      0.2597
     41  O          5.4960  169.9840  394.9250 O.2   116  ASN116     -0.2718
     42  CB         4.9180  167.0810  394.1970 C.3   116  ASN116      0.1169
     43  CG         4.1410  166.5020  395.3420 C.2   116  ASN116      0.2627
     44  OD1        4.5900  166.4860  396.4930 O.2   116  ASN116     -0.2716
     45  ND2        2.9400  166.0720  395.0440 N.am  116  ASN116     -0.0877
     46  N          3.2790  169.8140  395.3330 N.am  117  THR117     -0.1953
     47  CA         3.2480  170.7450  396.4730 C.3   117  THR117      0.1897
     48  C          3.3910  169.8160  397.7060 C.2   117  THR117      0.2313
     49  O          2.6500  168.8360  397.8070 O.2   117  THR117     -0.2863
     50  CB         1.9410  171.5820  396.5000 C.3   117  THR117      0.1794
     51  OG1        1.7730  172.2780  395.2630 O.3   117  THR117     -0.2208
     52  CG2        1.8880  172.5750  397.6680 C.3   117  THR117      0.0378
     53  N          3.2320  167.7710  401.2510 N.3   119  PHE119     -0.1241
     54  CA         2.1400  167.3890  402.1660 C.3   119  PHE119      0.1605
     55  C          1.9900  168.3840  403.3240 C.2   119  PHE119      0.2264
     56  O          0.8700  168.8300  403.6050 O.2   119  PHE119     -0.2867
     57  CB         2.3380  165.9520  402.7070 C.3   119  PHE119      0.0534
     58  CG         1.2180  165.4510  403.6010 C.ar  119  PHE119     -0.0203
     59  CD1        1.2090  165.7360  404.9660 C.ar  119  PHE119     -0.0042
     60  CD2        0.1810  164.6850  403.0820 C.ar  119  PHE119     -0.0042
     61  CE1        0.1580  165.3000  405.7820 C.ar  119  PHE119     -0.0003
     62  CE2       -0.8590  164.2300  403.9060 C.ar  119  PHE119     -0.0003
     63  CZ        -0.8580  164.5320  405.2500 C.ar  119  PHE119     -0.0000
     64  N          0.6990  171.8080  402.2080 N.3   122  LEU122     -0.1231
     65  CA        -0.7360  171.7460  401.9160 C.3   122  LEU122      0.1693
     66  C         -1.5530  171.7680  403.2140 C.2   122  LEU122      0.2592
     67  O         -2.3450  172.6880  403.4250 O.2   122  LEU122     -0.2718
     68  CB        -1.0690  170.4870  401.0920 C.3   122  LEU122      0.0284
     69  CG        -0.7370  170.5390  399.6070 C.3   122  LEU122      0.0019
     70  CD1       -0.4660  169.1580  399.0710 C.3   122  LEU122      0.0001
     71  CD2       -1.8480  171.2130  398.8150 C.3   122  LEU122      0.0001
     72  N         -1.3100  170.7740  404.0980 N.am  123  TYR123     -0.1976
     73  CA        -1.9480  170.5390  405.4010 C.3   123  TYR123      0.1639
     74  C         -2.2210  171.7910  406.2540 C.2   123  TYR123      0.2290
     75  O         -3.2390  171.8460  406.9470 O.2   123  TYR123     -0.2864
     76  CB        -1.0760  169.5660  406.2060 C.3   123  TYR123      0.0560
     77  CG        -1.8320  168.5930  407.0810 C.ar  123  TYR123     -0.0198
     78  CD1       -2.5270  167.5230  406.5250 C.ar  123  TYR123     -0.0009
     79  CD2       -1.7630  168.6750  408.4700 C.ar  123  TYR123     -0.0009
     80  CE1       -3.1870  166.5940  407.3250 C.ar  123  TYR123      0.0417
     81  CE2       -2.4130  167.7450  409.2820 C.ar  123  TYR123      0.0417
     82  CZ        -3.1250  166.7070  408.7030 C.ar  123  TYR123      0.1957
     83  OH        -3.7530  165.7690  409.4810 O.3   123  TYR123     -0.2866
     84  N         -4.3750  174.8870  403.5700 N.3   126  LEU126     -0.1245
     85  CA        -5.6280  174.4980  402.9110 C.3   126  LEU126      0.1561
     86  C         -6.8600  174.9410  403.6820 C.2   126  LEU126      0.2260
     87  O         -6.9140  174.8430  404.9110 O.2   126  LEU126     -0.2867
     88  CB        -5.7050  172.9970  402.5520 C.3   126  LEU126      0.0270
     89  CG        -4.7340  172.4660  401.4750 C.3   126  LEU126      0.0019
     90  CD1       -4.8460  170.9750  401.3230 C.3   126  LEU126      0.0001
     91  CD2       -4.9570  173.1070  400.1370 C.3   126  LEU126      0.0001
     92  N        -10.2290  171.7130  400.4860 N.3   131  ILE131     -0.1245
     93  CA       -10.4510  170.2940  400.7880 C.3   131  ILE131      0.1561
     94  C        -11.6070  169.7620  399.9230 C.2   131  ILE131      0.2260
     95  O        -11.4380  168.7350  399.2660 O.2   131  ILE131     -0.2867
     96  CB       -10.5930  170.0010  402.3140 C.3   131  ILE131      0.0252
     97  CG1       -9.3010  170.4060  403.0840 C.3   131  ILE131      0.0019
     98  CG2      -10.9330  168.5140  402.5670 C.3   131  ILE131      0.0019
     99  CD1       -9.4330  170.4100  404.6000 C.3   131  ILE131      0.0001
    100  N        -10.3530  169.5790  396.0480 N.3   134  TYR134     -0.1227
    101  CA        -9.4530  168.4590  395.7560 C.3   134  TYR134      0.1736
    102  C        -10.0970  167.1000  395.9800 C.2   134  TYR134      0.2595
    103  O         -9.8460  166.1930  395.1850 O.2   134  TYR134     -0.2718
    104  CB        -8.1320  168.5900  396.5010 C.3   134  TYR134      0.0548
    105  CG        -7.2730  169.6980  395.9460 C.ar  134  TYR134     -0.0200
    106  CD1       -6.8410  169.6760  394.6200 C.ar  134  TYR134     -0.0009
    107  CD2       -6.8830  170.7670  396.7440 C.ar  134  TYR134     -0.0009
    108  CE1       -6.0790  170.7110  394.0920 C.ar  134  TYR134      0.0417
    109  CE2       -6.0900  171.7930  396.2350 C.ar  134  TYR134      0.0417
    110  CZ        -5.6720  171.7480  394.9140 C.ar  134  TYR134      0.1957
    111  OH        -4.8710  172.7390  394.4030 O.3   134  TYR134     -0.2866
    112  N        -10.9820  166.9630  396.9880 N.am  135  MET135     -0.1979
    113  CA       -11.7110  165.7050  397.1800 C.3   135  MET135      0.1605
    114  C        -12.5370  165.4180  395.9330 C.2   135  MET135      0.2287
    115  O        -12.6080  164.2660  395.4880 O.2   135  MET135     -0.2864
    116  CB       -12.6440  165.7640  398.4040 C.3   135  MET135      0.0413
    117  CG       -11.9220  165.5610  399.7350 C.3   135  MET135      0.0598
    118  SD       -11.2890  163.8950  400.0440 S.3   135  MET135     -0.1393
    119  CE       -12.8210  163.0080  400.1380 C.3   135  MET135      0.0692
    120  N        -10.3290  164.0230  393.1580 N.3   138  ILE138     -0.1245
    121  CA        -9.9940  162.6020  393.3900 C.3   138  ILE138      0.1561
    122  C        -11.2110  161.7460  392.9980 C.2   138  ILE138      0.2260
    123  O        -11.0560  160.7040  392.3560 O.2   138  ILE138     -0.2867
    124  CB        -9.5770  162.3460  394.8560 C.3   138  ILE138      0.0252
    125  CG1       -8.3100  163.1530  395.2130 C.3   138  ILE138      0.0019
    126  CG2       -9.3450  160.8260  395.1300 C.3   138  ILE138      0.0019
    127  CD1       -8.0520  163.2160  396.7960 C.3   138  ILE138      0.0001
    128  N         -2.3650  159.5980  400.5880 N.3   157  PRO157     -0.2102
    129  CA        -1.8010  160.9080  400.2220 C.3   157  PRO157      0.1504
    130  C         -0.5600  160.8670  399.3390 C.2   157  PRO157      0.2575
    131  O         -0.4280  161.7220  398.4720 O.2   157  PRO157     -0.2718
    132  CB        -1.4980  161.5500  401.5920 C.3   157  PRO157      0.0282
    133  CG        -2.5550  160.9680  402.4860 C.3   157  PRO157      0.0208
    134  CD        -2.5610  159.5090  402.0540 C.3   157  PRO157      0.0893
    135  N          0.3310  159.8690  399.5100 N.am  158  HIS158     -0.1976
    136  CA         1.5410  159.8060  398.6840 C.3   158  HIS158      0.1656
    137  C          1.1760  159.5750  397.2120 C.2   158  HIS158      0.2291
    138  O          1.9370  159.9570  396.3320 O.2   158  HIS158     -0.2864
    139  CB         2.4910  158.6900  399.1540 C.3   158  HIS158      0.0771
    140  CG         3.7690  158.6480  398.3650 C.ar  158  HIS158      0.0820
    141  ND1        4.8240  159.5160  398.6430 N.ar  158  HIS158     -0.2267
    142  CD2        4.0970  157.9000  397.2860 C.ar  158  HIS158      0.1154
    143  CE1        5.7680  159.2320  397.7620 C.ar  158  HIS158      0.1986
    144  NE2        5.3720  158.2830  396.9120 N.ar  158  HIS158     -0.2212
    145  N         -1.4550  160.8080  395.6300 N.3   160  VAL160     -0.1231
    146  CA        -2.2600  161.9070  395.1070 C.3   160  VAL160      0.1692
    147  C         -1.3030  163.1040  394.9700 C.2   160  VAL160      0.2592
    148  O         -0.8520  163.6530  395.9710 O.2   160  VAL160     -0.2718
    149  CB        -3.5190  162.2390  395.9510 C.3   160  VAL160      0.0266
    150  CG1       -4.2400  163.4410  395.3510 C.3   160  VAL160      0.0020
    151  CG2       -4.4770  161.0430  396.0190 C.3   160  VAL160      0.0020
    152  N         -0.9550  163.4710  393.7380 N.am  161  MET161     -0.1965
    153  CA        -0.0410  164.6100  393.5350 C.3   161  MET161      0.1736
    154  C         -0.8270  165.8400  393.2350 C.2   161  MET161      0.2616
    155  O         -1.7050  165.8240  392.3640 O.2   161  MET161     -0.2715
    156  CB         0.9630  164.3440  392.4080 C.3   161  MET161      0.0427
    157  CG         1.9280  163.2500  392.7280 C.3   161  MET161      0.0599
    158  SD         3.1160  163.0570  391.3940 S.3   161  MET161     -0.1393
    159  CE         4.3350  164.3950  391.8050 C.3   161  MET161      0.0692
    160  N         -0.5340  166.9220  393.9680 N.am  162  ILE162     -0.1977
    161  CA        -1.2360  168.1810  393.7460 C.3   162  ILE162      0.1596
    162  C         -0.2360  169.2720  393.4160 C.2   162  ILE162      0.2287
    163  O          0.7490  169.4490  394.1370 O.2   162  ILE162     -0.2864
    164  CB        -2.0800  168.5560  394.9970 C.3   162  ILE162      0.0276
    165  CG1       -3.1920  167.5130  395.2660 C.3   162  ILE162      0.0022
    166  CG2       -2.6270  169.9900  394.8830 C.3   162  ILE162      0.0022
    167  CD1       -4.0640  167.7690  396.5040 C.3   162  ILE162      0.0001
    168  N         -4.4820  168.1180  390.0130 N.3   169  LEU169     -0.1245
    169  CA        -4.3430  166.9080  390.8360 C.3   169  LEU169      0.1561
    170  C         -4.2090  165.7000  389.9080 C.2   169  LEU169      0.2260
    171  O         -4.8770  165.6380  388.8630 O.2   169  LEU169     -0.2867
    172  CB        -5.6010  166.7460  391.7030 C.3   169  LEU169      0.0270
    173  CG        -5.6520  165.5850  392.6920 C.3   169  LEU169      0.0019
    174  CD1       -6.3870  166.0140  393.9450 C.3   169  LEU169      0.0001
    175  CD2       -6.3400  164.3340  392.0790 C.3   169  LEU169      0.0001
    176  N         -1.7010  158.8000  391.0750 N.3   172  ILE172     -0.1245
    177  CA        -0.5520  158.0520  390.5760 C.3   172  ILE172      0.1561
    178  C         -0.4270  156.6380  391.1670 C.2   172  ILE172      0.2260
    179  O         -1.2360  156.2210  392.0170 O.2   172  ILE172     -0.2867
    180  CB         0.7710  158.8620  390.7940 C.3   172  ILE172      0.0252
    181  CG1        1.0690  158.9780  392.3200 C.3   172  ILE172      0.0019
    182  CG2        0.7060  160.2610  390.1210 C.3   172  ILE172      0.0019
    183  CD1        2.5500  159.2870  392.6350 C.3   172  ILE172      0.0001
    184  N         -8.4330  159.4780  404.1610 N.3   219  MET219     -0.1245
    185  CA        -7.7460  160.7140  403.7880 C.3   219  MET219      0.1570
    186  C         -8.5410  161.9440  404.1870 C.2   219  MET219      0.2261
    187  O         -7.9600  162.9020  404.7330 O.2   219  MET219     -0.2867
    188  CB        -7.4850  160.7540  402.2840 C.3   219  MET219      0.0387
    189  CG        -6.3790  159.8590  401.8890 C.3   219  MET219      0.0595
    190  SD        -6.1190  160.0290  400.1170 S.3   219  MET219     -0.1393
    191  CE        -5.5570  161.6790  400.0040 C.3   219  MET219      0.0692
    192  N         -7.5210  164.9720  406.9930 N.3   223  MET223     -0.1245
    193  CA        -7.4590  166.3530  406.5300 C.3   223  MET223      0.1570
    194  C         -8.3030  167.3380  407.3420 C.2   223  MET223      0.2261
    195  O         -7.7840  168.3840  407.7770 O.2   223  MET223     -0.2867
    196  CB        -7.8140  166.4590  405.0390 C.3   223  MET223      0.0387
    197  CG        -6.7020  165.9650  404.1140 C.3   223  MET223      0.0595
    198  SD        -5.1370  166.8750  404.2670 S.3   223  MET223     -0.1393
    199  CE        -5.7340  168.5780  404.0370 C.3   223  MET223      0.0692
@<TRIPOS>BOND
     1    34    33    2
     2    31    32    1
     3    33    32    1
     4    32    35    1
     5    35    37    1
     6    35    36    1
     7   171   170    2
     8   170   169    1
     9   168   169    1
    10   182   180    1
    11    26    25    1
    12    26    27    2
    13     7     6    1
    14    29    28    1
    15   177   180    1
    16   177   176    1
    17   177   178    1
    18    25    28    1
    19    25    24    1
    20   180   181    1
    21   169   172    1
    22   178   179    2
    23    28    30    1
    24     6     8    1
    25     6     5    1
    26   158   159    1
    27   158   157    1
    28   172   173    1
    29   175   173    1
    30   181   183    1
    31   123   122    2
    32   155   154    2
    33    38    39    1
    34   156   157    1
    35   156   153    1
    36     5     2    1
    37     1     2    1
    38   173   174    1
    39   122   121    1
    40   120   121    1
    41   154   153    1
    42   154   160   am
    43     2     3    1
    44   121   124    1
    45   162   161    1
    46   162   163    2
    47   153   152    1
    48    39    42    1
    49    39    40    1
    50   152   147   am
    51   161   160    1
    52   161   164    1
    53   108   106   ar
    54   108   110   ar
    55    12    11    2
    56    42    43    1
    57   111   110    1
    58     9     3   am
    59     9    10    1
    60     3     4    2
    61   106   105   ar
    62    40    41    2
    63    40    46   am
    64   124   126    1
    65   124   125    1
    66   166   164    1
    67   110   109   ar
    68   147   146    1
    69   147   148    2
    70   164   165    1
    71    45    43   am
    72   146   145    1
    73   146   149    1
    74   103   102    2
    75   125   127    1
    76    51    50    1
    77   165   167    1
    78    11    10    1
    79    11    13   am
    80    46    47    1
    81    43    44    2
    82   150   149    1
    83   115   114    2
    84   101   102    1
    85   101   100    1
    86   101   104    1
    87   114   113    1
    88   105   104    1
    89   105   107   ar
    90   149   151    1
    91   102   112   am
    92    14    13    1
    93    14    15    1
    94    14    17    1
    95   109   107   ar
    96   138   137    2
    97    18    17    1
    98    18    19    1
    99    47    50    1
   100    47    48    1
   101    50    52    1
   102    15    16    2
   103   144   142   ar
   104   144   143   ar
   105   112   113    1
   106    20    19    1
   107    20    21    2
   108   113   116    1
   109   137   136    1
   110   142   140   ar
   111    23    21    1
   112    48    49    2
   113   143   141   ar
   114    21    22    1
   115   140   141   ar
   116   140   139    1
   117   116   117    1
   118   131   130    2
   119   136   139    1
   120   136   135    1
   121    71    69    1
   122    70    69    1
   123    95    94    2
   124   130   135   am
   125   130   129    1
   126    69    68    1
   127   117   118    1
   128    94    93    1
   129   191   190    1
   130   118   119    1
   131   190   189    1
   132    91    89    1
   133   129   128    1
   134   129   132    1
   135    92    93    1
   136   128   134    1
   137    93    96    1
   138    68    65    1
   139    53    54    1
   140    90    89    1
   141    89    88    1
   142   132   133    1
   143   189   188    1
   144    65    64    1
   145    65    66    1
   146   134   133    1
   147    54    57    1
   148    54    55    1
   149   188   185    1
   150    96    98    1
   151    96    97    1
   152    88    85    1
   153    57    58    1
   154    85    84    1
   155    85    86    1
   156    60    58   ar
   157    60    62   ar
   158    97    99    1
   159    66    67    2
   160    66    72   am
   161    55    56    2
   162    58    59   ar
   163    86    87    2
   164   185   184    1
   165   185   186    1
   166    62    63   ar
   167   199   198    1
   168    72    73    1
   169   197   198    1
   170   197   196    1
   171   186   187    2
   172    59    61   ar
   173   196   193    1
   174    63    61   ar
   175    73    76    1
   176    73    74    1
   177    76    77    1
   178    74    75    2
   179    78    77   ar
   180    78    80   ar
   181   193   192    1
   182   193   194    1
   183    77    79   ar
   184    80    82   ar
   185   194   195    2
   186    79    81   ar
   187    82    81   ar
   188    82    83    1
