@<TRIPOS>MOLECULE
tmp/5cu8A00.pdb
 98 96 0 0 0
SMALL
GASTEIGER

@<TRIPOS>ATOM
      1  N         11.4340   29.8860   31.7920 N.3    32  TRP32      -0.1228
      2  CA        10.5040   30.7520   31.0560 C.3    32  TRP32       0.1722
      3  C         11.0790   32.0900   30.5570 C.2    32  TRP32       0.2437
      4  O         10.6750   32.5430   29.4940 O.2    32  TRP32      -0.2733
      5  CB         9.2180   31.0350   31.8860 C.3    32  TRP32       0.0563
      6  CG         9.4370   31.6490   33.2480 C.ar   32  TRP32       0.0003
      7  CD1        9.6050   30.9790   34.4260 C.ar   32  TRP32       0.0946
      8  CD2        9.4990   33.0500   33.5730 C.ar   32  TRP32       0.0152
      9  NE1        9.7880   31.8710   35.4550 N.ar   32  TRP32      -0.2442
     10  CE2        9.7350   33.1460   34.9580 C.ar   32  TRP32       0.0810
     11  CE3        9.4050   34.2280   32.8220 C.ar   32  TRP32       0.0012
     12  CZ2        9.8660   34.3790   35.6160 C.ar   32  TRP32       0.0191
     13  CZ3        9.5360   35.4540   33.4760 C.ar   32  TRP32       0.0001
     14  CH2        9.7660   35.5140   34.8600 C.ar   32  TRP32       0.0015
     15  N         12.0060   32.7310   31.2970 N.am   33  PRO33      -0.2718
     16  CA        12.5120   33.9690   30.6800 C.3    33  PRO33       0.1535
     17  C         13.4680   33.7390   29.4970 C.2    33  PRO33       0.2598
     18  O         13.8820   34.7170   28.8790 O.2    33  PRO33      -0.2715
     19  CB        13.2830   34.6550   31.8250 C.3    33  PRO33       0.0310
     20  CG        12.8470   33.9280   33.1100 C.3    33  PRO33       0.0237
     21  CD        12.5580   32.5270   32.6540 C.3    33  PRO33       0.0939
     22  N         13.8310   32.4860   29.2210 N.am   34  PHE34      -0.1974
     23  CA        14.9030   32.1670   28.2760 C.3    34  PHE34       0.1639
     24  C         14.4490   31.2750   27.1190 C.2    34  PHE34       0.2290
     25  O         15.2520   30.9080   26.2780 O.2    34  PHE34      -0.2864
     26  CB        16.0660   31.4880   29.0110 C.3    34  PHE34       0.0560
     27  CG        16.4230   32.1700   30.3010 C.ar   34  PHE34      -0.0200
     28  CD1       17.0040   33.4270   30.2850 C.ar   34  PHE34      -0.0042
     29  CD2       16.1330   31.5760   31.5300 C.ar   34  PHE34      -0.0042
     30  CE1       17.2820   34.0940   31.4650 C.ar   34  PHE34      -0.0003
     31  CE2       16.4350   32.2300   32.7210 C.ar   34  PHE34      -0.0003
     32  CZ        17.0090   33.4910   32.6850 C.ar   34  PHE34      -0.0000
     33  N         14.0980   37.5470   23.4540 N.3    38  VAL38      -0.1245
     34  CA        13.4920   38.7150   24.0800 C.3    38  VAL38       0.1561
     35  C         12.9180   39.5850   22.9670 C.2    38  VAL38       0.2260
     36  O         13.5670   39.7660   21.9390 O.2    38  VAL38      -0.2867
     37  CB        14.5150   39.5090   24.9290 C.3    38  VAL38       0.0252
     38  CG1       13.8980   40.8160   25.4320 C.3    38  VAL38       0.0019
     39  CG2       14.9900   38.6680   26.0910 C.3    38  VAL38       0.0019
     40  N         10.5380   45.6230   24.3950 N.3    43  VAL43      -0.1245
     41  CA        11.3920   45.8010   25.5630 C.3    43  VAL43       0.1561
     42  C         12.3910   46.9090   25.2660 C.2    43  VAL43       0.2260
     43  O         13.4440   46.6620   24.6640 O.2    43  VAL43      -0.2867
     44  CB        12.1470   44.5180   25.9400 C.3    43  VAL43       0.0252
     45  CG1       13.1070   44.7820   27.1130 C.3    43  VAL43       0.0019
     46  CG2       11.1660   43.3950   26.2720 C.3    43  VAL43       0.0019
     47  N         16.6590   46.9740   24.8890 N.3    46  TYR46      -0.1241
     48  CA        17.3000   45.6660   24.7520 C.3    46  TYR46       0.1605
     49  C         18.1480   45.5800   23.5010 C.2    46  TYR46       0.2264
     50  O         19.2960   45.1330   23.5620 O.2    46  TYR46      -0.2867
     51  CB        16.2820   44.5190   24.7550 C.3    46  TYR46       0.0534
     52  CG        16.9260   43.2390   25.2510 C.ar   46  TYR46      -0.0201
     53  CD1       17.0950   43.0090   26.6140 C.ar   46  TYR46      -0.0009
     54  CD2       17.3990   42.2860   24.3590 C.ar   46  TYR46      -0.0009
     55  CE1       17.6970   41.8480   27.0740 C.ar   46  TYR46       0.0417
     56  CE2       18.0130   41.1230   24.8110 C.ar   46  TYR46       0.0417
     57  CZ        18.1600   40.9090   26.1620 C.ar   46  TYR46       0.1957
     58  OH        18.7750   39.7540   26.5990 O.3    46  TYR46      -0.2866
     59  N         23.3700   33.5130   27.1650 N.3    81  VAL81      -0.1245
     60  CA        22.0150   33.7120   27.6760 C.3    81  VAL81       0.1561
     61  C         22.0580   34.2940   29.0960 C.2    81  VAL81       0.2260
     62  O         21.3890   35.2840   29.3920 O.2    81  VAL81      -0.2867
     63  CB        21.2110   32.3910   27.6790 C.3    81  VAL81       0.0252
     64  CG1       19.8260   32.5880   28.3250 C.3    81  VAL81       0.0019
     65  CG2       21.0830   31.8310   26.2620 C.3    81  VAL81       0.0019
     66  N         21.3740   38.0760   30.6370 N.3    85  CYS85      -0.1235
     67  CA        20.3800   38.2160   31.6830 C.3    85  CYS85       0.1677
     68  C         20.9360   39.0750   32.8140 C.2    85  CYS85       0.2270
     69  O         20.2510   39.9640   33.3210 O.2    85  CYS85      -0.2867
     70  CB        19.9540   36.8520   32.2050 C.3    85  CYS85       0.0956
     71  SG        18.6790   36.8930   33.4920 S.3    85  CYS85      -0.0801
     72  N         21.1660   42.8930   32.0050 N.3    88  PHE88      -0.1227
     73  CA        19.9550   43.6790   31.8310 C.3    88  PHE88       0.1736
     74  C         19.0390   43.6320   33.0400 C.2    88  PHE88       0.2595
     75  O         18.1700   44.4870   33.1940 O.2    88  PHE88      -0.2718
     76  CB        19.2040   43.2050   30.5860 C.3    88  PHE88       0.0547
     77  CG        18.3180   44.2530   29.9660 C.ar   88  PHE88      -0.0202
     78  CD1       18.8330   45.1590   29.0470 C.ar   88  PHE88      -0.0042
     79  CD2       16.9710   44.3160   30.2720 C.ar   88  PHE88      -0.0042
     80  CE1       18.0230   46.1210   28.4510 C.ar   88  PHE88      -0.0003
     81  CE2       16.1470   45.2790   29.6750 C.ar   88  PHE88      -0.0003
     82  CZ        16.6740   46.1780   28.7650 C.ar   88  PHE88      -0.0000
     83  N         19.2220   42.6350   33.8930 N.am   89  ASN89      -0.1974
     84  CA        18.2800   42.4060   34.9790 C.3    89  ASN89       0.1688
     85  C         18.9480   42.5730   36.3290 C.2    89  ASN89       0.2292
     86  O         20.0890   42.1480   36.5190 O.2    89  ASN89      -0.2864
     87  CB        17.6760   41.0060   34.8830 C.3    89  ASN89       0.1181
     88  CG        16.8050   40.8160   33.6470 C.2    89  ASN89       0.2629
     89  OD1       15.6010   41.0600   33.6740 O.2    89  ASN89      -0.2716
     90  ND2       17.4160   40.3610   32.5610 N.am   89  ASN89      -0.0877
     91  N         13.4550   37.4350   37.2730 N.3    95  ILE95      -0.1245
     92  CA        14.2310   37.0680   36.1010 C.3    95  ILE95       0.1561
     93  C         15.7100   37.0010   36.4780 C.2    95  ILE95       0.2260
     94  O         16.4140   36.0670   36.0860 O.2    95  ILE95      -0.2867
     95  CB        13.9950   38.0460   34.9370 C.3    95  ILE95       0.0252
     96  CG1       12.5430   37.9250   34.4500 C.3    95  ILE95       0.0019
     97  CG2       14.9520   37.7510   33.7790 C.3    95  ILE95       0.0019
     98  CD1       12.1520   38.9120   33.3550 C.3    95  ILE95       0.0001
@<TRIPOS>BOND
     1    36    35    2
     2    35    34    1
     3    33    34    1
     4    49    50    2
     5    49    48    1
     6    34    37    1
     7    54    56   ar
     8    54    52   ar
     9    40    41    1
    10    43    42    2
    11    48    51    1
    12    48    47    1
    13    51    52    1
    14    56    57   ar
    15    37    38    1
    16    37    39    1
    17    52    53   ar
    18    42    41    1
    19    41    44    1
    20    44    46    1
    21    44    45    1
    22    57    58    1
    23    57    55   ar
    24    65    63    1
    25    25    24    2
    26    53    55   ar
    27    24    23    1
    28    59    60    1
    29    60    63    1
    30    60    61    1
    31    63    64    1
    32    23    26    1
    33    23    22    1
    34    80    82   ar
    35    80    78   ar
    36    82    81   ar
    37    18    17    2
    38    26    27    1
    39    78    77   ar
    40    61    62    2
    41    22    17   am
    42     4     3    2
    43    17    16    1
    44    81    79   ar
    45    77    79   ar
    46    77    76    1
    47    28    27   ar
    48    28    30   ar
    49    27    29   ar
    50     3     2    1
    51     3    15   am
    52    76    73    1
    53    66    67    1
    54    16    15    1
    55    16    19    1
    56     2     1    1
    57     2     5    1
    58    15    21    1
    59    30    32   ar
    60    29    31   ar
    61    67    70    1
    62    67    68    1
    63    19    20    1
    64    73    72    1
    65    73    74    1
    66     5     6    1
    67    70    71    1
    68    90    88   am
    69    21    20    1
    70    32    31   ar
    71    68    69    2
    72    11    13   ar
    73    11     8   ar
    74    74    75    2
    75    74    83   am
    76     6     8   ar
    77     6     7   ar
    78    98    96    1
    79    13    14   ar
    80     8    10   ar
    81    88    89    2
    82    88    87    1
    83    97    95    1
    84    83    84    1
    85     7     9   ar
    86    96    95    1
    87    14    12   ar
    88    87    84    1
    89    95    92    1
    90    10     9   ar
    91    10    12   ar
    92    84    85    1
    93    94    93    2
    94    92    93    1
    95    92    91    1
    96    85    86    2
