@<TRIPOS>MOLECULE
tmp/5cuaA00.pdb
 106 106 0 0 0
SMALL
GASTEIGER

@<TRIPOS>ATOM
      1  N         11.6080   30.4830   32.4370 N.3    32  TRP32      -0.1228
      2  CA        10.6610   31.2720   31.6390 C.3    32  TRP32       0.1722
      3  C         11.1930   32.6150   31.0860 C.2    32  TRP32       0.2437
      4  O         10.7390   33.0430   30.0290 O.2    32  TRP32      -0.2733
      5  CB         9.3700   31.5250   32.4380 C.3    32  TRP32       0.0563
      6  CG         9.6000   32.1630   33.7520 C.ar   32  TRP32       0.0003
      7  CD1        9.7840   31.5280   34.9420 C.ar   32  TRP32       0.0946
      8  CD2        9.6770   33.5710   34.0270 C.ar   32  TRP32       0.0152
      9  NE1        9.9830   32.4490   35.9360 N.ar   32  TRP32      -0.2442
     10  CE2        9.9250   33.7070   35.4030 C.ar   32  TRP32       0.0810
     11  CE3        9.5750   34.7210   33.2390 C.ar   32  TRP32       0.0012
     12  CZ2       10.0730   34.9530   36.0130 C.ar   32  TRP32       0.0191
     13  CZ3        9.7180   35.9600   33.8510 C.ar   32  TRP32       0.0001
     14  CH2        9.9610   36.0630   35.2240 C.ar   32  TRP32       0.0015
     15  N         12.1590   33.2770   31.7610 N.am   33  PRO33      -0.2718
     16  CA        12.6080   34.5010   31.0800 C.3    33  PRO33       0.1535
     17  C         13.4640   34.2410   29.8340 C.2    33  PRO33       0.2598
     18  O         13.7380   35.1970   29.1050 O.2    33  PRO33      -0.2715
     19  CB        13.4640   35.2190   32.1410 C.3    33  PRO33       0.0310
     20  CG        13.1700   34.5280   33.4430 C.3    33  PRO33       0.0237
     21  CD        12.8030   33.1220   33.0770 C.3    33  PRO33       0.0939
     22  N         13.8780   32.9880   29.6230 N.am   34  PHE34      -0.1974
     23  CA        14.9490   32.6620   28.6760 C.3    34  PHE34       0.1639
     24  C         14.4870   31.7540   27.5370 C.2    34  PHE34       0.2290
     25  O         15.2700   31.4170   26.6520 O.2    34  PHE34      -0.2864
     26  CB        16.1280   32.0090   29.4300 C.3    34  PHE34       0.0560
     27  CG        16.5160   32.7440   30.6870 C.ar   34  PHE34      -0.0200
     28  CD1       17.0280   34.0440   30.6190 C.ar   34  PHE34      -0.0042
     29  CD2       16.3530   32.1610   31.9340 C.ar   34  PHE34      -0.0042
     30  CE1       17.3610   34.7470   31.7750 C.ar   34  PHE34      -0.0003
     31  CE2       16.6970   32.8540   33.1040 C.ar   34  PHE34      -0.0003
     32  CZ        17.1990   34.1450   33.0230 C.ar   34  PHE34      -0.0000
     33  N         14.0780   37.9410   23.4890 N.3    38  VAL38      -0.1245
     34  CA        13.5210   39.1780   24.0310 C.3    38  VAL38       0.1561
     35  C         12.9680   40.0150   22.8920 C.2    38  VAL38       0.2260
     36  O         13.6210   40.1580   21.8590 O.2    38  VAL38      -0.2867
     37  CB        14.5870   39.9860   24.7990 C.3    38  VAL38       0.0252
     38  CG1       14.0620   41.3840   25.1770 C.3    38  VAL38       0.0019
     39  CG2       15.0480   39.2160   26.0320 C.3    38  VAL38       0.0019
     40  N          9.4620   45.7980   21.8880 N.3    42  LEU42      -0.1231
     41  CA         8.6390   46.1250   23.0450 C.3    42  LEU42       0.1693
     42  C          9.4400   46.3620   24.3160 C.2    42  LEU42       0.2592
     43  O          8.8820   46.7900   25.3230 O.2    42  LEU42      -0.2718
     44  CB         7.6110   45.0220   23.3010 C.3    42  LEU42       0.0284
     45  CG         6.6280   44.6920   22.1690 C.3    42  LEU42       0.0019
     46  CD1        5.5660   43.7210   22.6610 C.3    42  LEU42       0.0001
     47  CD2        5.9820   45.9510   21.5780 C.3    42  LEU42       0.0001
     48  N         10.7380   46.0800   24.2920 N.am   43  VAL43      -0.1966
     49  CA        11.5440   46.2450   25.4990 C.3    43  VAL43       0.1712
     50  C         12.5890   47.3420   25.3070 C.2    43  VAL43       0.2458
     51  O         13.5610   47.1770   24.5600 O.2    43  VAL43      -0.2730
     52  CB        12.2360   44.9300   25.9130 C.3    43  VAL43       0.0289
     53  CG1       13.0970   45.1500   27.1600 C.3    43  VAL43       0.0023
     54  CG2       11.1950   43.8410   26.1530 C.3    43  VAL43       0.0023
     55  N         12.3660   48.4880   25.9650 N.am   44  PRO44      -0.2727
     56  CA        13.2330   49.6680   25.8510 C.3    44  PRO44       0.1402
     57  C         14.6590   49.3840   26.3020 C.2    44  PRO44       0.2269
     58  O         14.8830   48.7250   27.3230 O.2    44  PRO44      -0.2865
     59  CB        12.5600   50.6960   26.7760 C.3    44  PRO44       0.0296
     60  CG        11.1360   50.2530   26.8730 C.3    44  PRO44       0.0237
     61  CD        11.1670   48.7500   26.7830 C.3    44  PRO44       0.0939
     62  N         16.8940   47.3340   25.1860 N.3    46  TYR46      -0.1241
     63  CA        17.5150   46.0140   24.9720 C.3    46  TYR46       0.1605
     64  C         18.3510   45.9340   23.6910 C.2    46  TYR46       0.2264
     65  O         19.4970   45.4640   23.7190 O.2    46  TYR46      -0.2867
     66  CB        16.4640   44.8830   24.9780 C.3    46  TYR46       0.0534
     67  CG        17.0700   43.5720   25.4680 C.ar   46  TYR46      -0.0201
     68  CD1       17.1520   43.2860   26.8250 C.ar   46  TYR46      -0.0009
     69  CD2       17.5920   42.6520   24.5760 C.ar   46  TYR46      -0.0009
     70  CE1       17.7350   42.0920   27.2810 C.ar   46  TYR46       0.0417
     71  CE2       18.1710   41.4650   25.0090 C.ar   46  TYR46       0.0417
     72  CZ        18.2440   41.1860   26.3600 C.ar   46  TYR46       0.1957
     73  OH        18.8280   39.9980   26.7880 O.3    46  TYR46      -0.2866
     74  N         21.6140   38.4890   30.8930 N.3    85  CYS85      -0.1235
     75  CA        20.6270   38.6700   31.9630 C.3    85  CYS85       0.1677
     76  C         21.1920   39.5090   33.1110 C.2    85  CYS85       0.2270
     77  O         20.4920   40.3700   33.6550 O.2    85  CYS85      -0.2867
     78  CB        20.1400   37.3120   32.4900 C.3    85  CYS85       0.0956
     79  SG        18.9250   37.3690   33.8620 S.3    85  CYS85      -0.0801
     80  N         21.4060   43.3570   32.1860 N.3    88  PHE88      -0.1227
     81  CA        20.1760   44.1270   32.0240 C.3    88  PHE88       0.1736
     82  C         19.2560   44.1140   33.2610 C.2    88  PHE88       0.2595
     83  O         18.3420   44.9450   33.3770 O.2    88  PHE88      -0.2718
     84  CB        19.4100   43.6060   30.7990 C.3    88  PHE88       0.0547
     85  CG        18.4280   44.5890   30.2200 C.ar   88  PHE88      -0.0202
     86  CD1       18.8570   45.5980   29.3710 C.ar   88  PHE88      -0.0042
     87  CD2       17.0790   44.4850   30.4930 C.ar   88  PHE88      -0.0042
     88  CE1       17.9550   46.5060   28.8140 C.ar   88  PHE88      -0.0003
     89  CE2       16.1720   45.3830   29.9450 C.ar   88  PHE88      -0.0003
     90  CZ        16.6120   46.3960   29.1040 C.ar   88  PHE88      -0.0000
     91  N         19.4970   43.1880   34.1830 N.am   89  ASN89      -0.1974
     92  CA        18.6180   43.0160   35.3400 C.3    89  ASN89       0.1688
     93  C         19.3520   43.1580   36.6800 C.2    89  ASN89       0.2292
     94  O         20.5160   42.7590   36.8180 O.2    89  ASN89      -0.2864
     95  CB        17.9210   41.6500   35.2880 C.3    89  ASN89       0.1181
     96  CG        17.1090   41.4440   34.0180 C.2    89  ASN89       0.2629
     97  OD1       15.9210   41.7450   33.9770 O.2    89  ASN89      -0.2716
     98  ND2       17.7460   40.8970   32.9830 N.am   89  ASN89      -0.0877
     99  N         13.7760   38.1610   37.6390 N.3    95  ILE95      -0.1245
    100  CA        14.5330   37.7360   36.4670 C.3    95  ILE95       0.1561
    101  C         16.0080   37.6030   36.8220 C.2    95  ILE95       0.2260
    102  O         16.6620   36.6360   36.4250 O.2    95  ILE95      -0.2867
    103  CB        14.3440   38.7080   35.2820 C.3    95  ILE95       0.0252
    104  CG1       12.8970   38.6350   34.7750 C.3    95  ILE95       0.0019
    105  CG2       15.2960   38.3770   34.1300 C.3    95  ILE95       0.0019
    106  CD1       12.6050   39.6320   33.6720 C.3    95  ILE95       0.0001
@<TRIPOS>BOND
     1    47    45    1
     2    36    35    2
     3    40    41    1
     4    45    46    1
     5    45    44    1
     6    35    34    1
     7    41    44    1
     8    41    42    1
     9    33    34    1
    10    64    65    2
    11    64    63    1
    12    34    37    1
    13    48    42   am
    14    48    49    1
    15    42    43    2
    16    51    50    2
    17    69    71   ar
    18    69    67   ar
    19    37    38    1
    20    37    39    1
    21    63    66    1
    22    63    62    1
    23    66    67    1
    24    71    72   ar
    25    50    49    1
    26    50    55   am
    27    67    68   ar
    28    49    52    1
    29    56    55    1
    30    56    57    1
    31    56    59    1
    32    52    54    1
    33    52    53    1
    34    55    61    1
    35    57    58    2
    36    72    73    1
    37    72    70   ar
    38    25    24    2
    39    59    60    1
    40    61    60    1
    41    68    70   ar
    42    24    23    1
    43    23    26    1
    44    23    22    1
    45    88    90   ar
    46    88    86   ar
    47    90    89   ar
    48    18    17    2
    49    86    85   ar
    50    26    27    1
    51    22    17   am
    52    17    16    1
    53    89    87   ar
    54     4     3    2
    55    85    87   ar
    56    85    84    1
    57    28    27   ar
    58    28    30   ar
    59    27    29   ar
    60    84    81    1
    61    74    75    1
    62    16    15    1
    63    16    19    1
    64     3     2    1
    65     3    15   am
    66     2     1    1
    67     2     5    1
    68    15    21    1
    69    30    32   ar
    70    29    31   ar
    71    75    78    1
    72    75    76    1
    73    81    80    1
    74    81    82    1
    75    19    20    1
    76     5     6    1
    77    78    79    1
    78    98    96   am
    79    32    31   ar
    80    21    20    1
    81    76    77    2
    82    11    13   ar
    83    11     8   ar
    84    82    83    2
    85    82    91   am
    86   106   104    1
    87     6     8   ar
    88     6     7   ar
    89    13    14   ar
    90    97    96    2
    91    96    95    1
    92     8    10   ar
    93   105   103    1
    94    91    92    1
    95   104   103    1
    96     7     9   ar
    97    14    12   ar
    98   103   100    1
    99    95    92    1
   100    92    93    1
   101    10     9   ar
   102    10    12   ar
   103   102   101    2
   104   100   101    1
   105   100    99    1
   106    93    94    2
