@<TRIPOS>MOLECULE
tmp/5cubA00.pdb
 84 80 0 0 0
SMALL
GASTEIGER

@<TRIPOS>ATOM
      1  N         12.0430   32.6290   31.2210 N.3    33  PRO33      -0.2102
      2  CA        12.4900   33.8580   30.5550 C.3    33  PRO33       0.1504
      3  C         13.4130   33.6360   29.3570 C.2    33  PRO33       0.2575
      4  O         13.7330   34.6080   28.6530 O.2    33  PRO33      -0.2718
      5  CB        13.2640   34.6020   31.6560 C.3    33  PRO33       0.0282
      6  CG        12.9170   33.9160   32.9370 C.3    33  PRO33       0.0208
      7  CD        12.6130   32.5040   32.5730 C.3    33  PRO33       0.0893
      8  N         13.8560   32.3980   29.1470 N.am   34  PHE34      -0.1977
      9  CA        14.9340   32.1150   28.1960 C.3    34  PHE34       0.1639
     10  C         14.4940   31.2200   27.0520 C.2    34  PHE34       0.2290
     11  O         15.3020   30.8820   26.1860 O.2    34  PHE34      -0.2864
     12  CB        16.1180   31.4640   28.9220 C.3    34  PHE34       0.0560
     13  CG        16.4790   32.1530   30.2030 C.ar   34  PHE34      -0.0200
     14  CD1       17.0070   33.4400   30.1820 C.ar   34  PHE34      -0.0042
     15  CD2       16.2560   31.5340   31.4350 C.ar   34  PHE34      -0.0042
     16  CE1       17.3180   34.1030   31.3740 C.ar   34  PHE34      -0.0003
     17  CE2       16.5680   32.1870   32.6320 C.ar   34  PHE34      -0.0003
     18  CZ        17.1030   33.4700   32.6010 C.ar   34  PHE34      -0.0000
     19  N         14.0250   37.4410   23.3500 N.3    38  VAL38      -0.1245
     20  CA        13.4110   38.6160   23.9460 C.3    38  VAL38       0.1561
     21  C         12.8680   39.4700   22.8050 C.2    38  VAL38       0.2260
     22  O         13.5650   39.6830   21.8040 O.2    38  VAL38      -0.2867
     23  CB        14.4060   39.4390   24.8000 C.3    38  VAL38       0.0252
     24  CG1       13.7690   40.7590   25.2520 C.3    38  VAL38       0.0019
     25  CG2       14.8840   38.6310   26.0000 C.3    38  VAL38       0.0019
     26  N         10.5020   45.3870   24.3260 N.3    43  VAL43      -0.1245
     27  CA        11.3170   45.6430   25.5030 C.3    43  VAL43       0.1561
     28  C         12.2950   46.7770   25.2260 C.2    43  VAL43       0.2260
     29  O         13.3030   46.5830   24.5490 O.2    43  VAL43      -0.2867
     30  CB        12.0740   44.3910   25.9470 C.3    43  VAL43       0.0252
     31  CG1       12.8110   44.6610   27.2550 C.3    43  VAL43       0.0019
     32  CG2       11.0980   43.2210   26.1140 C.3    43  VAL43       0.0019
     33  N         16.5570   46.9140   25.0060 N.3    46  TYR46      -0.1241
     34  CA        17.2070   45.6110   24.8050 C.3    46  TYR46       0.1605
     35  C         18.0570   45.5630   23.5390 C.2    46  TYR46       0.2264
     36  O         19.2010   45.0900   23.5770 O.2    46  TYR46      -0.2867
     37  CB        16.1940   44.4580   24.7700 C.3    46  TYR46       0.0534
     38  CG        16.8370   43.1610   25.2370 C.ar   46  TYR46      -0.0201
     39  CD1       17.0170   42.9020   26.5950 C.ar   46  TYR46      -0.0009
     40  CD2       17.3000   42.2170   24.3210 C.ar   46  TYR46      -0.0009
     41  CE1       17.6190   41.7210   27.0300 C.ar   46  TYR46       0.0417
     42  CE2       17.9000   41.0300   24.7460 C.ar   46  TYR46       0.0417
     43  CZ        18.0650   40.7910   26.0960 C.ar   46  TYR46       0.1957
     44  OH        18.6760   39.6180   26.5140 O.3    46  TYR46      -0.2866
     45  N         23.4970   33.5350   27.0870 N.3    81  VAL81      -0.1245
     46  CA        22.1290   33.7230   27.5810 C.3    81  VAL81       0.1561
     47  C         22.1310   34.3080   29.0080 C.2    81  VAL81       0.2260
     48  O         21.4300   35.2760   29.2860 O.2    81  VAL81      -0.2867
     49  CB        21.3230   32.3920   27.5710 C.3    81  VAL81       0.0252
     50  CG1       19.9620   32.5700   28.2680 C.3    81  VAL81       0.0019
     51  CG2       21.1270   31.8640   26.1360 C.3    81  VAL81       0.0019
     52  N         21.3990   38.0840   30.5290 N.3    85  CYS85      -0.1235
     53  CA        20.4000   38.2230   31.5840 C.3    85  CYS85       0.1677
     54  C         20.9150   39.1070   32.7250 C.2    85  CYS85       0.2270
     55  O         20.1880   39.9630   33.2340 O.2    85  CYS85      -0.2867
     56  CB        19.9950   36.8570   32.1250 C.3    85  CYS85       0.0956
     57  SG        18.7350   36.9180   33.4150 S.3    85  CYS85      -0.0801
     58  N         21.1100   42.9300   31.8580 N.3    88  PHE88      -0.1227
     59  CA        19.8730   43.6790   31.7100 C.3    88  PHE88       0.1736
     60  C         18.9370   43.6330   32.9260 C.2    88  PHE88       0.2595
     61  O         18.0430   44.4620   33.0390 O.2    88  PHE88      -0.2718
     62  CB        19.1200   43.1780   30.4750 C.3    88  PHE88       0.0547
     63  CG        18.1650   44.1810   29.8960 C.ar   88  PHE88      -0.0202
     64  CD1       18.6240   45.1900   29.0520 C.ar   88  PHE88      -0.0042
     65  CD2       16.8120   44.1070   30.1700 C.ar   88  PHE88      -0.0042
     66  CE1       17.7470   46.1160   28.4970 C.ar   88  PHE88      -0.0003
     67  CE2       15.9240   45.0290   29.6160 C.ar   88  PHE88      -0.0003
     68  CZ        16.3890   46.0340   28.7820 C.ar   88  PHE88      -0.0000
     69  N         19.1240   42.6690   33.8190 N.am   89  ASN89      -0.1974
     70  CA        18.1960   42.4850   34.9270 C.3    89  ASN89       0.1688
     71  C         18.8660   42.6430   36.2820 C.2    89  ASN89       0.2292
     72  O         20.0100   42.2290   36.4720 O.2    89  ASN89      -0.2864
     73  CB        17.5450   41.1060   34.8570 C.3    89  ASN89       0.1181
     74  CG        16.7340   40.8990   33.5900 C.2    89  ASN89       0.2629
     75  OD1       15.5410   41.1910   33.5530 O.2    89  ASN89      -0.2716
     76  ND2       17.3730   40.3650   32.5540 N.am   89  ASN89      -0.0877
     77  N         13.4920   37.4900   37.0590 N.3    95  ILE95      -0.1245
     78  CA        14.2850   37.0820   35.9090 C.3    95  ILE95       0.1561
     79  C         15.7640   37.0010   36.2950 C.2    95  ILE95       0.2260
     80  O         16.4500   36.0410   35.9310 O.2    95  ILE95      -0.2867
     81  CB        14.0810   38.0380   34.7110 C.3    95  ILE95       0.0252
     82  CG1       12.6440   37.9200   34.1980 C.3    95  ILE95       0.0019
     83  CG2       15.0690   37.7250   33.5660 C.3    95  ILE95       0.0019
     84  CD1       12.3670   38.7740   32.9830 C.3    95  ILE95       0.0001
@<TRIPOS>BOND
     1    22    21    2
     2    21    20    1
     3    19    20    1
     4    35    36    2
     5    35    34    1
     6    20    23    1
     7    40    42   ar
     8    40    38   ar
     9    26    27    1
    10    29    28    2
    11    42    43   ar
    12    37    34    1
    13    37    38    1
    14    23    24    1
    15    23    25    1
    16    34    33    1
    17    28    27    1
    18    38    39   ar
    19    27    30    1
    20    30    32    1
    21    30    31    1
    22    43    44    1
    23    43    41   ar
    24    51    49    1
    25    11    10    2
    26    39    41   ar
    27    10     9    1
    28    45    46    1
    29    49    46    1
    30    49    50    1
    31    46    47    1
    32     9    12    1
    33     9     8    1
    34    66    68   ar
    35    66    64   ar
    36     4     3    2
    37    68    67   ar
    38    12    13    1
    39    47    48    2
    40    64    63   ar
    41     8     3   am
    42     3     2    1
    43    67    65   ar
    44    63    65   ar
    45    63    62    1
    46    14    13   ar
    47    14    16   ar
    48    13    15   ar
    49    62    59    1
    50    52    53    1
    51     2     1    1
    52     2     5    1
    53     1     7    1
    54    16    18   ar
    55    15    17   ar
    56    53    56    1
    57    53    54    1
    58     5     6    1
    59    59    58    1
    60    59    60    1
    61    56    57    1
    62    76    74   am
    63     7     6    1
    64    18    17   ar
    65    54    55    2
    66    60    61    2
    67    60    69   am
    68    84    82    1
    69    75    74    2
    70    83    81    1
    71    74    73    1
    72    69    70    1
    73    82    81    1
    74    81    78    1
    75    73    70    1
    76    70    71    1
    77    78    79    1
    78    78    77    1
    79    80    79    2
    80    71    72    2
