@<TRIPOS>MOLECULE
tmp/5cucA00.pdb
 84 82 0 0 0
SMALL
GASTEIGER

@<TRIPOS>ATOM
      1  N         12.3580   32.4420   31.4910 N.3    33  PRO33      -0.2102
      2  CA        12.7640   33.6940   30.8480 C.3    33  PRO33       0.1504
      3  C         13.6130   33.5000   29.6120 C.2    33  PRO33       0.2575
      4  O         13.8260   34.4770   28.9010 O.2    33  PRO33      -0.2718
      5  CB        13.6130   34.4020   31.9190 C.3    33  PRO33       0.0282
      6  CG        13.2620   33.7310   33.2050 C.3    33  PRO33       0.0208
      7  CD        12.9780   32.3090   32.8240 C.3    33  PRO33       0.0893
      8  N         14.1040   32.2810   29.3910 N.am   34  PHE34      -0.1977
      9  CA        15.1530   32.0330   28.4060 C.3    34  PHE34       0.1639
     10  C         14.7470   31.1290   27.2590 C.2    34  PHE34       0.2290
     11  O         15.5840   30.7970   26.4350 O.2    34  PHE34      -0.2864
     12  CB        16.3730   31.4300   29.1130 C.3    34  PHE34       0.0560
     13  CG        16.7290   32.1540   30.3720 C.ar   34  PHE34      -0.0200
     14  CD1       17.1950   33.4630   30.3120 C.ar   34  PHE34      -0.0042
     15  CD2       16.5540   31.5550   31.6240 C.ar   34  PHE34      -0.0042
     16  CE1       17.5030   34.1690   31.4790 C.ar   34  PHE34      -0.0003
     17  CE2       16.8770   32.2540   32.7900 C.ar   34  PHE34      -0.0003
     18  CZ        17.3490   33.5680   32.7130 C.ar   34  PHE34      -0.0000
     19  N         14.1460   37.4230   23.5920 N.3    38  VAL38      -0.1245
     20  CA        13.5370   38.6370   24.1260 C.3    38  VAL38       0.1561
     21  C         12.9520   39.4380   22.9610 C.2    38  VAL38       0.2260
     22  O         13.6050   39.5830   21.9260 O.2    38  VAL38      -0.2867
     23  CB        14.5770   39.4830   24.8850 C.3    38  VAL38       0.0252
     24  CG1       13.9850   40.8220   25.3260 C.3    38  VAL38       0.0019
     25  CG2       15.1040   38.7080   26.0850 C.3    38  VAL38       0.0019
     26  N         10.5310   45.4490   24.4300 N.3    43  VAL43      -0.1231
     27  CA        11.3370   45.6630   25.6260 C.3    43  VAL43       0.1678
     28  C         12.2980   46.8340   25.4430 C.2    43  VAL43       0.2434
     29  O         13.3220   46.7220   24.7570 O.2    43  VAL43      -0.2733
     30  CB        12.1290   44.3980   26.0320 C.3    43  VAL43       0.0265
     31  CG1       12.9520   44.6850   27.2790 C.3    43  VAL43       0.0020
     32  CG2       11.1780   43.2360   26.3060 C.3    43  VAL43       0.0020
     33  N         11.9450   47.9780   26.0530 N.am   44  PRO44      -0.2729
     34  CA        12.7360   49.2020   26.1360 C.3    44  PRO44       0.1401
     35  C         14.2170   48.9560   26.3530 C.2    44  PRO44       0.2269
     36  O         14.6010   48.3500   27.3440 O.2    44  PRO44      -0.2865
     37  CB        12.1360   49.9010   27.3510 C.3    44  PRO44       0.0296
     38  CG        10.6950   49.5420   27.2680 C.3    44  PRO44       0.0237
     39  CD        10.6470   48.1350   26.7360 C.3    44  PRO44       0.0939
     40  N         16.4500   47.0310   25.1930 N.3    46  TYR46      -0.1241
     41  CA        17.1260   45.7320   25.0990 C.3    46  TYR46       0.1605
     42  C         17.9730   45.6790   23.8280 C.2    46  TYR46       0.2264
     43  O         19.1340   45.3020   23.8810 O.2    46  TYR46      -0.2867
     44  CB        16.1390   44.5510   25.1390 C.3    46  TYR46       0.0534
     45  CG        16.8220   43.2460   25.5410 C.ar   46  TYR46      -0.0201
     46  CD1       16.9320   42.8740   26.8830 C.ar   46  TYR46      -0.0009
     47  CD2       17.3900   42.4060   24.5820 C.ar   46  TYR46      -0.0009
     48  CE1       17.5800   41.6730   27.2540 C.ar   46  TYR46       0.0417
     49  CE2       18.0370   41.2110   24.9500 C.ar   46  TYR46       0.0417
     50  CZ        18.1300   40.8520   26.2750 C.ar   46  TYR46       0.1957
     51  OH        18.7850   39.6660   26.6240 O.3    46  TYR46      -0.2866
     52  N         21.4360   38.2160   30.7440 N.3    85  CYS85      -0.1235
     53  CA        20.4700   38.3160   31.8400 C.3    85  CYS85       0.1677
     54  C         20.9710   39.1990   32.9790 C.2    85  CYS85       0.2270
     55  O         20.2230   40.0410   33.4880 O.2    85  CYS85      -0.2867
     56  CB        20.1240   36.9230   32.3930 C.3    85  CYS85       0.0956
     57  SG        18.8280   36.9170   33.6890 S.3    85  CYS85      -0.0801
     58  N         21.0190   43.0340   32.1320 N.3    88  PHE88      -0.1227
     59  CA        19.7740   43.7630   31.9490 C.3    88  PHE88       0.1736
     60  C         18.8290   43.6970   33.1480 C.2    88  PHE88       0.2595
     61  O         17.9530   44.5440   33.2900 O.2    88  PHE88      -0.2718
     62  CB        19.0510   43.2500   30.7060 C.3    88  PHE88       0.0547
     63  CG        18.0740   44.2280   30.1270 C.ar   88  PHE88      -0.0202
     64  CD1       18.5130   45.2910   29.3450 C.ar   88  PHE88      -0.0042
     65  CD2       16.7090   44.0830   30.3520 C.ar   88  PHE88      -0.0042
     66  CE1       17.6020   46.1970   28.8030 C.ar   88  PHE88      -0.0003
     67  CE2       15.8000   44.9860   29.8200 C.ar   88  PHE88      -0.0003
     68  CZ        16.2490   46.0450   29.0400 C.ar   88  PHE88      -0.0000
     69  N         19.0030   42.6970   34.0040 N.am   89  ASN89      -0.1974
     70  CA        18.0920   42.4720   35.1180 C.3    89  ASN89       0.1688
     71  C         18.7660   42.6660   36.4720 C.2    89  ASN89       0.2292
     72  O         19.9300   42.3120   36.6580 O.2    89  ASN89      -0.2864
     73  CB        17.5030   41.0570   35.0390 C.3    89  ASN89       0.1181
     74  CG        16.6560   40.8480   33.8020 C.2    89  ASN89       0.2629
     75  OD1       15.4360   41.0480   33.8270 O.2    89  ASN89      -0.2716
     76  ND2       17.2920   40.4330   32.7140 N.am   89  ASN89      -0.0877
     77  N         13.5600   37.2140   37.4180 N.3    95  ILE95      -0.1245
     78  CA        14.3720   36.8750   36.2440 C.3    95  ILE95       0.1561
     79  C         15.8720   36.9080   36.5680 C.2    95  ILE95       0.2260
     80  O         16.6440   36.0400   36.1370 O.2    95  ILE95      -0.2867
     81  CB        14.0500   37.8270   35.0710 C.3    95  ILE95       0.0252
     82  CG1       12.6380   37.5530   34.5580 C.3    95  ILE95       0.0019
     83  CG2       15.0680   37.6780   33.9480 C.3    95  ILE95       0.0019
     84  CD1       12.2240   38.4670   33.3960 C.3    95  ILE95       0.0001
@<TRIPOS>BOND
     1    22    21    2
     2    21    20    1
     3    19    20    1
     4    42    43    2
     5    42    41    1
     6    20    23    1
     7    26    27    1
     8    47    49   ar
     9    47    45   ar
    10    29    28    2
    11    23    24    1
    12    23    25    1
    13    49    50   ar
    14    41    44    1
    15    41    40    1
    16    44    45    1
    17    28    27    1
    18    28    33   am
    19    45    46   ar
    20    27    30    1
    21    30    32    1
    22    30    31    1
    23    33    34    1
    24    33    39    1
    25    34    35    1
    26    34    37    1
    27    50    51    1
    28    50    48   ar
    29    35    36    2
    30    11    10    2
    31    39    38    1
    32    46    48   ar
    33    10     9    1
    34    38    37    1
    35     9    12    1
    36     9     8    1
    37    66    68   ar
    38    66    64   ar
    39     4     3    2
    40    68    67   ar
    41    12    13    1
    42    64    63   ar
    43     8     3   am
    44     3     2    1
    45    67    65   ar
    46    63    65   ar
    47    63    62    1
    48    14    13   ar
    49    14    16   ar
    50    13    15   ar
    51    62    59    1
    52    52    53    1
    53     2     1    1
    54     2     5    1
    55    16    18   ar
    56     1     7    1
    57    15    17   ar
    58    53    56    1
    59    53    54    1
    60     5     6    1
    61    59    58    1
    62    59    60    1
    63    56    57    1
    64    18    17   ar
    65    76    74   am
    66     7     6    1
    67    54    55    2
    68    60    61    2
    69    60    69   am
    70    84    82    1
    71    74    75    2
    72    74    73    1
    73    83    81    1
    74    69    70    1
    75    82    81    1
    76    73    70    1
    77    81    78    1
    78    70    71    1
    79    80    79    2
    80    78    79    1
    81    78    77    1
    82    71    72    2
