@<TRIPOS>MOLECULE
tmp/5cudA00.pdb
 107 105 0 0 0
SMALL
GASTEIGER

@<TRIPOS>ATOM
      1  N         11.6520   30.2700   32.1560 N.3    32  TRP32      -0.1228
      2  CA        10.6920   31.0530   31.3710 C.3    32  TRP32       0.1722
      3  C         11.2170   32.3860   30.8040 C.2    32  TRP32       0.2437
      4  O         10.7270   32.8160   29.7520 O.2    32  TRP32      -0.2733
      5  CB         9.4120   31.3120   32.1920 C.3    32  TRP32       0.0563
      6  CG         9.6510   31.9820   33.4890 C.ar   32  TRP32       0.0003
      7  CD1        9.8540   31.3800   34.6970 C.ar   32  TRP32       0.0946
      8  CD2        9.7140   33.3900   33.7200 C.ar   32  TRP32       0.0152
      9  NE1       10.0490   32.3330   35.6640 N.ar   32  TRP32      -0.2442
     10  CE2        9.9710   33.5750   35.0900 C.ar   32  TRP32       0.0810
     11  CE3        9.5900   34.5160   32.9020 C.ar   32  TRP32       0.0012
     12  CZ2       10.1040   34.8380   35.6580 C.ar   32  TRP32       0.0191
     13  CZ3        9.7220   35.7640   33.4660 C.ar   32  TRP32       0.0001
     14  CH2        9.9710   35.9170   34.8300 C.ar   32  TRP32       0.0015
     15  N         12.2160   33.0340   31.4470 N.am   33  PRO33      -0.2718
     16  CA        12.6760   34.2520   30.7660 C.3    33  PRO33       0.1535
     17  C         13.5250   33.9820   29.5290 C.2    33  PRO33       0.2598
     18  O         13.8260   34.9420   28.8160 O.2    33  PRO33      -0.2715
     19  CB        13.5400   34.9590   31.8280 C.3    33  PRO33       0.0310
     20  CG        13.1720   34.3210   33.1400 C.3    33  PRO33       0.0237
     21  CD        12.8390   32.9050   32.7790 C.3    33  PRO33       0.0939
     22  N         13.9080   32.7240   29.3020 N.am   34  PHE34      -0.1974
     23  CA        14.9820   32.3810   28.3580 C.3    34  PHE34       0.1639
     24  C         14.5430   31.4650   27.2290 C.2    34  PHE34       0.2290
     25  O         15.3440   31.1210   26.3480 O.2    34  PHE34      -0.2864
     26  CB        16.1460   31.7340   29.1180 C.3    34  PHE34       0.0560
     27  CG        16.5280   32.4770   30.3620 C.ar   34  PHE34      -0.0200
     28  CD1       17.0260   33.7780   30.2810 C.ar   34  PHE34      -0.0042
     29  CD2       16.3660   31.8990   31.6150 C.ar   34  PHE34      -0.0042
     30  CE1       17.3530   34.4940   31.4300 C.ar   34  PHE34      -0.0003
     31  CE2       16.7110   32.6060   32.7780 C.ar   34  PHE34      -0.0003
     32  CZ        17.1960   33.9010   32.6840 C.ar   34  PHE34      -0.0000
     33  N         12.4220   31.9730   24.7230 N.3    36  LEU36      -0.1245
     34  CA        12.2670   32.6360   23.4290 C.3    36  LEU36       0.1561
     35  C         13.1130   33.9030   23.3500 C.2    36  LEU36       0.2260
     36  O         13.4820   34.4640   24.3820 O.2    36  LEU36      -0.2867
     37  CB        10.7910   32.9730   23.2020 C.3    36  LEU36       0.0270
     38  CG         9.8380   31.7930   23.0500 C.3    36  LEU36       0.0019
     39  CD1        8.4010   32.3060   22.9540 C.3    36  LEU36       0.0001
     40  CD2       10.2070   30.9860   21.8240 C.3    36  LEU36       0.0001
     41  N         14.1350   37.6510   23.3630 N.3    38  VAL38      -0.1231
     42  CA        13.5600   38.8660   23.9200 C.3    38  VAL38       0.1692
     43  C         12.9170   39.6700   22.7990 C.2    38  VAL38       0.2592
     44  O         13.5040   39.8310   21.7300 O.2    38  VAL38      -0.2718
     45  CB        14.6260   39.7220   24.6360 C.3    38  VAL38       0.0266
     46  CG1       14.0490   41.0950   25.0360 C.3    38  VAL38       0.0020
     47  CG2       15.1830   38.9750   25.8490 C.3    38  VAL38       0.0020
     48  N         11.6980   40.1430   23.0370 N.am   39  ASN39      -0.1974
     49  CA        10.9790   40.9370   22.0480 C.3    39  ASN39       0.1688
     50  C         11.6150   42.3110   21.9050 C.2    39  ASN39       0.2292
     51  O         11.4210   43.1780   22.7580 O.2    39  ASN39      -0.2864
     52  CB         9.5040   41.0680   22.4400 C.3    39  ASN39       0.1181
     53  CG         8.6330   41.5080   21.2850 C.2    39  ASN39       0.2629
     54  OD1        9.0680   42.2680   20.4110 O.2    39  ASN39      -0.2716
     55  ND2        7.4010   41.0200   21.2610 N.am   39  ASN39      -0.0877
     56  N         10.6240   45.6330   24.3000 N.3    43  VAL43      -0.1245
     57  CA        11.4730   45.7980   25.4700 C.3    43  VAL43       0.1561
     58  C         12.4740   46.9150   25.2230 C.2    43  VAL43       0.2260
     59  O         13.4390   46.7510   24.4640 O.2    43  VAL43      -0.2867
     60  CB        12.2100   44.4970   25.8400 C.3    43  VAL43       0.0252
     61  CG1       13.1500   44.7320   27.0160 C.3    43  VAL43       0.0019
     62  CG2       11.2070   43.4000   26.1680 C.3    43  VAL43       0.0019
     63  N         16.7930   46.9620   25.0440 N.3    46  TYR46      -0.1241
     64  CA        17.4310   45.6580   24.8250 C.3    46  TYR46       0.1605
     65  C         18.2550   45.5910   23.5480 C.2    46  TYR46       0.2264
     66  O         19.3870   45.0910   23.5590 O.2    46  TYR46      -0.2867
     67  CB        16.4030   44.5210   24.8150 C.3    46  TYR46       0.0534
     68  CG        17.0320   43.2280   25.2910 C.ar   46  TYR46      -0.0201
     69  CD1       17.0850   42.9230   26.6420 C.ar   46  TYR46      -0.0009
     70  CD2       17.6070   42.3460   24.3950 C.ar   46  TYR46      -0.0009
     71  CE1       17.6820   41.7460   27.0940 C.ar   46  TYR46       0.0417
     72  CE2       18.2040   41.1620   24.8250 C.ar   46  TYR46       0.0417
     73  CZ        18.2440   40.8680   26.1740 C.ar   46  TYR46       0.1957
     74  OH        18.8420   39.6970   26.6130 O.3    46  TYR46      -0.2866
     75  N         21.5750   38.2130   30.6280 N.3    85  CYS85      -0.1235
     76  CA        20.5860   38.3910   31.6860 C.3    85  CYS85       0.1677
     77  C         21.1520   39.2530   32.8140 C.2    85  CYS85       0.2270
     78  O         20.4650   40.1440   33.3210 O.2    85  CYS85      -0.2867
     79  CB        20.1180   37.0380   32.2360 C.3    85  CYS85       0.0956
     80  SG        18.8840   37.1220   33.5680 S.3    85  CYS85      -0.0801
     81  N         21.4440   43.0630   31.9380 N.3    88  PHE88      -0.1227
     82  CA        20.2110   43.8190   31.7680 C.3    88  PHE88       0.1736
     83  C         19.2770   43.8100   32.9930 C.2    88  PHE88       0.2595
     84  O         18.3620   44.6460   33.0970 O.2    88  PHE88      -0.2718
     85  CB        19.4500   43.2870   30.5530 C.3    88  PHE88       0.0547
     86  CG        18.4990   44.2790   29.9500 C.ar   88  PHE88      -0.0202
     87  CD1       18.9650   45.2820   29.1150 C.ar   88  PHE88      -0.0042
     88  CD2       17.1420   44.2040   30.2040 C.ar   88  PHE88      -0.0042
     89  CE1       18.0870   46.2010   28.5350 C.ar   88  PHE88      -0.0003
     90  CE2       16.2590   45.1140   29.6300 C.ar   88  PHE88      -0.0003
     91  CZ        16.7330   46.1130   28.7950 C.ar   88  PHE88      -0.0000
     92  N         19.4680   42.8660   33.9050 N.am   89  ASN89      -0.1974
     93  CA        18.5800   42.7620   35.0580 C.3    89  ASN89       0.1688
     94  C         19.3190   42.8580   36.3940 C.2    89  ASN89       0.2292
     95  O         20.4700   42.4220   36.5160 O.2    89  ASN89      -0.2864
     96  CB        17.7730   41.4590   35.0160 C.3    89  ASN89       0.1181
     97  CG        17.0530   41.2460   33.7000 C.2    89  ASN89       0.2629
     98  OD1       17.6270   40.7690   32.7250 O.2    89  ASN89      -0.2716
     99  ND2       15.7810   41.5940   33.6760 N.am   89  ASN89      -0.0877
    100  N         13.7020   37.8920   37.1970 N.3    95  ILE95      -0.1245
    101  CA        14.4820   37.4590   36.0380 C.3    95  ILE95       0.1561
    102  C         15.9520   37.3110   36.4010 C.2    95  ILE95       0.2260
    103  O         16.6070   36.3480   35.9920 O.2    95  ILE95      -0.2867
    104  CB        14.3230   38.4360   34.8530 C.3    95  ILE95       0.0252
    105  CG1       12.8720   38.4130   34.3490 C.3    95  ILE95       0.0019
    106  CG2       15.3110   38.1160   33.7300 C.3    95  ILE95       0.0019
    107  CD1       12.5680   39.5190   33.3600 C.3    95  ILE95       0.0001
@<TRIPOS>BOND
     1    54    53    2
     2    55    53   am
     3    53    52    1
     4    44    43    2
     5    40    38    1
     6    50    49    1
     7    50    51    2
     8    49    52    1
     9    49    48    1
    10    43    48   am
    11    43    42    1
    12    39    38    1
    13    38    37    1
    14    37    34    1
    15    35    34    1
    16    35    36    2
    17    41    42    1
    18    34    33    1
    19    65    66    2
    20    65    64    1
    21    42    45    1
    22    56    57    1
    23    70    72   ar
    24    70    68   ar
    25    59    58    2
    26    45    46    1
    27    45    47    1
    28    67    64    1
    29    67    68    1
    30    64    63    1
    31    72    73   ar
    32    58    57    1
    33    68    69   ar
    34    57    60    1
    35    60    62    1
    36    60    61    1
    37    73    74    1
    38    73    71   ar
    39    25    24    2
    40    69    71   ar
    41    24    23    1
    42    23    26    1
    43    23    22    1
    44    89    91   ar
    45    89    87   ar
    46    91    90   ar
    47    18    17    2
    48    87    86   ar
    49    26    27    1
    50    22    17   am
    51    17    16    1
    52    90    88   ar
    53     4     3    2
    54    86    88   ar
    55    86    85    1
    56    28    27   ar
    57    28    30   ar
    58    27    29   ar
    59    85    82    1
    60    75    76    1
    61    16    15    1
    62    16    19    1
    63     3     2    1
    64     3    15   am
    65     2     1    1
    66     2     5    1
    67    30    32   ar
    68    15    21    1
    69    29    31   ar
    70    76    79    1
    71    76    77    1
    72    82    81    1
    73    82    83    1
    74    19    20    1
    75     5     6    1
    76    79    80    1
    77    32    31   ar
    78    98    97    2
    79    21    20    1
    80    77    78    2
    81    11    13   ar
    82    11     8   ar
    83    83    84    2
    84    83    92   am
    85   107   105    1
    86    13    14   ar
    87     6     8   ar
    88     6     7   ar
    89    99    97   am
    90    97    96    1
    91     8    10   ar
    92   106   104    1
    93    92    93    1
    94   105   104    1
    95     7     9   ar
    96    14    12   ar
    97   104   101    1
    98    96    93    1
    99    93    94    1
   100    10    12   ar
   101    10     9   ar
   102   103   102    2
   103   101   102    1
   104   101   100    1
   105    94    95    2
