@<TRIPOS>MOLECULE
tmp/5cueA00.pdb
 85 82 0 0 0
SMALL
GASTEIGER

@<TRIPOS>ATOM
      1  N         12.1760   33.0050   31.6780 N.3    33  PRO33      -0.2102
      2  CA        12.6330   34.2180   30.9740 C.3    33  PRO33       0.1504
      3  C         13.4800   33.9360   29.7160 C.2    33  PRO33       0.2575
      4  O         13.7270   34.8570   28.9240 O.2    33  PRO33      -0.2718
      5  CB        13.4910   34.9460   32.0260 C.3    33  PRO33       0.0282
      6  CG        13.1440   34.3050   33.3560 C.3    33  PRO33       0.0208
      7  CD        12.8010   32.8800   33.0080 C.3    33  PRO33       0.0893
      8  N         13.9160   32.6910   29.5480 N.am   34  PHE34      -0.1977
      9  CA        14.9930   32.3700   28.6120 C.3    34  PHE34       0.1639
     10  C         14.5510   31.4740   27.4480 C.2    34  PHE34       0.2290
     11  O         15.3570   31.1590   26.5700 O.2    34  PHE34      -0.2864
     12  CB        16.1590   31.7140   29.3820 C.3    34  PHE34       0.0560
     13  CG        16.5540   32.4820   30.6150 C.ar   34  PHE34      -0.0200
     14  CD1       17.0360   33.7870   30.5000 C.ar   34  PHE34      -0.0042
     15  CD2       16.4170   31.9250   31.8840 C.ar   34  PHE34      -0.0042
     16  CE1       17.3830   34.5310   31.6420 C.ar   34  PHE34      -0.0003
     17  CE2       16.7680   32.6540   33.0410 C.ar   34  PHE34      -0.0003
     18  CZ        17.2440   33.9480   32.9230 C.ar   34  PHE34      -0.0000
     19  N         14.1280   37.6990   23.5030 N.3    38  VAL38      -0.1231
     20  CA        13.5540   38.9260   24.0480 C.3    38  VAL38       0.1692
     21  C         13.0280   39.7690   22.8880 C.2    38  VAL38       0.2592
     22  O         13.7040   39.9000   21.8620 O.2    38  VAL38      -0.2718
     23  CB        14.5970   39.7430   24.8500 C.3    38  VAL38       0.0266
     24  CG1       14.0140   41.1130   25.2810 C.3    38  VAL38       0.0020
     25  CG2       15.1100   38.9360   26.0490 C.3    38  VAL38       0.0020
     26  N         11.8290   40.3280   23.0470 N.am   39  ASN39      -0.1974
     27  CA        11.1970   41.1020   21.9790 C.3    39  ASN39       0.1688
     28  C         11.8390   42.4800   21.8730 C.2    39  ASN39       0.2292
     29  O         11.6020   43.3670   22.6940 O.2    39  ASN39      -0.2864
     30  CB         9.6810   41.2200   22.2160 C.3    39  ASN39       0.1181
     31  CG         8.9460   41.8470   21.0310 C.2    39  ASN39       0.2629
     32  OD1        9.5050   42.6580   20.2870 O.2    39  ASN39      -0.2716
     33  ND2        7.6880   41.4720   20.8570 N.am   39  ASN39      -0.0877
     34  N         10.8600   45.8150   24.2920 N.3    43  VAL43      -0.1245
     35  CA        11.6410   46.0060   25.5120 C.3    43  VAL43       0.1561
     36  C         12.6480   47.1260   25.2930 C.2    43  VAL43       0.2260
     37  O         13.6070   46.9680   24.5440 O.2    43  VAL43      -0.2867
     38  CB        12.3640   44.7200   25.9530 C.3    43  VAL43       0.0252
     39  CG1       13.2350   44.9900   27.1910 C.3    43  VAL43       0.0019
     40  CG2       11.3530   43.6080   26.2370 C.3    43  VAL43       0.0019
     41  N         16.9620   47.1370   25.2020 N.3    46  TYR46      -0.1241
     42  CA        17.5700   45.8170   24.9800 C.3    46  TYR46       0.1605
     43  C         18.3780   45.7630   23.6860 C.2    46  TYR46       0.2264
     44  O         19.5280   45.3010   23.6950 O.2    46  TYR46      -0.2867
     45  CB        16.5230   44.6830   24.9790 C.3    46  TYR46       0.0534
     46  CG        17.1380   43.3780   25.4650 C.ar   46  TYR46      -0.0201
     47  CD1       17.2360   43.0970   26.8190 C.ar   46  TYR46      -0.0009
     48  CD2       17.6770   42.4640   24.5690 C.ar   46  TYR46      -0.0009
     49  CE1       17.8290   41.9050   27.2680 C.ar   46  TYR46       0.0417
     50  CE2       18.2570   41.2800   24.9970 C.ar   46  TYR46       0.0417
     51  CZ        18.3430   40.9990   26.3450 C.ar   46  TYR46       0.1957
     52  OH        18.9490   39.8140   26.7620 O.3    46  TYR46      -0.2866
     53  N         21.6860   38.3200   30.8290 N.3    85  CYS85      -0.1235
     54  CA        20.6910   38.5000   31.8770 C.3    85  CYS85       0.1677
     55  C         21.2520   39.3810   32.9970 C.2    85  CYS85       0.2270
     56  O         20.5680   40.2790   33.4970 O.2    85  CYS85      -0.2867
     57  CB        20.2450   37.1390   32.4190 C.3    85  CYS85       0.0956
     58  SG        19.0200   37.1740   33.8020 S.3    85  CYS85      -0.0801
     59  N         21.4620   43.1540   32.1140 N.3    88  PHE88      -0.1227
     60  CA        20.2110   43.9010   31.9430 C.3    88  PHE88       0.1736
     61  C         19.3140   43.9020   33.1800 C.2    88  PHE88       0.2595
     62  O         18.3830   44.7010   33.2720 O.2    88  PHE88      -0.2718
     63  CB        19.4160   43.3420   30.7500 C.3    88  PHE88       0.0547
     64  CG        18.4040   44.3070   30.1780 C.ar   88  PHE88      -0.0202
     65  CD1       18.8050   45.3240   29.3090 C.ar   88  PHE88      -0.0042
     66  CD2       17.0580   44.1760   30.4710 C.ar   88  PHE88      -0.0042
     67  CE1       17.8750   46.2100   28.7520 C.ar   88  PHE88      -0.0003
     68  CE2       16.1140   45.0480   29.9220 C.ar   88  PHE88      -0.0003
     69  CZ        16.5190   46.0700   29.0620 C.ar   88  PHE88      -0.0000
     70  N         19.5860   43.0060   34.1190 N.am   89  ASN89      -0.1974
     71  CA        18.7110   42.8080   35.2660 C.3    89  ASN89       0.1688
     72  C         19.4240   42.9830   36.6030 C.2    89  ASN89       0.2292
     73  O         20.5960   42.6160   36.7550 O.2    89  ASN89      -0.2864
     74  CB        18.0790   41.4170   35.2110 C.3    89  ASN89       0.1181
     75  CG        17.2100   41.2210   33.9830 C.2    89  ASN89       0.2629
     76  OD1       16.0490   41.6090   33.9790 O.2    89  ASN89      -0.2716
     77  ND2       17.7750   40.6210   32.9300 N.am   89  ASN89      -0.0877
     78  N         13.8680   37.9380   37.3790 N.3    95  ILE95      -0.1245
     79  CA        14.6160   37.5130   36.2020 C.3    95  ILE95       0.1561
     80  C         16.0770   37.3590   36.5880 C.2    95  ILE95       0.2260
     81  O         16.7040   36.3570   36.2620 O.2    95  ILE95      -0.2867
     82  CB        14.4370   38.4960   35.0340 C.3    95  ILE95       0.0252
     83  CG1       12.9770   38.4370   34.5500 C.3    95  ILE95       0.0019
     84  CG2       15.3890   38.1480   33.8810 C.3    95  ILE95       0.0019
     85  CD1       12.7080   39.2290   33.2840 C.3    95  ILE95       0.0001
@<TRIPOS>BOND
     1    32    31    2
     2    33    31   am
     3    31    30    1
     4    22    21    2
     5    28    27    1
     6    28    29    2
     7    27    30    1
     8    27    26    1
     9    21    26   am
    10    21    20    1
    11    19    20    1
    12    43    44    2
    13    43    42    1
    14    20    23    1
    15    34    35    1
    16    37    36    2
    17    48    50   ar
    18    48    46   ar
    19    23    24    1
    20    23    25    1
    21    45    42    1
    22    45    46    1
    23    42    41    1
    24    50    51   ar
    25    36    35    1
    26    46    47   ar
    27    35    38    1
    28    38    40    1
    29    38    39    1
    30    51    52    1
    31    51    49   ar
    32    11    10    2
    33    47    49   ar
    34    10     9    1
    35     9    12    1
    36     9     8    1
    37    67    69   ar
    38    67    65   ar
    39     4     3    2
    40    69    68   ar
    41    65    64   ar
    42    12    13    1
    43     8     3   am
    44     3     2    1
    45    68    66   ar
    46    64    66   ar
    47    64    63    1
    48    14    13   ar
    49    14    16   ar
    50    13    15   ar
    51    63    60    1
    52    53    54    1
    53     2     1    1
    54     2     5    1
    55    16    18   ar
    56     1     7    1
    57    54    57    1
    58    54    55    1
    59    15    17   ar
    60    60    59    1
    61    60    61    1
    62     5     6    1
    63    57    58    1
    64    18    17   ar
    65    77    75   am
    66    55    56    2
    67     7     6    1
    68    61    62    2
    69    61    70   am
    70    85    83    1
    71    84    82    1
    72    76    75    2
    73    75    74    1
    74    70    71    1
    75    83    82    1
    76    82    79    1
    77    74    71    1
    78    71    72    1
    79    79    80    1
    80    79    78    1
    81    81    80    2
    82    72    73    2
