@<TRIPOS>MOLECULE
tmp/5cuhB00.pdb
 166 165 0 0 0
SMALL
GASTEIGER

@<TRIPOS>ATOM
      1  N         57.6160   20.2630    5.0660 N.3    81  GLY81      -0.1210
      2  CA        56.3320   19.9700    4.4050 C.3    81  GLY81       0.1956
      3  C         55.3670   19.3550    5.4310 C.2    81  GLY81       0.2612
      4  O         55.1940   19.8850    6.5690 O.2    81  GLY81      -0.2717
      5  N         54.7470   18.2410    5.0360 N.am   82  LEU82      -0.1965
      6  CA        53.8170   17.5120    5.9390 C.3    82  LEU82       0.1728
      7  C         54.6270   16.9700    7.1550 C.2    82  LEU82       0.2616
      8  O         55.5460   16.2050    6.9440 O.2    82  LEU82      -0.2715
      9  CB        53.1800   16.3600    5.1330 C.3    82  LEU82       0.0311
     10  CG        52.1600   15.4580    5.8300 C.3    82  LEU82       0.0022
     11  CD1       51.0680   16.2920    6.5320 C.3    82  LEU82       0.0001
     12  CD2       51.5360   14.5460    4.7630 C.3    82  LEU82       0.0001
     13  N         54.2700   17.3140    8.4010 N.am   83  LEU83      -0.1963
     14  CA        55.0010   16.8230    9.5770 C.3    83  LEU83       0.1728
     15  C         54.3450   15.5780   10.2160 C.2    83  LEU83       0.2616
     16  O         55.0020   14.7880   10.8890 O.2    83  LEU83      -0.2715
     17  CB        55.0690   17.9430   10.6260 C.3    83  LEU83       0.0311
     18  CG        55.5570   19.3460   10.1360 C.3    83  LEU83       0.0022
     19  CD1       55.6250   20.2080   11.3740 C.3    83  LEU83       0.0001
     20  CD2       56.9670   19.1970    9.5150 C.3    83  LEU83       0.0001
     21  N         53.0100   15.5260   10.0980 N.am   84  ALA84      -0.1963
     22  CA        52.1940   14.5090   10.7860 C.3    84  ALA84       0.1728
     23  C         50.7680   14.6550   10.2870 C.2    84  ALA84       0.2616
     24  O         50.3910   15.7100    9.7810 O.2    84  ALA84      -0.2715
     25  CB        52.2120   14.7250   12.2810 C.3    84  ALA84       0.0334
     26  N         49.9270   13.6360   10.4940 N.am   85  HIS85      -0.1959
     27  CA        48.5050   13.8180   10.2180 C.3    85  HIS85       0.1787
     28  C         47.7650   12.8910   11.1670 C.2    85  HIS85       0.2620
     29  O         48.3610   11.9810   11.8050 O.2    85  HIS85      -0.2715
     30  CB        48.0750   13.5630    8.7620 C.3    85  HIS85       0.0785
     31  CG        48.5320   12.2540    8.1750 C.ar   85  HIS85       0.0821
     32  ND1       48.9040   12.1420    6.8510 N.ar   85  HIS85      -0.2267
     33  CD2       48.6580   11.0050    8.7070 C.ar   85  HIS85       0.1154
     34  CE1       49.2100   10.8870    6.5830 C.ar   85  HIS85       0.1986
     35  NE2       49.0750   10.1760    7.6940 N.ar   85  HIS85      -0.2212
     36  N         46.4600   13.1290   11.2750 N.am   86  ALA86      -0.1977
     37  CA        45.6770   12.2970   12.2050 C.3    86  ALA86       0.1597
     38  C         44.2860   12.1850   11.6590 C.2    86  ALA86       0.2287
     39  O         43.8550   13.0690   10.9220 O.2    86  ALA86      -0.2864
     40  CB        45.6580   12.9620   13.5880 C.3    86  ALA86       0.0319
     41  N         54.4540   19.6630   20.8760 N.3   117  LEU117     -0.1231
     42  CA        53.4850   20.6260   20.2850 C.3   117  LEU117      0.1693
     43  C         52.7590   19.9870   19.0940 C.2   117  LEU117      0.2591
     44  O         51.5670   20.2020   18.9010 O.2   117  LEU117     -0.2718
     45  CB        54.2280   21.9050   19.8540 C.3   117  LEU117      0.0284
     46  CG        54.7580   22.6780   21.0870 C.3   117  LEU117      0.0019
     47  CD1       55.6490   23.8360   20.6810 C.3   117  LEU117      0.0001
     48  CD2       53.5730   23.1990   21.9560 C.3   117  LEU117      0.0001
     49  N         53.4870   19.2370   18.2350 N.am  118  VAL118     -0.1980
     50  CA        52.8640   18.6200   17.0520 C.3   118  VAL118      0.1595
     51  C         51.8390   17.6000   17.5400 C.2   118  VAL118      0.2287
     52  O         50.7240   17.5470   17.0030 O.2   118  VAL118     -0.2864
     53  CB        53.9420   17.9960   16.0500 C.3   118  VAL118      0.0276
     54  CG1       53.2390   17.1570   14.9360 C.3   118  VAL118      0.0022
     55  CG2       54.7830   19.1000   15.4160 C.3   118  VAL118      0.0022
     56  N         48.5620   19.2050   18.6370 N.3   121  HIS121     -0.1226
     57  CA        47.7740   19.5680   17.4580 C.3   121  HIS121      0.1752
     58  C         47.1330   18.3190   16.8520 C.2   121  HIS121      0.2592
     59  O         45.9350   18.2930   16.6620 O.2   121  HIS121     -0.2718
     60  CB        48.6890   20.2490   16.3950 C.3   121  HIS121      0.0759
     61  CG        47.9670   20.5650   15.1260 C.ar  121  HIS121      0.0818
     62  ND1       47.1710   21.6900   14.9840 N.ar  121  HIS121     -0.2268
     63  CD2       47.8270   19.8590   13.9730 C.ar  121  HIS121      0.1154
     64  CE1       46.6110   21.6800   13.7910 C.ar  121  HIS121      0.1986
     65  NE2       46.9840   20.5760   13.1620 N.ar  121  HIS121     -0.2212
     66  N         47.9190   17.2840   16.5280 N.am  122  GLU122     -0.2033
     67  CA        47.3280   16.0430   15.9930 C.3   122  GLU122      0.1288
     68  C         46.2510   15.3940   16.8850 C.3   122  GLU122      0.2036
     69  O         45.2310   14.8060   16.3690 O.3   122  GLU122     -0.2185
     70  CB        48.4170   14.9870   15.7270 C.3   122  GLU122      0.0362
     71  CG        49.5390   15.4770   14.8040 C.3   122  GLU122      0.1159
     72  CD        49.0010   16.1150   13.5400 C.2   122  GLU122      0.3649
     73  OE1       47.9750   15.6080   13.0330 O.co2 122  GLU122     -0.2457
     74  OE2       49.6120   17.1130   13.0170 O.co2 122  GLU122     -0.2457
     75  N         42.8910   16.7640   16.2600 N.3   125  HIS125     -0.1241
     76  CA        42.2020   16.0700   15.1320 C.3   125  HIS125      0.1621
     77  C         41.6260   14.6740   15.5580 C.2   125  HIS125      0.2264
     78  O         40.5060   14.3190   15.1630 O.2   125  HIS125     -0.2867
     79  CB        43.1220   15.7810   13.9620 C.3   125  HIS125      0.0745
     80  CG        43.6350   16.9940   13.2520 C.ar  125  HIS125      0.0817
     81  ND1       42.8120   18.0080   12.7960 N.ar  125  HIS125     -0.2268
     82  CD2       44.8970   17.3280   12.9050 C.ar  125  HIS125      0.1154
     83  CE1       43.5600   18.8980   12.1430 C.ar  125  HIS125      0.1986
     84  NE2       44.8350   18.5080   12.1940 N.ar  125  HIS125     -0.2212
     85  N         40.7830   22.0060   11.1390 N.3   131  HIS131     -0.1241
     86  CA        41.5880   23.2270   11.2610 C.3   131  HIS131      0.1621
     87  C         40.7220   24.4420   11.5590 C.2   131  HIS131      0.2264
     88  O         39.6060   24.5420   11.0400 O.2   131  HIS131     -0.2867
     89  CB        42.4480   23.4540   10.0700 C.3   131  HIS131      0.0745
     90  CG        43.5600   22.4820    9.9720 C.ar  131  HIS131      0.0817
     91  ND1       43.9790   21.9380    8.7740 N.ar  131  HIS131     -0.2268
     92  CD2       44.3210   21.8980   10.9420 C.ar  131  HIS131      0.1154
     93  CE1       44.9870   21.0980    9.0130 C.ar  131  HIS131      0.1986
     94  NE2       45.2280   21.0770   10.3120 N.ar  131  HIS131     -0.2212
     95  N         45.5560   26.5320   18.5470 N.3   138  LEU138     -0.1245
     96  CA        46.3580   25.3510   18.3810 C.3   138  LEU138      0.1561
     97  C         45.9530   24.6270   17.0550 C.2   138  LEU138      0.2260
     98  O         46.8360   24.0100   16.4150 O.2   138  LEU138     -0.2867
     99  CB        46.2040   24.4010   19.6060 C.3   138  LEU138      0.0270
    100  CG        46.9670   23.0520   19.4660 C.3   138  LEU138      0.0019
    101  CD1       48.4700   23.1680   19.2720 C.3   138  LEU138      0.0001
    102  CD2       46.6770   22.2120   20.6830 C.3   138  LEU138      0.0001
    103  N         44.9070   26.0440   14.2850 N.3   140  TYR140     -0.1228
    104  CA        45.2770   26.8390   13.1180 C.3   140  TYR140      0.1721
    105  C         46.5670   26.2910   12.5120 C.2   140  TYR140      0.2437
    106  O         47.5780   26.2430   13.2190 O.2   140  TYR140     -0.2733
    107  CB        45.4410   28.2940   13.4990 C.3   140  TYR140      0.0547
    108  CG        45.7970   29.2230   12.3510 C.ar  140  TYR140     -0.0200
    109  CD1       44.8020   29.7040   11.4860 C.ar  140  TYR140     -0.0009
    110  CD2       47.1170   29.6470   12.1670 C.ar  140  TYR140     -0.0009
    111  CE1       45.1160   30.5700   10.4400 C.ar  140  TYR140      0.0417
    112  CE2       47.4430   30.5430   11.1740 C.ar  140  TYR140      0.0417
    113  CZ        46.4350   30.9970   10.3030 C.ar  140  TYR140      0.1957
    114  OH        46.7640   31.8760    9.3010 O.3   140  TYR140     -0.2866
    115  N         46.5490   25.9120   11.2220 N.am  141  PRO141     -0.2718
    116  CA        47.5710   24.9650   10.6800 C.3   141  PRO141      0.1535
    117  C         48.8630   25.6280   10.3330 C.2   141  PRO141      0.2598
    118  O         49.2620   25.6900    9.1520 O.2   141  PRO141     -0.2715
    119  CB        46.8920   24.3320    9.4380 C.3   141  PRO141      0.0310
    120  CG        45.9640   25.4510    8.9860 C.3   141  PRO141      0.0237
    121  CD        45.4030   26.0750   10.2750 C.3   141  PRO141      0.0939
    122  N         49.5080   26.1810   11.3590 N.am  142  MET142     -0.1964
    123  CA        50.8340   26.6070   11.1350 C.3   142  MET142      0.1736
    124  C         51.7170   26.2440   12.3000 C.2   142  MET142      0.2616
    125  O         51.3710   26.5180   13.4200 O.2   142  MET142     -0.2715
    126  CB        50.8520   28.1000   10.9440 C.3   142  MET142      0.0427
    127  CG        51.9830   28.4330    9.9820 C.3   142  MET142      0.0599
    128  SD        52.7000   29.9540   10.4860 S.3   142  MET142     -0.1393
    129  CE        51.5880   30.6180   11.7500 C.3   142  MET142      0.0692
    130  N         52.8420   25.6460   11.9970 N.am  143  TYR143     -0.1960
    131  CA        53.7890   25.2280   12.9910 C.3   143  TYR143      0.1771
    132  C         54.3590   26.4690   13.6270 C.2   143  TYR143      0.2619
    133  O         54.8290   27.3440   12.9180 O.2   143  TYR143     -0.2715
    134  CB        54.9860   24.4280   12.4200 C.3   143  TYR143      0.0574
    135  CG        55.8970   24.0250   13.5650 C.ar  143  TYR143     -0.0198
    136  CD1       55.5590   22.9470   14.4070 C.ar  143  TYR143     -0.0009
    137  CD2       57.0690   24.7640   13.8500 C.ar  143  TYR143     -0.0009
    138  CE1       56.3600   22.6000   15.4910 C.ar  143  TYR143      0.0417
    139  CE2       57.8720   24.4500   14.9340 C.ar  143  TYR143      0.0417
    140  CZ        57.5190   23.3560   15.7640 C.ar  143  TYR143      0.1957
    141  OH        58.3090   22.9940   16.8540 O.3   143  TYR143     -0.2866
    142  N         54.3220   26.5290   14.9600 N.am  144  ARG144     -0.1977
    143  CA        55.1620   27.4840   15.7120 C.3   144  ARG144      0.1597
    144  C         55.6740   26.8580   16.9700 C.2   144  ARG144      0.2287
    145  O         54.9850   25.9770   17.5760 O.2   144  ARG144     -0.2864
    146  CB        54.3750   28.7570   16.0570 C.3   144  ARG144      0.0334
    147  CG        53.1170   28.4780   16.8370 C.3   144  ARG144      0.0492
    148  CD        51.9140   28.1960   15.9350 C.3   144  ARG144      0.2205
    149  NE        50.7030   28.7110   16.5530 N.pl3 144  ARG144     -0.0865
    150  CZ        49.4630   28.2920   16.3150 C.cat 144  ARG144      0.5346
    151  NH1       49.1880   27.3090   15.4420 N.pl3 144  ARG144      0.1354
    152  NH2       48.4900   28.8750   16.9800 N.pl3 144  ARG144      0.1354
    153  N         56.5120   27.3410   20.7650 N.3   146  THR146     -0.1218
    154  CA        56.1530   28.2020   21.8800 C.3   146  THR146      0.1862
    155  C         56.4790   27.4750   23.1810 C.2   146  THR146      0.2287
    156  O         56.4800   26.2210   23.2750 O.2   146  THR146     -0.2866
    157  CB        54.6800   28.6210   21.8230 C.3   146  THR146      0.1770
    158  OG1       54.4040   29.4850   22.9320 O.3   146  THR146     -0.2211
    159  CG2       53.7030   27.3420   21.9330 C.3   146  THR146      0.0375
    160  N         49.6450   25.9430   25.0170 N.3   150  PRO150     -0.2116
    161  CA        49.2380   25.7930   23.6050 C.3   150  PRO150      0.1372
    162  C         47.7340   26.0220   23.3200 C.2   150  PRO150      0.2244
    163  O         47.3990   26.4310   22.1930 O.2   150  PRO150     -0.2868
    164  CB        49.5770   24.3460   23.2860 C.3   150  PRO150      0.0268
    165  CG        50.4970   23.9240   24.3520 C.3   150  PRO150      0.0207
    166  CD        50.1590   24.6850   25.5760 C.3   150  PRO150      0.0892
@<TRIPOS>BOND
     1     2     1    1
     2     2     3    1
     3    12    10    1
     4     5     3   am
     5     5     6    1
     6     9    10    1
     7     9     6    1
     8     3     4    2
     9    10    11    1
    10     6     7    1
    11    34    32   ar
    12    34    35   ar
    13    32    31   ar
    14     8     7    2
    15     7    13   am
    16    35    33   ar
    17    31    33   ar
    18    31    30    1
    19    13    14    1
    20    30    27    1
    21    91    93   ar
    22    91    90   ar
    23   120   119    1
    24   120   121    1
    25    93    94   ar
    26   118   117    2
    27   114   113    1
    28   119   116    1
    29    20    18    1
    30    14    15    1
    31    14    17    1
    32    24    23    2
    33    90    89    1
    34    90    92   ar
    35   127   128    1
    36   127   126    1
    37    89    86    1
    38    21    15   am
    39    21    22    1
    40    18    17    1
    41    18    19    1
    42    15    16    2
    43    27    26    1
    44    27    28    1
    45   121   115    1
    46    23    26   am
    47    23    22    1
    48   113   111   ar
    49   113   112   ar
    50    94    92   ar
    51   117   116    1
    52   117   122   am
    53   111   109   ar
    54   128   129    1
    55   116   115    1
    56    22    25    1
    57    39    38    2
    58   126   123    1
    59    88    87    2
    60   123   122    1
    61   123   124    1
    62    85    86    1
    63    28    36   am
    64    28    29    2
    65   112   110   ar
    66   115   105   am
    67    86    87    1
    68    36    37    1
    69   109   108   ar
    70    38    37    1
    71   130   124   am
    72   130   131    1
    73    83    84   ar
    74    83    81   ar
    75   110   108   ar
    76    84    82   ar
    77    37    40    1
    78   124   125    2
    79   108   107    1
    80   134   131    1
    81   134   135    1
    82   105   104    1
    83   105   106    2
    84    81    80   ar
    85    82    80   ar
    86   133   132    2
    87   131   132    1
    88    74    72   ar
    89    73    72   ar
    90   104   107    1
    91   104   103    1
    92    65    64   ar
    93    65    63   ar
    94    80    79    1
    95    72    71    1
    96   135   137   ar
    97   135   136   ar
    98   132   142   am
    99    64    62   ar
   100   137   139   ar
   101    79    76    1
   102    63    61   ar
   103   136   138   ar
   104    71    70    1
   105   139   140   ar
   106    54    53    1
   107   142   143    1
   108    62    61   ar
   109    61    60    1
   110    76    77    1
   111    76    75    1
   112    78    77    2
   113    55    53    1
   114   151   150    1
   115   138   140   ar
   116   143   146    1
   117   143   144    1
   118    70    67    1
   119   140   141    1
   120   148   149    1
   121   148   147    1
   122    67    66    1
   123    67    68    1
   124    53    50    1
   125   146   147    1
   126   150   149    2
   127   150   152    1
   128    69    68    1
   129    60    57    1
   130    98    97    2
   131    66    58   am
   132    59    58    2
   133    58    57    1
   134   144   145    2
   135    52    51    2
   136    50    51    1
   137    50    49    1
   138    97    96    1
   139    57    56    1
   140    49    43   am
   141    96    95    1
   142    96    99    1
   143    44    43    2
   144    43    42    1
   145   101   100    1
   146   100    99    1
   147   100   102    1
   148    45    42    1
   149    45    46    1
   150    42    41    1
   151    47    46    1
   152   153   154    1
   153    46    48    1
   154   157   154    1
   155   157   159    1
   156   157   158    1
   157   154   155    1
   158   163   162    2
   159   155   156    2
   160   164   161    1
   161   164   165    1
   162   162   161    1
   163   161   160    1
   164   165   166    1
   165   160   166    1
