@<TRIPOS>MOLECULE
tmp/5cuoB01.pdb
 237 223 0 0 0
SMALL
GASTEIGER

@<TRIPOS>ATOM
      1  N          8.0790   56.0620   29.3700 N.3     8  GLY8       -0.1210
      2  CA         7.6640   54.8860   28.6290 C.3     8  GLY8        0.1956
      3  C          8.0390   55.0900   27.1760 C.2     8  GLY8        0.2612
      4  O          7.5600   56.0380   26.5480 O.2     8  GLY8       -0.2717
      5  N          8.9110   54.2300   26.6500 N.am    9  VAL9       -0.1965
      6  CA         9.3980   54.3750   25.2770 C.3     9  VAL9        0.1727
      7  C          8.6610   53.4470   24.3130 C.2     9  VAL9        0.2617
      8  O          8.6050   52.2330   24.5060 O.2     9  VAL9       -0.2715
      9  CB        10.9120   54.1000   25.1840 C.3     9  VAL9        0.0290
     10  CG1       11.4060   54.3420   23.7710 C.3     9  VAL9        0.0023
     11  CG2       11.6730   54.9750   26.1660 C.3     9  VAL9        0.0023
     12  N          8.1180   54.0450   23.2600 N.am   10  SER10      -0.1936
     13  CA         7.3050   53.3290   22.2890 C.3    10  SER10       0.2055
     14  C          8.0630   53.0240   21.0050 C.2    10  SER10       0.2643
     15  O          8.4560   53.9220   20.2710 O.2    10  SER10      -0.2714
     16  CB         6.0510   54.1360   21.9470 C.3    10  SER10       0.2130
     17  OG         5.2100   54.3000   23.0770 O.3    10  SER10      -0.2179
     18  N          8.2500   51.7450   20.7420 N.am   11  ASN11      -0.1957
     19  CA         8.5980   51.2870   19.4070 C.3    11  ASN11       0.1819
     20  C          7.3480   51.3500   18.5370 C.2    11  ASN11       0.2621
     21  O          6.2420   51.5100   19.0540 O.2    11  ASN11      -0.2715
     22  CB         9.1430   49.8690   19.4590 C.3    11  ASN11       0.1195
     23  CG         9.9660   49.5110   18.2460 C.2    11  ASN11       0.2630
     24  OD1       10.3560   50.3750   17.4550 O.2    11  ASN11      -0.2716
     25  ND2       10.2460   48.2250   18.0940 N.am   11  ASN11      -0.0877
     26  N          7.5190   51.2270   17.2270 N.am   12  ARG12      -0.1963
     27  CA         6.3710   51.1850   16.3160 C.3    12  ARG12       0.1729
     28  C          5.4060   50.0970   16.7520 C.2    12  ARG12       0.2616
     29  O          5.8190   49.0430   17.2270 O.2    12  ARG12      -0.2715
     30  CB         6.8300   50.9290   14.8810 C.3    12  ARG12       0.0348
     31  CG         7.3770   49.5130   14.6760 C.3    12  ARG12       0.0492
     32  CD         8.0640   49.3460   13.3350 C.3    12  ARG12       0.2205
     33  NE         9.2870   50.1330   13.2550 N.pl3  12  ARG12      -0.0865
     34  CZ        10.4860   49.7130   13.6500 C.cat  12  ARG12       0.5346
     35  NH1       11.5370   50.5120   13.5310 N.pl3  12  ARG12       0.1354
     36  NH2       10.6400   48.5000   14.1700 N.pl3  12  ARG12       0.1354
     37  N          4.1130   50.3460   16.5870 N.am   13  HIS13      -0.1973
     38  CA         3.1040   49.3780   17.0050 C.3    13  HIS13       0.1656
     39  C          1.7670   49.7240   16.3930 C.2    13  HIS13       0.2291
     40  O          1.6330   50.7580   15.7480 O.2    13  HIS13      -0.2864
     41  CB         2.9810   49.3260   18.5330 C.3    13  HIS13       0.0771
     42  CG         2.5320   50.6190   19.1440 C.ar   13  HIS13       0.0820
     43  ND1        3.3990   51.6460   19.4240 N.ar   13  HIS13      -0.2267
     44  CD2        1.3060   51.0450   19.5350 C.ar   13  HIS13       0.1154
     45  CE1        2.7380   52.6560   19.9520 C.ar   13  HIS13       0.1986
     46  NE2        1.4630   52.3210   20.0260 N.ar   13  HIS13      -0.2212
     47  N         -2.7140   49.5410   17.0140 N.3    15  HIS15      -0.1241
     48  CA        -3.9590   49.2470   17.7170 C.3    15  HIS15       0.1621
     49  C         -4.9730   48.8420   16.6590 C.2    15  HIS15       0.2264
     50  O         -5.0230   49.4690   15.6040 O.2    15  HIS15      -0.2867
     51  CB        -4.4670   50.4590   18.5020 C.3    15  HIS15       0.0745
     52  CG        -3.4540   51.0640   19.4250 C.ar   15  HIS15       0.0817
     53  ND1       -3.4260   50.7970   20.7800 N.ar   15  HIS15      -0.2268
     54  CD2       -2.4480   51.9420   19.1950 C.ar   15  HIS15       0.1154
     55  CE1       -2.4390   51.4800   21.3360 C.ar   15  HIS15       0.1986
     56  NE2       -1.8460   52.1950   20.3990 N.ar   15  HIS15      -0.2212
     57  N          0.8250   39.6530   26.4500 N.3    34  LYS34      -0.1231
     58  CA         2.2460   39.3530   26.5960 C.3    34  LYS34       0.1693
     59  C          2.8130   40.0900   27.8030 C.2    34  LYS34       0.2591
     60  O          3.4720   39.4910   28.6590 O.2    34  LYS34      -0.2718
     61  CB         2.9990   39.7360   25.3260 C.3    34  LYS34       0.0285
     62  CG         4.4960   39.4140   25.3700 C.3    34  LYS34       0.0035
     63  CD         5.1640   39.7260   24.0390 C.3    34  LYS34       0.0206
     64  CE         6.6010   39.2550   24.0080 C.3    34  LYS34       0.1093
     65  NZ         7.5360   40.3140   24.4780 N.3    34  LYS34      -0.1314
     66  N          2.5500   41.3940   27.8650 N.am   35  LYS35      -0.1980
     67  CA         3.0230   42.2500   28.9470 C.3    35  LYS35       0.1596
     68  C          2.0970   43.4530   29.1380 C.2    35  LYS35       0.2287
     69  O          1.7950   44.1750   28.1890 O.2    35  LYS35      -0.2864
     70  CB         4.4400   42.7350   28.6450 C.3    35  LYS35       0.0298
     71  CG         5.0320   43.6870   29.6810 C.3    35  LYS35       0.0038
     72  CD         6.3500   44.2390   29.1910 C.3    35  LYS35       0.0206
     73  CE         6.9560   45.2060   30.1800 C.3    35  LYS35       0.1093
     74  NZ         8.1580   45.8510   29.5970 N.3    35  LYS35      -0.1314
     75  N          1.1550   47.1940   29.9690 N.3    37  MET37      -0.1230
     76  CA         1.7680   48.5140   29.9660 C.3    37  MET37       0.1702
     77  C          1.4630   49.2050   31.2920 C.2    37  MET37       0.2592
     78  O          0.7290   48.6640   32.1280 O.2    37  MET37      -0.2718
     79  CB         1.2560   49.3540   28.7960 C.3    37  MET37       0.0401
     80  CG         1.4920   48.7430   27.4180 C.3    37  MET37       0.0596
     81  SD         3.2210   48.6350   26.9150 S.3    37  MET37      -0.1393
     82  CE         3.6980   47.0190   27.5150 C.3    37  MET37       0.0692
     83  N          2.0120   50.3990   31.4780 N.am   38  LYS38      -0.1966
     84  CA         1.7860   51.1610   32.7020 C.3    38  LYS38       0.1728
     85  C          0.3810   51.7500   32.7420 C.2    38  LYS38       0.2616
     86  O         -0.1720   51.9610   33.8230 O.2    38  LYS38      -0.2715
     87  CB         2.8130   52.2880   32.8380 C.3    38  LYS38       0.0311
     88  CG         4.2680   51.8540   32.7940 C.3    38  LYS38       0.0038
     89  CD         4.7260   51.2430   34.0960 C.3    38  LYS38       0.0206
     90  CE         6.2410   51.2090   34.1820 C.3    38  LYS38       0.1093
     91  NZ         6.8260   52.5900   34.1870 N.3    38  LYS38      -0.1314
     92  N         -0.1970   52.0380   31.5760 N.am   39  GLN39      -0.1977
     93  CA        -1.5370   52.6170   31.5480 C.3    39  GLN39       0.1601
     94  C         -2.5560   51.5110   31.7760 C.2    39  GLN39       0.2287
     95  O         -2.4900   50.4680   31.1180 O.2    39  GLN39      -0.2864
     96  CB        -1.8010   53.3470   30.2300 C.3    39  GLN39       0.0394
     97  CG        -0.8800   54.5470   29.9890 C.3    39  GLN39       0.0908
     98  CD        -0.8690   55.5230   31.1520 C.2    39  GLN39       0.2608
     99  OE1       -1.9160   56.0240   31.5680 O.2    39  GLN39      -0.2717
    100  NE2        0.3200   55.7990   31.6830 N.am   39  GLN39      -0.0878
    101  N         -4.0800   48.5180   29.3470 N.3    42  GLN42      -0.1245
    102  CA        -3.3320   48.4320   28.0980 C.3    42  GLN42       0.1566
    103  C         -2.2470   47.3530   28.1870 C.2    42  GLN42       0.2260
    104  O         -1.6640   47.1360   29.2500 O.2    42  GLN42      -0.2867
    105  CB        -2.7070   49.7940   27.7650 C.3    42  GLN42       0.0367
    106  CG        -3.7140   50.9370   27.6720 C.3    42  GLN42       0.0905
    107  CD        -4.6010   50.8410   26.4360 C.2    42  GLN42       0.2608
    108  OE1       -4.1190   50.8950   25.3010 O.2    42  GLN42      -0.2717
    109  NE2       -5.8960   50.6980   26.6530 N.am   42  GLN42      -0.0878
    110  N          0.9180   44.9730   25.6970 N.3    44  ALA44      -0.1245
    111  CA         1.5370   44.3810   24.5130 C.3    44  ALA44       0.1562
    112  C          0.9880   42.9740   24.3380 C.2    44  ALA44       0.2260
    113  O          0.9960   42.1680   25.2830 O.2    44  ALA44      -0.2867
    114  CB         3.0420   44.3510   24.6390 C.3    44  ALA44       0.0290
    115  N          7.2170   42.2070   12.1900 N.3    60  LYS60      -0.1245
    116  CA         7.1630   41.9600   13.6270 C.3    60  LYS60       0.1561
    117  C          6.7270   43.2130   14.3820 C.2    60  LYS60       0.2260
    118  O          7.3050   43.5610   15.4170 O.2    60  LYS60      -0.2867
    119  CB         8.5160   41.4800   14.1380 C.3    60  LYS60       0.0271
    120  CG         9.0660   40.2670   13.3930 C.3    60  LYS60       0.0035
    121  CD         8.1930   39.0360   13.5820 C.3    60  LYS60       0.0206
    122  CE         8.6590   37.8760   12.7130 C.3    60  LYS60       0.1093
    123  NZ        10.0610   37.4700   13.0110 N.3    60  LYS60      -0.1314
    124  N          4.4350   45.0380   16.7590 N.3    62  ARG62      -0.1245
    125  CA         3.6390   44.6350   17.9160 C.3    62  ARG62       0.1563
    126  C          2.2240   45.1930   17.9040 C.2    62  ARG62       0.2260
    127  O          2.0200   46.3750   17.6300 O.2    62  ARG62      -0.2867
    128  CB         4.3540   45.0840   19.1910 C.3    62  ARG62       0.0307
    129  CG         3.7440   44.6150   20.5010 C.3    62  ARG62       0.0489
    130  CD         3.8590   43.1210   20.7090 C.3    62  ARG62       0.2205
    131  NE         5.2190   42.6390   20.4660 N.pl3  62  ARG62      -0.0865
    132  CZ         5.5600   41.3610   20.3450 C.cat  62  ARG62       0.5346
    133  NH1        4.6540   40.4090   20.4730 N.pl3  62  ARG62       0.1354
    134  NH2        6.8210   41.0330   20.0970 N.pl3  62  ARG62       0.1354
    135  N         -0.9580   46.2270   20.2010 N.3    64  LEU64      -0.1245
    136  CA        -1.2880   46.6410   21.5590 C.3    64  LEU64       0.1561
    137  C         -2.7630   46.4630   21.7730 C.2    64  LEU64       0.2260
    138  O         -3.5610   46.9150   20.9510 O.2    64  LEU64      -0.2867
    139  CB        -0.9160   48.0970   21.8170 C.3    64  LEU64       0.0270
    140  CG         0.3720   48.2400   22.6070 C.3    64  LEU64       0.0019
    141  CD1        1.4710   47.7220   21.7300 C.3    64  LEU64       0.0001
    142  CD2        0.6410   49.6650   23.0350 C.3    64  LEU64       0.0001
    143  N         -9.6840   48.5210   19.8220 N.3    68  ARG68      -0.1245
    144  CA       -10.2300   49.8630   19.8900 C.3    68  ARG68       0.1563
    145  C        -11.3310   50.0230   18.8500 C.2    68  ARG68       0.2260
    146  O        -11.5940   49.1110   18.0660 O.2    68  ARG68      -0.2867
    147  CB        -9.1300   50.9020   19.6700 C.3    68  ARG68       0.0307
    148  CG        -8.0320   50.8570   20.7230 C.3    68  ARG68       0.0489
    149  CD        -7.2010   52.1310   20.7280 C.3    68  ARG68       0.2205
    150  NE        -6.2530   52.1560   21.8430 N.pl3  68  ARG68      -0.0865
    151  CZ        -5.3920   53.1400   22.0820 C.cat  68  ARG68       0.5346
    152  NH1       -5.3410   54.2010   21.2800 N.pl3  68  ARG68       0.1354
    153  NH2       -4.5700   53.0620   23.1320 N.pl3  68  ARG68       0.1354
    154  N          1.1990   53.6220   14.8580 N.3    74  GLU74      -0.1245
    155  CA         2.1810   54.5950   15.3180 C.3    74  GLU74       0.1567
    156  C          3.5520   54.1300   14.8860 C.2    74  GLU74       0.2260
    157  O          3.9560   52.9920   15.1760 O.2    74  GLU74      -0.2867
    158  CB         2.1190   54.7730   16.8360 C.3    74  GLU74       0.0388
    159  CG         0.7680   55.3220   17.3240 C.3    74  GLU74       0.1160
    160  CD         0.5910   55.1640   18.8240 C.2    74  GLU74       0.3649
    161  OE1        1.4670   55.6530   19.5700 O.co2  74  GLU74      -0.2457
    162  OE2       -0.4010   54.5330   19.2660 O.co2  74  GLU74      -0.2457
    163  N         -2.8920   60.6290   20.0490 N.3    92  SER92      -0.1217
    164  CA        -3.6410   59.4220   19.7600 C.3    92  SER92       0.1889
    165  C         -5.0940   59.7890   19.4410 C.2    92  SER92       0.2288
    166  O         -5.6690   60.6700   20.0690 O.2    92  SER92      -0.2866
    167  CB        -3.5360   58.4620   20.9450 C.3    92  SER92       0.2089
    168  OG        -4.2480   57.2630   20.7240 O.3    92  SER92      -0.2183
    169  N          3.8390   63.2240   25.0600 N.3   122  HIS122     -0.1241
    170  CA         2.8070   63.6150   26.0210 C.3   122  HIS122      0.1621
    171  C          3.0450   62.9420   27.3550 C.2   122  HIS122      0.2264
    172  O          3.7430   61.9290   27.4440 O.2   122  HIS122     -0.2867
    173  CB         1.4090   63.2320   25.5160 C.3   122  HIS122      0.0745
    174  CG         1.2920   61.7910   25.1380 C.ar  122  HIS122      0.0817
    175  ND1        1.6930   61.3160   23.9070 N.ar  122  HIS122     -0.2268
    176  CD2        0.8400   60.7170   25.8270 C.ar  122  HIS122      0.1154
    177  CE1        1.4900   60.0120   23.8540 C.ar  122  HIS122      0.1986
    178  NE2        0.9600   59.6250   25.0040 N.ar  122  HIS122     -0.2212
    179  N          2.9880   58.8610   33.6070 N.3   167  GLU167     -0.1245
    180  CA         3.9820   58.3250   32.6880 C.3   167  GLU167      0.1567
    181  C          4.1340   59.2350   31.4880 C.2   167  GLU167      0.2260
    182  O          3.1410   59.7240   30.9540 O.2   167  GLU167     -0.2867
    183  CB         3.5720   56.9260   32.2350 C.3   167  GLU167      0.0388
    184  CG         4.6070   56.2190   31.3700 C.3   167  GLU167      0.1160
    185  CD         4.0650   54.9280   30.7530 C.2   167  GLU167      0.3649
    186  OE1        2.8210   54.7870   30.6340 O.co2 167  GLU167     -0.2457
    187  OE2        4.8850   54.0580   30.3870 O.co2 167  GLU167     -0.2457
    188  N          5.1560   59.4550   27.5710 N.3   169  HIS169     -0.1241
    189  CA         5.3030   58.6240   26.3840 C.3   169  HIS169      0.1621
    190  C          6.0820   59.3650   25.3140 C.2   169  HIS169      0.2264
    191  O          5.6780   60.4530   24.8930 O.2   169  HIS169     -0.2867
    192  CB         3.9330   58.2270   25.8520 C.3   169  HIS169      0.0745
    193  CG         3.3060   57.0910   26.5940 C.ar  169  HIS169      0.0817
    194  ND1        2.0080   56.6910   26.3690 N.ar  169  HIS169     -0.2268
    195  CD2        3.7980   56.2640   27.5480 C.ar  169  HIS169      0.1154
    196  CE1        1.7270   55.6610   27.1500 C.ar  169  HIS169      0.1986
    197  NE2        2.7960   55.3830   27.8750 N.ar  169  HIS169     -0.2212
    198  N         10.8230   55.8020   20.0820 N.3   172  VAL172     -0.1245
    199  CA        12.1760   55.2790   20.2630 C.3   172  VAL172      0.1561
    200  C         13.2290   56.2990   19.8260 C.2   172  VAL172      0.2260
    201  O         14.3050   56.3600   20.4260 O.2   172  VAL172     -0.2867
    202  CB        12.3650   53.9430   19.5050 C.3   172  VAL172      0.0252
    203  CG1       12.2170   54.1310   18.0040 C.3   172  VAL172      0.0019
    204  CG2       13.7260   53.3190   19.8360 C.3   172  VAL172      0.0019
    205  N         16.1420   57.7650   22.2320 N.3   176  ASN176     -0.1240
    206  CA        17.5600   57.5800   21.9440 C.3   176  ASN176      0.1653
    207  C         18.2800   58.9200   21.7920 C.2   176  ASN176      0.2266
    208  O         19.4650   59.0160   22.1020 O.2   176  ASN176     -0.2867
    209  CB        17.7480   56.7260   20.6890 C.3   176  ASN176      0.1155
    210  CG        17.3440   55.2810   20.8990 C.2   176  ASN176      0.2627
    211  OD1       17.3090   54.7790   22.0320 O.2   176  ASN176     -0.2716
    212  ND2       17.0460   54.5910   19.8010 N.am  176  ASN176     -0.0877
    213  N         17.5740   57.8140   26.7310 N.3   180  LEU180     -0.1231
    214  CA        16.5660   57.3300   27.6710 C.3   180  LEU180      0.1693
    215  C         16.0640   55.9330   27.2700 C.2   180  LEU180      0.2592
    216  O         16.1570   55.5310   26.1040 O.2   180  LEU180     -0.2718
    217  CB        15.3780   58.2990   27.7400 C.3   180  LEU180      0.0284
    218  CG        15.6010   59.7220   28.2570 C.3   180  LEU180      0.0019
    219  CD1       14.3770   60.5880   27.9630 C.3   180  LEU180      0.0001
    220  CD2       15.8950   59.7230   29.7490 C.3   180  LEU180      0.0001
    221  N         15.5580   55.1970   28.2510 N.am  181  LYS181     -0.1966
    222  CA        14.8760   53.9220   28.0100 C.3   181  LYS181      0.1728
    223  C         13.7500   53.7960   29.0250 C.2   181  LYS181      0.2616
    224  O         13.6480   54.6240   29.9260 O.2   181  LYS181     -0.2715
    225  CB        15.8450   52.7450   28.1160 C.3   181  LYS181      0.0311
    226  CG        16.5000   52.5990   29.4690 C.3   181  LYS181      0.0038
    227  CD        17.7870   51.8020   29.3920 C.3   181  LYS181      0.0206
    228  CE        18.4140   51.6460   30.7700 C.3   181  LYS181      0.1093
    229  NZ        17.6020   50.7520   31.6390 N.3   181  LYS181     -0.1314
    230  N         12.8960   52.7840   28.8660 N.am  182  ASN182     -0.1972
    231  CA        11.8110   52.5260   29.8190 C.3   182  ASN182      0.1688
    232  C         12.2690   52.6500   31.2640 C.2   182  ASN182      0.2292
    233  O         13.3390   52.1700   31.6200 O.2   182  ASN182     -0.2864
    234  CB        11.2290   51.1190   29.6270 C.3   182  ASN182      0.1181
    235  CG         9.9960   51.0900   28.7520 C.2   182  ASN182      0.2629
    236  OD1        9.4340   52.1240   28.3950 O.2   182  ASN182     -0.2716
    237  ND2        9.5550   49.8800   28.4100 N.am  182  ASN182     -0.0877
@<TRIPOS>BOND
     1   115   116    1
     2   122   123    1
     3   122   121    1
     4    33    32    1
     5    33    34    2
     6    32    31    1
     7   120   121    1
     8   120   119    1
     9    35    34    1
    10   116   119    1
    11   116   117    1
    12    34    36    1
    13   117   118    2
    14    31    30    1
    15   154   155    1
    16    30    27    1
    17   156   157    2
    18   156   155    1
    19   155   158    1
    20    50    49    2
    21    40    39    2
    22    27    28    1
    23    27    26    1
    24    39    38    1
    25    37    28   am
    26    37    38    1
    27    49    48    1
    28    28    29    2
    29   124   125    1
    30   158   159    1
    31    38    41    1
    32    47    48    1
    33    26    20   am
    34   159   160    1
    35    24    23    2
    36   127   126    2
    37    48    51    1
    38   126   125    1
    39   125   128    1
    40   203   202    1
    41   146   145    2
    42    25    23   am
    43    23    22    1
    44    51    52    1
    45    41    42    1
    46    20    21    2
    47    20    19    1
    48   160   162   ar
    49   160   161   ar
    50   145   144    1
    51    42    43   ar
    52    42    44   ar
    53   128   129    1
    54    54    52   ar
    55    54    56   ar
    56    19    22    1
    57    19    18    1
    58    43    45   ar
    59    52    53   ar
    60   165   164    1
    61   165   166    2
    62   202   204    1
    63   202   199    1
    64    44    46   ar
    65   147   144    1
    66   147   148    1
    67   164   163    1
    68   164   167    1
    69   212   210   am
    70   143   144    1
    71   200   199    1
    72   200   201    2
    73    45    46   ar
    74   198   199    1
    75   134   132    1
    76   135   136    1
    77    15    14    2
    78   132   131    2
    79   132   133    1
    80    56    55   ar
    81   131   130    1
    82   129   130    1
    83   209   210    1
    84   209   206    1
    85   148   149    1
    86   168   167    1
    87   149   150    1
    88    18    14   am
    89    53    55   ar
    90   210   211    2
    91   138   137    2
    92    14    13    1
    93   152   151    1
    94   136   137    1
    95   136   139    1
    96   141   140    1
    97   207   206    1
    98   207   208    2
    99   139   140    1
   100   150   151    2
   101   206   205    1
   102    16    13    1
   103    16    17    1
   104   151   153    1
   105    13    12    1
   106   140   142    1
   107    12     7   am
   108    10     9    1
   109   177   175   ar
   110   177   178   ar
   111   175   174   ar
   112    64    63    1
   113    64    65    1
   114    63    62    1
   115     7     8    2
   116     7     6    1
   117   112   111    1
   118   112   113    2
   119   111   114    1
   120   111   110    1
   121   191   190    2
   122   178   176   ar
   123   169   170    1
   124   174   173    1
   125   174   176   ar
   126     9     6    1
   127     9    11    1
   128     6     5    1
   129   108   107    2
   130   190   189    1
   131    61    62    1
   132    61    58    1
   133   173   170    1
   134   192   189    1
   135   192   193    1
   136   170   171    1
   137   216   215    2
   138   194   193   ar
   139   194   196   ar
   140   189   188    1
   141   107   109   am
   142   107   106    1
   143    57    58    1
   144     4     3    2
   145   193   195   ar
   146    58    59    1
   147     5     3   am
   148   213   214    1
   149    81    80    1
   150    81    82    1
   151   196   197   ar
   152     3     2    1
   153   215   214    1
   154   215   221   am
   155   171   172    2
   156    80    79    1
   157   195   197   ar
   158   214   217    1
   159   106   105    1
   160   217   218    1
   161   105   102    1
   162    59    66   am
   163    59    60    2
   164    66    67    1
   165   219   218    1
   166   222   225    1
   167   222   221    1
   168   222   223    1
   169   102   103    1
   170   102   101    1
   171   225   226    1
   172   103   104    2
   173    69    68    2
   174   218   220    1
   175   236   235    2
   176   237   235   am
   177     2     1    1
   178    70    67    1
   179    70    71    1
   180   235   234    1
   181    79    76    1
   182   230   223   am
   183   230   231    1
   184    67    68    1
   185   223   224    2
   186    72    71    1
   187    72    73    1
   188   227   226    1
   189   227   228    1
   190    74    73    1
   191   234   231    1
   192   231   232    1
   193    76    75    1
   194    76    77    1
   195    97    96    1
   196    97    98    1
   197    96    93    1
   198   187   185   ar
   199   186   185   ar
   200   185   184    1
   201   228   229    1
   202   182   181    2
   203    95    94    2
   204    98    99    2
   205    98   100   am
   206   232   233    2
   207    77    83   am
   208    77    78    2
   209   184   183    1
   210    83    84    1
   211   181   180    1
   212    93    92    1
   213    93    94    1
   214    92    85   am
   215   183   180    1
   216   180   179    1
   217    84    85    1
   218    84    87    1
   219    85    86    2
   220    88    87    1
   221    88    89    1
   222    89    90    1
   223    90    91    1
