@<TRIPOS>MOLECULE
tmp/5cuqA00.pdb
 138 134 0 0 0
SMALL
GASTEIGER

@<TRIPOS>ATOM
      1  N          6.4500   -0.4890    9.9600 N.3    76  GLY76      -0.1225
      2  CA         5.3900   -1.3050    9.4030 C.3    76  GLY76       0.1811
      3  C          4.1310   -1.2630   10.2550 C.2    76  GLY76       0.2280
      4  O          3.5440   -2.3010   10.5680 O.2    76  GLY76      -0.2866
      5  N          1.1180   -0.4620    9.7540 N.3    78  GLY78      -0.1225
      6  CA        -0.1770   -0.8410    9.1890 C.3    78  GLY78       0.1811
      7  C         -1.2970    0.0580    9.6680 C.2    78  GLY78       0.2280
      8  O         -1.1740    1.2900    9.6850 O.2    78  GLY78      -0.2866
      9  N          4.5860    3.1120    7.5000 N.3    99  THR99      -0.1203
     10  CA         4.0680    1.9330    6.8210 C.3    99  THR99       0.1994
     11  C          3.9050    2.2480    5.3380 C.2    99  THR99       0.2618
     12  O          3.8190    3.4100    4.9410 O.2    99  THR99      -0.2717
     13  CB         2.7490    1.4640    7.4590 C.3    99  THR99       0.1784
     14  OG1        2.5520    0.0680    7.2040 O.3    99  THR99      -0.2211
     15  CG2        1.5670    2.2750    6.9430 C.3    99  THR99       0.0376
     16  N          3.9310    1.1950    4.5200 N.am  100  LYS100     -0.1965
     17  CA         3.9110    1.3840    3.0700 C.3   100  LYS100      0.1728
     18  C          2.5530    1.9020    2.5950 C.2   100  LYS100      0.2616
     19  O          2.4800    2.8510    1.8040 O.2   100  LYS100     -0.2715
     20  CB         4.2640    0.0710    2.3720 C.3   100  LYS100      0.0311
     21  CG         4.3810    0.1690    0.8430 C.3   100  LYS100      0.0038
     22  CD         5.3570    1.2790    0.4410 C.3   100  LYS100      0.0206
     23  CE         5.8300    1.1280   -1.0030 C.3   100  LYS100      0.1093
     24  NZ         4.7640    1.4020   -1.9920 N.3   100  LYS100     -0.1314
     25  N          1.4660    1.2830    3.0540 N.am  101  GLY101     -0.1955
     26  CA         0.1430    1.6700    2.5720 C.3   101  GLY101      0.1869
     27  C          0.0110    1.4260    1.0710 C.2   101  GLY101      0.2309
     28  O          0.7450    0.6490    0.4690 O.2   101  GLY101     -0.2863
     29  N         -3.0540   -2.8820   -1.9060 N.3   104  GLY104     -0.1210
     30  CA        -2.6540   -4.1610   -1.3730 C.3   104  GLY104      0.1956
     31  C         -2.1260   -4.1290    0.0440 C.2   104  GLY104      0.2612
     32  O         -1.7670   -5.1870    0.5720 O.2   104  GLY104     -0.2717
     33  N         -2.0610   -2.9590    0.6780 N.am  105  HIS105     -0.1961
     34  CA        -1.5210   -2.8460    2.0300 C.3   105  HIS105      0.1787
     35  C         -2.4400   -2.0210    2.9210 C.2   105  HIS105      0.2620
     36  O         -3.2120   -1.1940    2.4410 O.2   105  HIS105     -0.2715
     37  CB        -0.1230   -2.2430    2.0140 C.3   105  HIS105      0.0785
     38  CG         0.8960   -3.1130    1.3440 C.ar  105  HIS105      0.0821
     39  ND1        1.2640   -2.9550    0.0240 N.ar  105  HIS105     -0.2267
     40  CD2        1.6100   -4.1670    1.8090 C.ar  105  HIS105      0.1154
     41  CE1        2.1700   -3.8640   -0.2910 C.ar  105  HIS105      0.1986
     42  NE2        2.3940   -4.6150    0.7730 N.ar  105  HIS105     -0.2212
     43  N         -2.3690   -2.2690    4.2310 N.am  106  GLU106     -0.1977
     44  CA        -3.2340   -1.5510    5.1620 C.3   106  GLU106      0.1602
     45  C         -2.7740   -0.1040    5.3350 C.2   106  GLU106      0.2287
     46  O         -1.5770    0.1880    5.4500 O.2   106  GLU106     -0.2864
     47  CB        -3.2840   -2.2650    6.5260 C.3   106  GLU106      0.0415
     48  CG        -3.9580   -3.6480    6.5130 C.3   106  GLU106      0.1163
     49  CD        -5.4980   -3.6230    6.5810 C.2   106  GLU106      0.3649
     50  OE1       -6.1060   -4.7110    6.4300 O.co2 106  GLU106     -0.2457
     51  OE2       -6.1150   -2.5460    6.7620 O.co2 106  GLU106     -0.2457
     52  N          5.5700    5.0530    3.1520 N.3   125  LYS125     -0.1231
     53  CA         6.9510    4.9710    3.6020 C.3   125  LYS125      0.1693
     54  C          7.4300    3.5350    3.4620 C.2   125  LYS125      0.2592
     55  O          6.8300    2.6190    4.0300 O.2   125  LYS125     -0.2718
     56  CB         7.0760    5.4390    5.0540 C.3   125  LYS125      0.0285
     57  CG         6.5690    6.8390    5.3060 C.3   125  LYS125      0.0035
     58  CD         7.5390    7.8800    4.7330 C.3   125  LYS125      0.0206
     59  CE         7.0660    9.2920    5.0740 C.3   125  LYS125      0.1093
     60  NZ         7.8760   10.3480    4.4040 N.3   125  LYS125     -0.1314
     61  N          8.5120    3.3400    2.7120 N.am  126  ASP126     -0.1960
     62  CA         9.1450    2.0320    2.6050 C.3   126  ASP126      0.1840
     63  C         10.2490    1.9780    3.6520 C.2   126  ASP126      0.2622
     64  O         11.2930    2.6270    3.4960 O.2   126  ASP126     -0.2715
     65  CB         9.7060    1.8250    1.2000 C.3   126  ASP126      0.1450
     66  CG        10.2020    0.4200    0.9650 C.2   126  ASP126      0.3671
     67  OD1       10.5790   -0.2550    1.9380 O.co2 126  ASP126     -0.2456
     68  OD2       10.2550    0.0020   -0.2120 O.co2 126  ASP126     -0.2456
     69  N         10.0360    1.1940    4.7120 N.am  127  VAL127     -0.1963
     70  CA        10.9960    1.2340    5.8110 C.3   127  VAL127      0.1727
     71  C         12.3450    0.6710    5.4090 C.2   127  VAL127      0.2616
     72  O         13.3370    0.9140    6.1070 O.2   127  VAL127     -0.2715
     73  CB        10.4740    0.5140    7.0670 C.3   127  VAL127      0.0290
     74  CG1        9.1840    1.1550    7.5320 C.3   127  VAL127      0.0023
     75  CG2       10.2780   -0.9820    6.7960 C.3   127  VAL127      0.0023
     76  N         12.4300   -0.0610    4.2970 N.am  128  PHE128     -0.1960
     77  CA        13.7320   -0.5700    3.8920 C.3   128  PHE128      0.1771
     78  C         14.6590    0.5160    3.3630 C.2   128  PHE128      0.2619
     79  O         15.8540    0.2550    3.1990 O.2   128  PHE128     -0.2715
     80  CB        13.5460   -1.6800    2.8640 C.3   128  PHE128      0.0574
     81  CG        13.0990   -2.9640    3.4790 C.ar  128  PHE128     -0.0200
     82  CD1       14.0220   -3.9190    3.8610 C.ar  128  PHE128     -0.0042
     83  CD2       11.7590   -3.1920    3.7300 C.ar  128  PHE128     -0.0042
     84  CE1       13.6090   -5.0950    4.4460 C.ar  128  PHE128     -0.0003
     85  CE2       11.3410   -4.3680    4.3200 C.ar  128  PHE128     -0.0003
     86  CZ        12.2730   -5.3170    4.6790 C.ar  128  PHE128     -0.0000
     87  N         14.1510    1.7190    3.1040 N.am  129  TYR129     -0.1974
     88  CA        14.9830    2.8440    2.6910 C.3   129  TYR129      0.1639
     89  C         14.8750    4.0110    3.6640 C.2   129  TYR129      0.2290
     90  O         15.2780    5.1310    3.3240 O.2   129  TYR129     -0.2864
     91  CB        14.6200    3.2950    1.2720 C.3   129  TYR129      0.0560
     92  CG        14.6490    2.1770    0.2520 C.ar  129  TYR129     -0.0198
     93  CD1       15.8510    1.6630   -0.2080 C.ar  129  TYR129     -0.0009
     94  CD2       13.4770    1.6470   -0.2590 C.ar  129  TYR129     -0.0009
     95  CE1       15.8860    0.6470   -1.1430 C.ar  129  TYR129      0.0417
     96  CE2       13.4930    0.6300   -1.2040 C.ar  129  TYR129      0.0417
     97  CZ        14.7050    0.1330   -1.6420 C.ar  129  TYR129      0.1957
     98  OH        14.7430   -0.8760   -2.5780 O.3   129  TYR129     -0.2866
     99  N          6.6870   -5.2690   13.1770 N.3   141  ASP141     -0.1225
    100  CA         5.8400   -6.4460   13.0670 C.3   141  ASP141      0.1805
    101  C          5.7520   -6.9290   11.6220 C.2   141  ASP141      0.2598
    102  O          4.7420   -7.5030   11.2140 O.2   141  ASP141     -0.2718
    103  CB         4.4480   -6.1450   13.6220 C.3   141  ASP141      0.1424
    104  CG         3.6530   -7.3980   13.9500 C.2   141  ASP141      0.3668
    105  OD1        4.2430   -8.4720   14.2120 O.co2 141  ASP141     -0.2456
    106  OD2        2.4120   -7.3030   13.9570 O.co2 141  ASP141     -0.2456
    107  N          6.8240   -6.7500   10.8540 N.am  142  ILE142     -0.1966
    108  CA         6.8100   -7.0370    9.4210 C.3   142  ILE142      0.1727
    109  C          7.2430   -8.4680    9.1500 C.2   142  ILE142      0.2617
    110  O          8.2270   -8.9600    9.7160 O.2   142  ILE142     -0.2715
    111  CB         7.7240   -6.0500    8.6690 C.3   142  ILE142      0.0290
    112  CG1        7.2190   -4.6230    8.8560 C.3   142  ILE142      0.0022
    113  CG2        7.7970   -6.4020    7.1720 C.3   142  ILE142      0.0023
    114  CD1        8.2090   -3.5770    8.3100 C.3   142  ILE142      0.0001
    115  N          6.5270   -9.1250    8.2390 N.am  143  GLY143     -0.1940
    116  CA         6.9600  -10.4150    7.7220 C.3   143  GLY143      0.2014
    117  C          5.8430  -11.1430    7.0150 C.2   143  GLY143      0.2638
    118  O          4.8890  -11.5840    7.6530 O.2   143  GLY143     -0.2714
    119  N          5.9360  -11.2450    5.6920 N.am  144  GLU144     -0.1977
    120  CA         4.8780  -11.8240    4.8780 C.3   144  GLU144      0.1602
    121  C          5.0730  -13.3310    4.7660 C.2   144  GLU144      0.2287
    122  O          6.1160  -13.7920    4.2970 O.2   144  GLU144     -0.2864
    123  CB         4.8660  -11.1760    3.4930 C.3   144  GLU144      0.0415
    124  CG         3.7360  -11.6620    2.6040 C.3   144  GLU144      0.1163
    125  CD         3.8630  -11.1680    1.1670 C.2   144  GLU144      0.3649
    126  OE1        4.8590  -10.4820    0.8500 O.co2 144  GLU144     -0.2457
    127  OE2        2.9570  -11.4620    0.3610 O.co2 144  GLU144     -0.2457
    128  N         15.9200  -10.3440    5.5330 N.3   158  ARG158     -0.1245
    129  CA        15.8250   -8.9580    5.0700 C.3   158  ARG158      0.1563
    130  C         15.2290   -8.0440    6.1470 C.2   158  ARG158      0.2260
    131  O         15.6890   -6.9060    6.3390 O.2   158  ARG158     -0.2867
    132  CB        15.0110   -8.9060    3.7720 C.3   158  ARG158      0.0307
    133  CG        15.8570   -9.1120    2.5260 C.3   158  ARG158      0.0489
    134  CD        15.0480   -9.6390    1.3150 C.3   158  ARG158      0.2205
    135  NE        13.7640   -8.9760    1.1110 N.pl3 158  ARG158     -0.0865
    136  CZ        12.6870   -9.5710    0.5960 C.cat 158  ARG158      0.5346
    137  NH1       11.5620   -8.8900    0.4500 N.pl3 158  ARG158      0.1354
    138  NH2       12.7260  -10.8540    0.2440 N.pl3 158  ARG158      0.1354
@<TRIPOS>BOND
     1    98    97    1
     2    24    23    1
     3    29    30    1
     4    97    96   ar
     5    97    95   ar
     6    30    31    1
     7    96    94   ar
     8    95    93   ar
     9    23    22    1
    10    41    39   ar
    11    41    42   ar
    12    94    92   ar
    13    68    66   ar
    14    93    92   ar
    15    39    38   ar
    16    31    32    2
    17    31    33   am
    18   138   136    1
    19    92    91    1
    20   127   125   ar
    21    22    21    1
    22   137   136    1
    23    28    27    2
    24   136   135    2
    25    33    34    1
    26    42    40   ar
    27    21    20    1
    28   126   125   ar
    29    66    65    1
    30    66    67   ar
    31    27    26    1
    32   135   134    1
    33   125   124    1
    34    65    62    1
    35    91    88    1
    36   134   133    1
    37    38    40   ar
    38    38    37    1
    39    19    18    2
    40    37    34    1
    41    34    35    1
    42    20    17    1
    43    36    35    2
    44   133   132    1
    45    26    25    1
    46    18    25   am
    47    18    17    1
    48   124   123    1
    49    62    61    1
    50    62    63    1
    51    88    87    1
    52    88    89    1
    53    61    54   am
    54    80    81    1
    55    80    77    1
    56    35    43   am
    57    17    16    1
    58    87    78   am
    59    52    53    1
    60    79    78    2
    61    90    89    2
    62    78    77    1
    63    54    53    1
    64    54    55    2
    65    81    83   ar
    66    81    82   ar
    67   123   120    1
    68    64    63    2
    69    53    56    1
    70    63    69   am
    71    83    85   ar
    72   132   129    1
    73    82    84   ar
    74    77    76    1
    75    43    44    1
    76   122   121    2
    77    76    71   am
    78    85    86   ar
    79    60    59    1
    80    84    86   ar
    81    16    11   am
    82    69    70    1
    83    58    59    1
    84    58    57    1
    85   121   120    1
    86   120   119    1
    87    12    11    2
    88    56    57    1
    89   129   128    1
    90   129   130    1
    91    44    45    1
    92    44    47    1
    93    45    46    2
    94    11    10    1
    95    71    70    1
    96    71    72    2
    97   119   117   am
    98    70    73    1
    99   130   131    2
   100    50    49   ar
   101    48    47    1
   102    48    49    1
   103    49    51   ar
   104    75    73    1
   105    10    13    1
   106    10     9    1
   107    15    13    1
   108   117   118    2
   109   117   116    1
   110    73    74    1
   111   113   111    1
   112    14    13    1
   113   116   115    1
   114   115   109   am
   115   114   112    1
   116   111   112    1
   117   111   108    1
   118   109   108    1
   119   109   110    2
   120     6     7    1
   121     6     5    1
   122     2     1    1
   123     2     3    1
   124   108   107    1
   125     7     8    2
   126     3     4    2
   127   107   101   am
   128   102   101    2
   129   101   100    1
   130   100    99    1
   131   100   103    1
   132   103   104    1
   133   104   106   ar
   134   104   105   ar
