@<TRIPOS>MOLECULE
tmp/5cuuB01.pdb
 89 85 0 0 0
SMALL
GASTEIGER

@<TRIPOS>ATOM
      1  N         -8.9650    1.4530  -24.5340 N.3   179  ASP179     -0.1239
      2  CA        -9.8050    2.6350  -24.6200 C.3   179  ASP179      0.1674
      3  C         -9.4310    3.4600  -25.8420 C.2   179  ASP179      0.2266
      4  O         -8.2460    3.7490  -26.0220 O.2   179  ASP179     -0.2867
      5  CB        -9.6280    3.4900  -23.3640 C.3   179  ASP179      0.1410
      6  CG       -10.4900    3.0160  -22.2240 C.2   179  ASP179      0.3668
      7  OD1      -11.7200    2.8230  -22.4600 O.co2 179  ASP179     -0.2456
      8  OD2       -9.9380    2.8420  -21.1070 O.co2 179  ASP179     -0.2456
      9  N         -6.9310    6.7400  -24.2400 N.3   182  ARG182     -0.1245
     10  CA        -6.5090    6.3990  -22.8980 C.3   182  ARG182      0.1563
     11  C         -6.1510    7.6170  -22.0740 C.2   182  ARG182      0.2260
     12  O         -5.1910    8.3080  -22.3660 O.2   182  ARG182     -0.2867
     13  CB        -5.3080    5.4770  -22.9740 C.3   182  ARG182      0.0307
     14  CG        -5.3540    4.3400  -21.9620 C.3   182  ARG182      0.0489
     15  CD        -3.9580    3.9550  -21.5140 C.3   182  ARG182      0.2205
     16  NE        -3.9890    3.1980  -20.2710 N.pl3 182  ARG182     -0.0865
     17  CZ        -3.1130    3.3750  -19.2850 C.cat 182  ARG182      0.5346
     18  NH1       -2.1360    4.2740  -19.4150 N.pl3 182  ARG182      0.1354
     19  NH2       -3.2510    2.6960  -18.1500 N.pl3 182  ARG182      0.1354
     20  N         -5.6540    7.4810  -18.5270 N.3   184  LYS184     -0.1245
     21  CA        -4.8580    7.1140  -17.3550 C.3   184  LYS184      0.1561
     22  C         -3.4140    7.4770  -17.6580 C.2   184  LYS184      0.2260
     23  O         -2.9790    7.3950  -18.7980 O.2   184  LYS184     -0.2867
     24  CB        -4.9560    5.6280  -17.0890 C.3   184  LYS184      0.0271
     25  CG        -6.1610    5.2420  -16.2950 C.3   184  LYS184      0.0035
     26  CD        -6.6240    3.8280  -16.6880 C.3   184  LYS184      0.0206
     27  CE        -7.8850    3.3100  -15.9080 C.3   184  LYS184      0.1093
     28  NZ        -7.6260    2.8090  -14.4910 N.3   184  LYS184     -0.1314
     29  N          1.7640    5.2360  -16.1640 N.3   188  LEU188     -0.1231
     30  CA         1.1890    3.9710  -15.7250 C.3   188  LEU188      0.1678
     31  C          0.8630    3.0710  -16.9140 C.2   188  LEU188      0.2434
     32  O          0.0500    3.4430  -17.7600 O.2   188  LEU188     -0.2733
     33  CB        -0.0860    4.2250  -14.9530 C.3   188  LEU188      0.0284
     34  CG        -0.8360    2.9460  -14.6520 C.3   188  LEU188      0.0019
     35  CD1        0.1010    1.8180  -14.2610 C.3   188  LEU188      0.0001
     36  CD2       -1.7990    3.2690  -13.5450 C.3   188  LEU188      0.0001
     37  N          1.4910    1.8770  -16.9870 N.am  189  PRO189     -0.2718
     38  CA         1.2750    0.9120  -18.0790 C.3   189  PRO189      0.1535
     39  C         -0.0950    0.2590  -18.1070 C.2   189  PRO189      0.2598
     40  O         -0.7650    0.1240  -17.0740 O.2   189  PRO189     -0.2715
     41  CB         2.4020   -0.1090  -17.8890 C.3   189  PRO189      0.0310
     42  CG         2.5930   -0.0930  -16.4390 C.3   189  PRO189      0.0237
     43  CD         2.5600    1.3970  -16.0980 C.3   189  PRO189      0.0939
     44  N         -0.4820   -0.1260  -19.3200 N.am  190  MET190     -0.1964
     45  CA        -1.7450   -0.7610  -19.6210 C.3   190  MET190      0.1736
     46  C         -1.7960   -2.1670  -19.1000 C.2   190  MET190      0.2616
     47  O         -0.9730   -3.0160  -19.4800 O.2   190  MET190     -0.2715
     48  CB        -1.9510   -0.7930  -21.1210 C.3   190  MET190      0.0427
     49  CG        -3.2740   -0.2140  -21.5930 C.3   190  MET190      0.0599
     50  SD        -3.2350   -0.1050  -23.4070 S.3   190  MET190     -0.1393
     51  CE        -1.5160    0.6640  -23.6120 C.3   190  MET190      0.0692
     52  N         -2.7920   -2.3930  -18.2450 N.am  191  ASN191     -0.1958
     53  CA        -3.0410   -3.6740  -17.6110 C.3   191  ASN191      0.1819
     54  C         -4.5400   -3.8470  -17.3910 C.2   191  ASN191      0.2621
     55  O         -5.0450   -3.6930  -16.2750 O.2   191  ASN191     -0.2715
     56  CB        -2.2740   -3.7780  -16.2700 C.3   191  ASN191      0.1195
     57  CG        -2.2150   -5.2150  -15.7100 C.2   191  ASN191      0.2630
     58  OD1       -2.7640   -6.1680  -16.2940 O.2   191  ASN191     -0.2716
     59  ND2       -1.5460   -5.3690  -14.5660 N.am  191  ASN191     -0.0877
     60  N         -5.2320   -4.1820  -18.4730 N.am  192  ARG192     -0.1977
     61  CA        -6.6670   -4.4310  -18.4290 C.3   192  ARG192      0.1597
     62  C         -7.0530   -5.5600  -19.4310 C.2   192  ARG192      0.2287
     63  O         -7.0050   -5.3470  -20.6470 O.2   192  ARG192     -0.2864
     64  CB        -7.4160   -3.1110  -18.7400 C.3   192  ARG192      0.0334
     65  CG        -8.9300   -3.1520  -18.5270 C.3   192  ARG192      0.0492
     66  CD        -9.5480   -1.7820  -18.6400 C.3   192  ARG192      0.2205
     67  NE       -10.8510   -1.7670  -17.9660 N.pl3 192  ARG192     -0.0865
     68  CZ       -11.0810   -1.2620  -16.7440 C.cat 192  ARG192      0.5346
     69  NH1      -10.0840   -0.7140  -16.0380 N.pl3 192  ARG192      0.1354
     70  NH2      -12.3170   -1.2810  -16.2240 N.pl3 192  ARG192      0.1354
     71  N         -7.1620   -7.4640  -13.9710 N.3   283  LYS283     -0.1245
     72  CA        -5.8110   -6.8950  -13.9220 C.3   283  LYS283      0.1561
     73  C         -4.8480   -8.1030  -13.6900 C.2   283  LYS283      0.2260
     74  O         -4.9870   -8.8300  -12.7090 O.2   283  LYS283     -0.2867
     75  CB        -5.6990   -5.8840  -12.7710 C.3   283  LYS283      0.0271
     76  CG        -4.2900   -5.7130  -12.3110 C.3   283  LYS283      0.0035
     77  CD        -3.9580   -4.3050  -11.9480 C.3   283  LYS283      0.0206
     78  CE        -4.7190   -3.8250  -10.7380 C.3   283  LYS283      0.1093
     79  NZ        -3.8160   -3.1360   -9.7530 N.3   283  LYS283     -0.1314
     80  N        -11.1390   -5.9730  -11.8870 N.3   305  HIS305     -0.1241
     81  CA       -10.9820   -4.5350  -11.7210 C.3   305  HIS305      0.1621
     82  C        -12.0250   -3.9240  -10.7790 C.2   305  HIS305      0.2264
     83  O        -11.9200   -2.7720  -10.3380 O.2   305  HIS305     -0.2867
     84  CB       -11.0400   -3.8470  -13.0870 C.3   305  HIS305      0.0745
     85  CG        -9.6920   -3.6180  -13.6810 C.ar  305  HIS305      0.0817
     86  ND1       -8.7250   -2.8700  -13.0370 N.ar  305  HIS305     -0.2268
     87  CD2       -9.1100   -4.1160  -14.7960 C.ar  305  HIS305      0.1154
     88  CE1       -7.6010   -2.9290  -13.7270 C.ar  305  HIS305      0.1986
     89  NE2       -7.8060   -3.6790  -14.7970 N.ar  305  HIS305     -0.2212
@<TRIPOS>BOND
     1     4     3    2
     2     3     2    1
     3     2     1    1
     4     2     5    1
     5     9    10    1
     6    51    50    1
     7    50    49    1
     8     5     6    1
     9    13    10    1
    10    13    14    1
    11    10    11    1
    12     7     6   ar
    13    12    11    2
    14     6     8   ar
    15    14    15    1
    16    49    48    1
    17    15    16    1
    18    48    45    1
    19    63    62    2
    20    16    17    2
    21    45    44    1
    22    45    46    1
    23    47    46    2
    24    62    61    1
    25    18    17    1
    26    44    39   am
    27    17    19    1
    28    46    52   am
    29    23    22    2
    30    64    65    1
    31    64    61    1
    32    66    65    1
    33    66    67    1
    34    20    21    1
    35    60    61    1
    36    60    54   am
    37    52    53    1
    38    39    38    1
    39    39    40    2
    40    38    41    1
    41    38    37    1
    42    67    68    2
    43    41    42    1
    44    32    31    2
    45    22    21    1
    46    53    54    1
    47    53    56    1
    48    54    55    2
    49    21    24    1
    50    24    25    1
    51    37    31   am
    52    37    43    1
    53    31    30    1
    54    68    70    1
    55    68    69    1
    56    26    25    1
    57    26    27    1
    58    42    43    1
    59    58    57    2
    60    56    57    1
    61    29    30    1
    62    27    28    1
    63    30    33    1
    64    57    59   am
    65    33    34    1
    66    89    87   ar
    67    89    88   ar
    68    87    85   ar
    69    34    35    1
    70    34    36    1
    71    71    72    1
    72    72    73    1
    73    72    75    1
    74    88    86   ar
    75    73    74    2
    76    85    84    1
    77    85    86   ar
    78    84    81    1
    79    75    76    1
    80    76    77    1
    81    77    78    1
    82    80    81    1
    83    81    82    1
    84    82    83    2
    85    78    79    1
