@<TRIPOS>MOLECULE
tmp/5cuuB02.pdb
 115 107 0 0 0
SMALL
GASTEIGER

@<TRIPOS>ATOM
      1  N        -17.3320  -29.1310  -13.4710 N.3   206  LYS206     -0.1245
      2  CA       -16.5180  -28.7440  -14.6330 C.3   206  LYS206      0.1561
      3  C        -17.2800  -28.2310  -15.8400 C.2   206  LYS206      0.2260
      4  O        -18.3020  -28.7910  -16.2550 O.2   206  LYS206     -0.2867
      5  CB       -15.6050  -29.8970  -15.0710 C.3   206  LYS206      0.0271
      6  CG       -14.6410  -30.3250  -13.9820 C.3   206  LYS206      0.0035
      7  CD       -13.6360  -31.3390  -14.4870 C.3   206  LYS206      0.0206
      8  CE       -12.6670  -31.7330  -13.3760 C.3   206  LYS206      0.1093
      9  NZ       -11.4640  -32.4880  -13.8710 N.3   206  LYS206     -0.1314
     10  N        -18.6270  -30.4230  -18.7440 N.3   221  ASP221     -0.1239
     11  CA       -17.7900  -31.5980  -18.9940 C.3   221  ASP221      0.1674
     12  C        -18.6040  -32.8360  -18.7600 C.2   221  ASP221      0.2266
     13  O        -18.9030  -33.1790  -17.6460 O.2   221  ASP221     -0.2867
     14  CB       -16.5950  -31.6150  -18.0490 C.3   221  ASP221      0.1410
     15  CG       -15.5270  -32.5640  -18.5010 C.2   221  ASP221      0.3668
     16  OD1      -15.0300  -32.3580  -19.6400 O.co2 221  ASP221     -0.2456
     17  OD2      -15.1790  -33.5020  -17.7310 O.co2 221  ASP221     -0.2456
     18  N        -18.8610  -36.8880  -19.6590 N.3   223  LYS223     -0.1245
     19  CA       -18.3460  -38.1190  -20.2400 C.3   223  LYS223      0.1561
     20  C        -19.4050  -39.1940  -20.0420 C.2   223  LYS223      0.2260
     21  O        -19.9530  -39.3470  -18.9450 O.2   223  LYS223     -0.2867
     22  CB       -17.0470  -38.5370  -19.5550 C.3   223  LYS223      0.0271
     23  CG       -16.2350  -39.5450  -20.3690 C.3   223  LYS223      0.0035
     24  CD       -14.9260  -39.9500  -19.6640 C.3   223  LYS223      0.0206
     25  CE       -15.1510  -40.6290  -18.2940 C.3   223  LYS223      0.1093
     26  NZ       -13.8410  -40.9060  -17.6020 N.3   223  LYS223     -0.1314
     27  N        -18.9650  -34.2690  -14.9550 N.3   228  ARG228     -0.1245
     28  CA       -17.7350  -34.4050  -14.1990 C.3   228  ARG228      0.1563
     29  C        -17.5560  -33.2150  -13.2230 C.2   228  ARG228      0.2260
     30  O        -17.9630  -32.0640  -13.5080 O.2   228  ARG228     -0.2867
     31  CB       -16.5260  -34.5030  -15.1400 C.3   228  ARG228      0.0307
     32  CG       -16.7200  -35.3050  -16.4310 C.3   228  ARG228      0.0489
     33  CD       -17.3050  -36.7180  -16.2640 C.3   228  ARG228      0.2205
     34  NE       -16.5220  -37.6560  -15.4420 N.pl3 228  ARG228     -0.0865
     35  CZ       -15.1880  -37.7100  -15.3800 C.cat 228  ARG228      0.5346
     36  NH1      -14.4390  -36.8580  -16.0910 N.pl3 228  ARG228      0.1354
     37  NH2      -14.6070  -38.6390  -14.6150 N.pl3 228  ARG228      0.1354
     38  N        -14.5890  -31.8100  -10.0240 N.3   230  TYR230     -0.1241
     39  CA       -13.2730  -31.9410   -9.3970 C.3   230  TYR230      0.1605
     40  C        -13.5110  -32.7110   -8.0920 C.2   230  TYR230      0.2264
     41  O        -14.3510  -32.3200   -7.3090 O.2   230  TYR230     -0.2867
     42  CB       -12.7020  -30.5570   -9.0930 C.3   230  TYR230      0.0534
     43  CG       -12.1420  -29.8360  -10.3000 C.ar  230  TYR230     -0.0201
     44  CD1      -10.9600  -30.2690  -10.9260 C.ar  230  TYR230     -0.0009
     45  CD2      -12.7720  -28.6940  -10.8090 C.ar  230  TYR230     -0.0009
     46  CE1      -10.4170  -29.5730  -12.0340 C.ar  230  TYR230      0.0417
     47  CE2      -12.2320  -27.9700  -11.9300 C.ar  230  TYR230      0.0417
     48  CZ       -11.0610  -28.4150  -12.5280 C.ar  230  TYR230      0.1957
     49  OH       -10.5230  -27.7020  -13.5810 O.3   230  TYR230     -0.2866
     50  N        -12.2190  -19.5930  -11.8920 N.3   239  TYR239     -0.1241
     51  CA       -11.2260  -20.1970  -12.7290 C.3   239  TYR239      0.1605
     52  C        -11.7280  -20.2470  -14.1550 C.2   239  TYR239      0.2264
     53  O        -12.8000  -20.7740  -14.4220 O.2   239  TYR239     -0.2867
     54  CB       -10.9960  -21.5880  -12.1620 C.3   239  TYR239      0.0534
     55  CG        -9.9390  -22.3930  -12.8230 C.ar  239  TYR239     -0.0201
     56  CD1       -8.7190  -21.8300  -13.1600 C.ar  239  TYR239     -0.0009
     57  CD2      -10.1660  -23.7230  -13.1300 C.ar  239  TYR239     -0.0009
     58  CE1       -7.7590  -22.5620  -13.7970 C.ar  239  TYR239      0.0417
     59  CE2       -9.2030  -24.4770  -13.7650 C.ar  239  TYR239      0.0417
     60  CZ        -7.9970  -23.8930  -14.1080 C.ar  239  TYR239      0.1957
     61  OH        -7.0520  -24.6340  -14.8160 O.3   239  TYR239     -0.2866
     62  N         -4.7210  -25.2420  -25.7620 N.3   262  ASP262     -0.1239
     63  CA        -5.8360  -24.6270  -25.0780 C.3   262  ASP262      0.1674
     64  C         -5.7500  -23.1370  -24.8890 C.2   262  ASP262      0.2266
     65  O         -4.6760  -22.5620  -24.9950 O.2   262  ASP262     -0.2867
     66  CB        -5.9920  -25.2460  -23.7050 C.3   262  ASP262      0.1410
     67  CG        -6.9510  -26.3750  -23.7140 C.2   262  ASP262      0.3668
     68  OD1       -7.9100  -26.2770  -24.5010 O.co2 262  ASP262     -0.2456
     69  OD2       -6.7750  -27.3440  -22.9510 O.co2 262  ASP262     -0.2456
     70  N          1.1810  -30.0010  -16.8370 N.3   292  ASP292     -0.1239
     71  CA         0.0650  -30.9350  -16.8740 C.3   292  ASP292      0.1674
     72  C          0.4260  -31.9630  -17.9170 C.2   292  ASP292      0.2266
     73  O          0.2520  -31.7250  -19.1260 O.2   292  ASP292     -0.2867
     74  CB        -1.2240  -30.2180  -17.2970 C.3   292  ASP292      0.1410
     75  CG        -2.4800  -30.9990  -16.9350 C.2   292  ASP292      0.3668
     76  OD1       -2.5930  -31.4120  -15.7640 O.co2 292  ASP292     -0.2456
     77  OD2       -3.3620  -31.1850  -17.8050 O.co2 292  ASP292     -0.2456
     78  N          1.2240  -25.9220  -18.7400 N.3   297  ASP297     -0.1239
     79  CA        -0.0990  -25.4560  -18.3440 C.3   297  ASP297      0.1674
     80  C         -0.0220  -24.2040  -17.4290 C.2   297  ASP297      0.2266
     81  O          0.0130  -24.3080  -16.1930 O.2   297  ASP297     -0.2867
     82  CB        -0.7950  -26.6130  -17.6290 C.3   297  ASP297      0.1410
     83  CG        -2.2680  -26.3710  -17.3840 C.2   297  ASP297      0.3668
     84  OD1       -2.6080  -25.3820  -16.7040 O.co2 297  ASP297     -0.2456
     85  OD2       -3.0830  -27.1960  -17.8630 O.co2 297  ASP297     -0.2456
     86  N         -4.3910  -31.5740   -6.7110 N.3   337  TYR337     -0.1227
     87  CA        -5.7920  -31.9300   -7.0230 C.3   337  TYR337      0.1736
     88  C         -6.1210  -33.2320   -7.8090 C.2   337  TYR337      0.2595
     89  O         -7.3020  -33.5890   -7.9740 O.2   337  TYR337     -0.2718
     90  CB        -6.4700  -30.7300   -7.7000 C.3   337  TYR337      0.0548
     91  CG        -6.2350  -30.6410   -9.1660 C.ar  337  TYR337     -0.0200
     92  CD1       -5.0240  -30.1460   -9.6640 C.ar  337  TYR337     -0.0009
     93  CD2       -7.2000  -31.0870  -10.0620 C.ar  337  TYR337     -0.0009
     94  CE1       -4.7690  -30.1050  -11.0260 C.ar  337  TYR337      0.0417
     95  CE2       -6.9700  -31.0520  -11.4200 C.ar  337  TYR337      0.0417
     96  CZ        -5.7430  -30.5670  -11.9110 C.ar  337  TYR337      0.1957
     97  OH        -5.4700  -30.6040  -13.2770 O.3   337  TYR337     -0.2866
     98  N         -5.0850  -33.9370   -8.2710 N.am  338  LYS338     -0.1980
     99  CA        -5.2650  -35.1690   -9.0520 C.3   338  LYS338      0.1596
    100  C         -5.0490  -36.4580   -8.2620 C.2   338  LYS338      0.2287
    101  O         -5.5450  -37.5020   -8.6560 O.2   338  LYS338     -0.2864
    102  CB        -4.3410  -35.1320  -10.2580 C.3   338  LYS338      0.0298
    103  CG        -4.3110  -33.7890  -10.8990 C.3   338  LYS338      0.0038
    104  CD        -3.7090  -33.8170  -12.2530 C.3   338  LYS338      0.0206
    105  CE        -4.7710  -34.0930  -13.2750 C.3   338  LYS338      0.1093
    106  NZ        -4.1690  -33.9890  -14.6390 N.3   338  LYS338     -0.1314
    107  N         -7.5760  -38.9620   -7.1300 N.3   341  GLN341     -0.1245
    108  CA        -8.0500  -39.8520   -8.1510 C.3   341  GLN341      0.1566
    109  C         -7.0140  -40.9780   -8.3760 C.2   341  GLN341      0.2260
    110  O         -7.2610  -41.9570   -9.1020 O.2   341  GLN341     -0.2867
    111  CB        -8.3100  -39.0140   -9.4070 C.3   341  GLN341      0.0367
    112  CG        -9.0950  -37.7330   -9.1010 C.3   341  GLN341      0.0905
    113  CD        -9.7520  -37.1090  -10.3320 C.2   341  GLN341      0.2608
    114  OE1      -10.9290  -36.6870  -10.2860 O.2   341  GLN341     -0.2717
    115  NE2       -8.9950  -37.0350  -11.4390 N.am  341  GLN341     -0.0878
@<TRIPOS>BOND
     1    62    63    1
     2    63    64    1
     3    63    66    1
     4    65    64    2
     5    68    67   ar
     6    67    66    1
     7    67    69   ar
     8    23    24    1
     9    23    22    1
    10    19    20    1
    11    19    18    1
    12    19    22    1
    13    20    21    2
    14    24    25    1
    15    16    15   ar
    16    73    72    2
    17    11    12    1
    18    11    10    1
    19    11    14    1
    20    12    13    2
    21    78    79    1
    22    15    14    1
    23    15    17   ar
    24    79    82    1
    25    79    80    1
    26    25    26    1
    27    72    71    1
    28    85    83   ar
    29    77    75   ar
    30    82    83    1
    31    80    81    2
    32    83    84   ar
    33    74    75    1
    34    74    71    1
    35    75    76   ar
    36    71    70    1
    37    32    33    1
    38    32    31    1
    39    33    34    1
    40     4     3    2
    41    36    35    1
    42     3     2    1
    43    34    35    2
    44    35    37    1
    45    31    28    1
    46     5     2    1
    47     5     6    1
    48    27    28    1
    49    61    60    1
    50   106   105    1
    51     2     1    1
    52     7     6    1
    53     7     8    1
    54    53    52    2
    55    28    29    1
    56    52    51    1
    57    60    58   ar
    58    60    59   ar
    59     9     8    1
    60    58    56   ar
    61    59    57   ar
    62    49    48    1
    63    30    29    2
    64    97    96    1
    65   105   104    1
    66    56    55   ar
    67    57    55   ar
    68    55    54    1
    69    51    54    1
    70    51    50    1
    71    48    46   ar
    72    48    47   ar
    73   104   103    1
    74    46    44   ar
    75    47    45   ar
    76    96    95   ar
    77    96    94   ar
    78   115   113   am
    79    95    93   ar
    80    94    92   ar
    81    44    43   ar
    82   103   102    1
    83    45    43   ar
    84   113   114    2
    85   113   112    1
    86    43    42    1
    87   102    99    1
    88    93    91   ar
    89    38    39    1
    90    92    91   ar
    91   111   112    1
    92   111   108    1
    93    39    42    1
    94    39    40    1
    95    91    90    1
    96   110   109    2
    97    99    98    1
    98    99   100    1
    99   101   100    2
   100   109   108    1
   101    98    88   am
   102   108   107    1
   103    40    41    2
   104    89    88    2
   105    88    87    1
   106    90    87    1
   107    87    86    1
