@<TRIPOS>MOLECULE
tmp/5cuxA01.pdb
 94 88 0 0 0
SMALL
GASTEIGER

@<TRIPOS>ATOM
      1  N        -39.5550   -3.4580  -10.4320 N.3    92  LYS92      -0.1245
      2  CA       -40.5740   -2.4100  -10.3460 C.3    92  LYS92       0.1561
      3  C        -39.9270   -1.0800  -10.0230 C.2    92  LYS92       0.2260
      4  O        -39.5620   -0.8710   -8.8860 O.2    92  LYS92      -0.2867
      5  CB       -41.5840   -2.6320   -9.2220 C.3    92  LYS92       0.0271
      6  CG       -42.6440   -3.7180   -9.3860 C.3    92  LYS92       0.0035
      7  CD       -43.7590   -3.6570   -8.2150 C.3    92  LYS92       0.0206
      8  CE       -44.3910   -5.0940   -7.8510 C.3    92  LYS92       0.1093
      9  NZ       -45.7480   -5.2270   -7.1300 N.3    92  LYS92      -0.1314
     10  N        -40.3200    3.2970  -10.2800 N.3    94  GLU94      -0.1245
     11  CA       -41.4460    4.2110  -10.2150 C.3    94  GLU94       0.1567
     12  C        -40.9920    5.6140  -10.0710 C.2    94  GLU94       0.2260
     13  O        -39.8280    5.8650   -9.7560 O.2    94  GLU94      -0.2867
     14  CB       -42.3080    3.8880   -9.0070 C.3    94  GLU94       0.0388
     15  CG       -41.5440    3.9340   -7.6600 C.3    94  GLU94       0.1160
     16  CD       -42.4270    3.5670   -6.4460 C.2    94  GLU94       0.3649
     17  OE1      -43.4100    2.8190   -6.6380 O.co2  94  GLU94      -0.2457
     18  OE2      -42.1320    4.0160   -5.3040 O.co2  94  GLU94      -0.2457
     19  N        -38.9650    0.4870   -6.4990 N.3   107  ASP107     -0.1239
     20  CA       -39.9620    0.2890   -5.4640 C.3   107  ASP107      0.1674
     21  C        -39.4280   -0.6860   -4.4230 C.2   107  ASP107      0.2266
     22  O        -38.9410   -1.7540   -4.7680 O.2   107  ASP107     -0.2867
     23  CB       -41.2560   -0.2440   -6.0920 C.3   107  ASP107      0.1410
     24  CG       -42.4110   -0.3200   -5.0990 C.2   107  ASP107      0.3668
     25  OD1      -42.3870    0.4520   -4.1260 O.co2 107  ASP107     -0.2456
     26  OD2      -43.3600   -1.1230   -5.2890 O.co2 107  ASP107     -0.2456
     27  N        -38.2110   -4.3470   -5.0060 N.3   114  ARG114     -0.1245
     28  CA       -39.2540   -5.1770   -5.6260 C.3   114  ARG114      0.1563
     29  C        -38.9960   -5.5860   -7.0810 C.2   114  ARG114      0.2260
     30  O        -38.3550   -4.8430   -7.8420 O.2   114  ARG114     -0.2867
     31  CB       -40.6100   -4.4710   -5.5390 C.3   114  ARG114      0.0307
     32  CG       -41.7440   -5.3150   -6.1320 C.3   114  ARG114      0.0489
     33  CD       -42.8980   -5.5660   -5.1330 C.3   114  ARG114      0.2205
     34  NE       -43.7240   -4.3690   -4.9170 N.pl3 114  ARG114     -0.0865
     35  CZ       -44.7400   -4.2780   -4.0520 C.cat 114  ARG114      0.5346
     36  NH1      -45.0710   -5.3270   -3.2920 N.pl3 114  ARG114      0.1354
     37  NH2      -45.4390   -3.1390   -3.9670 N.pl3 114  ARG114      0.1354
     38  N        -41.1760   -8.3010  -10.1670 N.3   116  TYR116     -0.1241
     39  CA       -42.4250   -9.0390  -10.3780 C.3   116  TYR116      0.1605
     40  C        -42.1220  -10.5210  -10.3220 C.2   116  TYR116      0.2264
     41  O        -41.2590  -11.0130  -11.0360 O.2   116  TYR116     -0.2867
     42  CB       -43.0680   -8.7380  -11.7480 C.3   116  TYR116      0.0534
     43  CG       -43.6160   -7.3440  -11.9460 C.ar  116  TYR116     -0.0201
     44  CD1      -44.6270   -6.8330  -11.1260 C.ar  116  TYR116     -0.0009
     45  CD2      -43.0640   -6.5070  -12.9090 C.ar  116  TYR116     -0.0009
     46  CE1      -45.0530   -5.5250  -11.2570 C.ar  116  TYR116      0.0417
     47  CE2      -43.4750   -5.2080  -13.0440 C.ar  116  TYR116      0.0417
     48  CZ       -44.4540   -4.7220  -12.2170 C.ar  116  TYR116      0.1957
     49  OH       -44.7520   -3.3980  -12.3150 O.3   116  TYR116     -0.2866
     50  N        -51.9980    8.6850   -8.0540 N.3   148  ASP148     -0.1239
     51  CA       -50.7430    8.6080   -8.7900 C.3   148  ASP148      0.1674
     52  C        -50.9530    9.1110  -10.1760 C.2   148  ASP148      0.2266
     53  O        -52.0800    9.3760  -10.5780 O.2   148  ASP148     -0.2867
     54  CB       -50.3010    7.1770   -8.9470 C.3   148  ASP148      0.1410
     55  CG       -50.1010    6.5000   -7.6570 C.2   148  ASP148      0.3668
     56  OD1      -49.2070    6.9750   -6.9260 O.co2 148  ASP148     -0.2456
     57  OD2      -50.8320    5.5150   -7.3780 O.co2 148  ASP148     -0.2456
     58  N        -57.2990   -1.6440   -8.6080 N.3   178  ASP178     -0.1225
     59  CA       -56.1390   -2.0490   -7.8490 C.3   178  ASP178      0.1805
     60  C        -56.2920   -1.5450   -6.4250 C.2   178  ASP178      0.2597
     61  O        -56.1560   -0.3580   -6.1530 O.2   178  ASP178     -0.2718
     62  CB       -54.8700   -1.4620   -8.4560 C.3   178  ASP178      0.1424
     63  CG       -53.5980   -1.8420   -7.6800 C.2   178  ASP178      0.3668
     64  OD1      -53.6660   -1.9610   -6.4490 O.co2 178  ASP178     -0.2456
     65  OD2      -52.5150   -1.9960   -8.2900 O.co2 178  ASP178     -0.2456
     66  N        -56.5850   -2.4780   -5.5220 N.am  179  ASP179     -0.1974
     67  CA       -56.7510   -2.2330   -4.0900 C.3   179  ASP179      0.1709
     68  C        -57.8710   -1.2650   -3.7630 C.2   179  ASP179      0.2293
     69  O        -57.6990   -0.3250   -2.9740 O.2   179  ASP179     -0.2864
     70  CB       -55.4080   -1.7990   -3.4740 C.3   179  ASP179      0.1436
     71  CG       -54.3130   -2.8980   -3.6060 C.2   179  ASP179      0.3671
     72  OD1      -54.5220   -3.9200   -4.3450 O.co2 179  ASP179     -0.2456
     73  OD2      -53.2310   -2.7450   -2.9770 O.co2 179  ASP179     -0.2456
     74  N        -51.1860  -11.1160  -12.3390 N.3   223  TYR223     -0.1227
     75  CA       -49.8590  -10.9200  -11.8250 C.3   223  TYR223      0.1736
     76  C        -49.6980  -10.8710  -10.3190 C.2   223  TYR223      0.2595
     77  O        -48.5960  -11.0540   -9.8120 O.2   223  TYR223     -0.2718
     78  CB       -49.2350   -9.6890  -12.4500 C.3   223  TYR223      0.0548
     79  CG       -49.6490   -8.3810  -11.8460 C.ar  223  TYR223     -0.0200
     80  CD1      -50.9050   -7.8220  -12.1050 C.ar  223  TYR223     -0.0009
     81  CD2      -48.7520   -7.6670  -11.0510 C.ar  223  TYR223     -0.0009
     82  CE1      -51.2450   -6.5770  -11.5800 C.ar  223  TYR223      0.0417
     83  CE2      -49.0730   -6.4320  -10.5310 C.ar  223  TYR223      0.0417
     84  CZ       -50.3110   -5.8960  -10.7920 C.ar  223  TYR223      0.1957
     85  OH       -50.5980   -4.7060  -10.2230 O.3   223  TYR223     -0.2866
     86  N        -50.7730  -10.6360   -9.5930 N.am  224  LYS224     -0.1980
     87  CA       -50.6800  -10.5890   -8.1430 C.3   224  LYS224      0.1596
     88  C        -50.9540  -11.9430   -7.4450 C.2   224  LYS224      0.2287
     89  O        -50.5060  -12.1620   -6.3240 O.2   224  LYS224     -0.2864
     90  CB       -51.6410   -9.5310   -7.6200 C.3   224  LYS224      0.0298
     91  CG       -50.9860   -8.1960   -7.4170 C.3   224  LYS224      0.0038
     92  CD       -52.0110   -7.1800   -6.9690 C.3   224  LYS224      0.0206
     93  CE       -51.3530   -5.8940   -6.4890 C.3   224  LYS224      0.1093
     94  NZ       -52.3850   -4.8770   -6.0900 N.3   224  LYS224     -0.1314
@<TRIPOS>BOND
     1    47    45   ar
     2    47    48   ar
     3    45    43   ar
     4    78    79    1
     5    78    75    1
     6    74    75    1
     7    49    48    1
     8    48    46   ar
     9    80    79   ar
    10    80    82   ar
    11    43    42    1
    12    43    44   ar
    13    79    81   ar
    14    75    76    1
    15    42    39    1
    16    82    84   ar
    17    46    44   ar
    18    81    83   ar
    19    41    40    2
    20    84    83   ar
    21    84    85    1
    22    53    52    2
    23     1     2    1
    24    39    40    1
    25    39    38    1
    26     2     3    1
    27     2     5    1
    28    76    77    2
    29    76    86   am
    30    10    11    1
    31    11    12    1
    32    11    14    1
    33    52    51    1
    34    12    13    2
    35     3     4    2
    36    86    87    1
    37     6     5    1
    38     6     7    1
    39    14    15    1
    40    54    51    1
    41    54    55    1
    42    51    50    1
    43    58    59    1
    44    62    59    1
    45    62    63    1
    46    65    63   ar
    47     7     8    1
    48    87    90    1
    49    87    88    1
    50     8     9    1
    51    59    60    1
    52    30    29    2
    53    63    64   ar
    54    15    16    1
    55    55    57   ar
    56    55    56   ar
    57    90    91    1
    58    88    89    2
    59    91    92    1
    60    29    28    1
    61    92    93    1
    62    17    16   ar
    63    19    20    1
    64    93    94    1
    65    16    18   ar
    66    60    61    2
    67    60    66   am
    68    32    31    1
    69    32    33    1
    70    23    20    1
    71    23    24    1
    72    28    31    1
    73    28    27    1
    74    66    67    1
    75    20    21    1
    76    26    24   ar
    77    33    34    1
    78    24    25   ar
    79    34    35    2
    80    22    21    2
    81    72    71   ar
    82    67    68    1
    83    67    70    1
    84    35    37    1
    85    35    36    1
    86    68    69    2
    87    71    70    1
    88    71    73   ar
