@<TRIPOS>MOLECULE
tmp/5cuxA00.pdb
 110 105 0 0 0
SMALL
GASTEIGER

@<TRIPOS>ATOM
      1  N        -47.3360   16.7970  -26.6380 N.3    63  VAL63      -0.1231
      2  CA       -46.1190   17.1800  -27.3400 C.3    63  VAL63       0.1692
      3  C        -46.5310   18.2130  -28.3400 C.2    63  VAL63       0.2591
      4  O        -47.4510   17.9830  -29.1100 O.2    63  VAL63      -0.2718
      5  CB       -45.4850   16.0540  -28.0860 C.3    63  VAL63       0.0266
      6  CG1      -44.1910   16.5170  -28.6310 C.3    63  VAL63       0.0020
      7  CG2      -45.2830   14.9020  -27.1900 C.3    63  VAL63       0.0020
      8  N        -45.8770   19.3620  -28.3250 N.am   64  ARG64      -0.1980
      9  CA       -46.2560   20.4200  -29.2490 C.3    64  ARG64       0.1597
     10  C        -45.0900   21.2560  -29.7080 C.2    64  ARG64       0.2287
     11  O        -44.1990   21.5680  -28.9140 O.2    64  ARG64      -0.2864
     12  CB       -47.2160   21.4040  -28.6110 C.3    64  ARG64       0.0334
     13  CG       -48.3480   20.8720  -27.8850 C.3    64  ARG64       0.0492
     14  CD       -49.2410   22.0700  -27.6720 C.3    64  ARG64       0.2205
     15  NE       -50.5550   21.7230  -27.1370 N.pl3  64  ARG64      -0.0865
     16  CZ       -50.8660   21.8200  -25.8440 C.cat  64  ARG64       0.5346
     17  NH1      -49.9350   22.2660  -24.9790 N.pl3  64  ARG64       0.1354
     18  NH2      -52.0940   21.4670  -25.4220 N.pl3  64  ARG64       0.1354
     19  N        -47.9090   24.3980  -35.7680 N.3    68  ARG68      -0.1245
     20  CA       -48.3130   23.0680  -36.2470 C.3    68  ARG68       0.1563
     21  C        -48.5660   23.1130  -37.7760 C.2    68  ARG68       0.2260
     22  O        -49.3590   23.9230  -38.2720 O.2    68  ARG68      -0.2867
     23  CB       -49.5880   22.6370  -35.4920 C.3    68  ARG68       0.0307
     24  CG       -50.1480   21.2680  -35.8040 C.3    68  ARG68       0.0489
     25  CD       -51.3280   21.0150  -34.9110 C.3    68  ARG68       0.2205
     26  NE       -51.7550   19.6310  -34.9200 N.pl3  68  ARG68      -0.0865
     27  CZ       -52.6410   19.1240  -35.7680 C.cat  68  ARG68       0.5346
     28  NH1      -53.2200   19.9130  -36.6750 N.pl3  68  ARG68       0.1354
     29  NH2      -52.9060   17.8120  -35.7560 N.pl3  68  ARG68       0.1354
     30  N        -49.4790   20.3320  -39.5670 N.3    70  LYS70      -0.1245
     31  CA       -50.3860   19.2400  -39.9310 C.3    70  LYS70       0.1561
     32  C        -51.7680   19.8380  -40.1960 C.2    70  LYS70       0.2260
     33  O        -52.0910   20.9110  -39.6870 O.2    70  LYS70      -0.2867
     34  CB       -50.5180   18.2550  -38.7840 C.3    70  LYS70       0.0271
     35  CG       -49.2550   17.5510  -38.4130 C.3    70  LYS70       0.0035
     36  CD       -49.5670   16.3270  -37.5870 C.3    70  LYS70       0.0206
     37  CE       -48.4390   15.3500  -37.6310 C.3    70  LYS70       0.1093
     38  NZ       -47.3310   15.8570  -36.7930 N.3    70  LYS70      -0.1314
     39  N        -56.8860   17.2410  -38.8590 N.3    74  LEU74      -0.1231
     40  CA       -56.3680   16.0480  -38.1840 C.3    74  LEU74       0.1678
     41  C        -56.2900   16.2530  -36.6600 C.2    74  LEU74       0.2434
     42  O        -55.5380   17.0640  -36.1530 O.2    74  LEU74      -0.2733
     43  CB       -54.9800   15.7430  -38.7030 C.3    74  LEU74       0.0284
     44  CG       -54.2010   14.7100  -37.8970 C.3    74  LEU74       0.0019
     45  CD1      -54.9410   13.4210  -37.8350 C.3    74  LEU74       0.0001
     46  CD2      -52.8610   14.5150  -38.5480 C.3    74  LEU74       0.0001
     47  N        -57.0390   15.4790  -35.9010 N.am   75  PRO75      -0.2718
     48  CA       -56.9920   15.6650  -34.4430 C.3    75  PRO75       0.1535
     49  C        -55.6380   15.3660  -33.8650 C.2    75  PRO75       0.2598
     50  O        -54.9440   14.5010  -34.3570 O.2    75  PRO75      -0.2715
     51  CB       -58.0220   14.6790  -33.9370 C.3    75  PRO75       0.0310
     52  CG       -58.7980   14.2450  -35.1930 C.3    75  PRO75       0.0237
     53  CD       -57.7740   14.2600  -36.2620 C.3    75  PRO75       0.0939
     54  N        -55.2760   16.0630  -32.7980 N.am   76  MET76      -0.1964
     55  CA       -53.9790   15.8570  -32.1600 C.3    76  MET76       0.1736
     56  C        -53.9310   14.6440  -31.2590 C.2    76  MET76       0.2616
     57  O        -54.8600   14.3870  -30.4970 O.2    76  MET76      -0.2715
     58  CB       -53.6040   17.0600  -31.3450 C.3    76  MET76       0.0427
     59  CG       -53.3560   18.2890  -32.1760 C.3    76  MET76       0.0599
     60  SD       -53.4500   19.8220  -31.2060 S.3    76  MET76      -0.1393
     61  CE       -55.3680   20.1980  -31.4760 C.3    76  MET76       0.0692
     62  N        -52.8330   13.9000  -31.3430 N.am   77  ASN77      -0.1958
     63  CA       -52.6390   12.7250  -30.5260 C.3    77  ASN77       0.1819
     64  C        -51.1500   12.3990  -30.3990 C.2    77  ASN77       0.2621
     65  O        -50.7040   11.4520  -31.0090 O.2    77  ASN77      -0.2715
     66  CB       -53.3740   11.5600  -31.1520 C.3    77  ASN77       0.1195
     67  CG       -53.3680   10.3280  -30.2750 C.2    77  ASN77       0.2630
     68  OD1      -52.5570   10.2390  -29.3450 O.2    77  ASN77      -0.2716
     69  ND2      -54.2620    9.3590  -30.5620 N.am   77  ASN77      -0.0877
     70  N        -50.3700   13.2030  -29.6660 N.am   78  ARG78      -0.1977
     71  CA       -48.9380   12.9350  -29.4370 C.3    78  ARG78       0.1597
     72  C        -48.7390   13.3140  -27.9900 C.2    78  ARG78       0.2287
     73  O        -48.7120   14.4830  -27.6550 O.2    78  ARG78      -0.2864
     74  CB       -47.9890   13.7810  -30.3400 C.3    78  ARG78       0.0334
     75  CG       -47.3060   12.9840  -31.5140 C.3    78  ARG78       0.0492
     76  CD       -46.4650   13.7730  -32.6700 C.3    78  ARG78       0.2205
     77  NE       -45.9510   12.8170  -33.7060 N.pl3  78  ARG78      -0.0865
     78  CZ       -45.2350   13.0750  -34.8270 C.cat  78  ARG78       0.5346
     79  NH1      -44.8660   12.0620  -35.6280 N.pl3  78  ARG78       0.1354
     80  NH2      -44.8790   14.3110  -35.1810 N.pl3  78  ARG78       0.1354
     81  N        -48.6270    7.6740  -29.2740 N.3   169  LYS169     -0.1245
     82  CA       -49.9700    7.9550  -29.7310 C.3   169  LYS169      0.1561
     83  C        -50.9050    7.1590  -28.8070 C.2   169  LYS169      0.2260
     84  O        -50.6910    5.9670  -28.5840 O.2   169  LYS169     -0.2867
     85  CB       -50.0630    7.5000  -31.1770 C.3   169  LYS169      0.0271
     86  CG       -51.4410    7.4570  -31.8200 C.3   169  LYS169      0.0035
     87  CD       -51.2470    6.9200  -33.2250 C.3   169  LYS169      0.0206
     88  CE       -52.5250    6.8280  -34.0050 C.3   169  LYS169      0.1093
     89  NZ       -52.1790    6.5470  -35.4500 N.3   169  LYS169     -0.1314
     90  N        -44.5470    7.0710  -31.3770 N.3   191  HIS191     -0.1241
     91  CA       -44.7470    7.6890  -32.6920 C.3   191  HIS191      0.1621
     92  C        -43.6380    7.2180  -33.6430 C.2   191  HIS191      0.2264
     93  O        -43.7600    7.4150  -34.8320 O.2   191  HIS191     -0.2867
     94  CB       -44.8010    9.2450  -32.5990 C.3   191  HIS191      0.0745
     95  CG       -46.1740    9.8530  -32.8860 C.ar  191  HIS191      0.0817
     96  ND1      -46.5230   10.4130  -34.1080 N.ar  191  HIS191     -0.2268
     97  CD2      -47.2830    9.9850  -32.1040 C.ar  191  HIS191      0.1154
     98  CE1      -47.7720   10.8580  -34.0640 C.ar  191  HIS191      0.1986
     99  NE2      -48.2560   10.6100  -32.8600 N.ar  191  HIS191     -0.2212
    100  N        -48.4450    4.4120  -37.5540 N.3   197  ARG197     -0.1245
    101  CA       -49.3560    5.0380  -38.4870 C.3   197  ARG197      0.1563
    102  C        -50.4650    4.1550  -38.9760 C.2   197  ARG197      0.2260
    103  O        -51.4320    4.6400  -39.5140 O.2   197  ARG197     -0.2867
    104  CB       -48.5700    5.6440  -39.6550 C.3   197  ARG197      0.0307
    105  CG       -47.7210    6.9180  -39.2140 C.3   197  ARG197      0.0489
    106  CD       -48.6240    8.1010  -38.7020 C.3   197  ARG197      0.2205
    107  NE       -48.7020    8.2960  -37.2420 N.pl3 197  ARG197     -0.0865
    108  CZ       -49.6580    9.0140  -36.6440 C.cat 197  ARG197      0.5346
    109  NH1      -50.6140    9.5910  -37.3690 N.pl3 197  ARG197      0.1354
    110  NH2      -49.6610    9.1980  -35.3270 N.pl3 197  ARG197      0.1354
@<TRIPOS>BOND
     1    32    31    1
     2    32    33    2
     3    31    30    1
     4    31    34    1
     5   104   105    1
     6   104   101    1
     7   103   102    2
     8   105   106    1
     9   102   101    1
    10    39    40    1
    11    34    35    1
    12    43    40    1
    13    43    44    1
    14   106   107    1
    15    46    44    1
    16   101   100    1
    17    35    36    1
    18    22    21    2
    19    40    41    1
    20    44    45    1
    21    21    20    1
    22    37    36    1
    23    37    38    1
    24   109   108    1
    25   107   108    2
    26    28    27    1
    27    41    42    2
    28    41    47   am
    29   108   110    1
    30    53    47    1
    31    53    52    1
    32    20    19    1
    33    20    23    1
    34    47    48    1
    35    24    23    1
    36    24    25    1
    37    27    29    1
    38    27    26    2
    39    79    78    1
    40    89    88    1
    41    52    51    1
    42    80    78    1
    43    26    25    1
    44    93    92    2
    45    78    77    2
    46    48    51    1
    47    48    49    1
    48    50    49    2
    49    96    98   ar
    50    96    95   ar
    51    98    99   ar
    52    88    87    1
    53    49    54   am
    54    77    76    1
    55    92    91    1
    56    87    86    1
    57    95    94    1
    58    95    97   ar
    59    99    97   ar
    60    54    55    1
    61    91    94    1
    62    91    90    1
    63    76    75    1
    64    59    58    1
    65    59    60    1
    66    55    58    1
    67    55    56    1
    68    86    85    1
    69    75    74    1
    70    61    60    1
    71    62    56   am
    72    62    63    1
    73    56    57    2
    74    85    82    1
    75    66    63    1
    76    66    67    1
    77    65    64    2
    78    69    67   am
    79    63    64    1
    80    64    70   am
    81    74    71    1
    82    67    68    2
    83    82    81    1
    84    82    83    1
    85    10     9    1
    86    10    11    2
    87    70    71    1
    88    71    72    1
    89     9    12    1
    90     9     8    1
    91     4     3    2
    92    83    84    2
    93     6     5    1
    94    12    13    1
    95     3     8   am
    96     3     2    1
    97     5     2    1
    98     5     7    1
    99    72    73    2
   100    13    14    1
   101    14    15    1
   102     2     1    1
   103    15    16    2
   104    16    18    1
   105    16    17    1
