@<TRIPOS>MOLECULE
tmp/5cuyD00.pdb
 111 106 0 0 0
SMALL
GASTEIGER

@<TRIPOS>ATOM
      1  N         49.8780  -11.4560  115.2050 N.3   192  VAL192     -0.1245
      2  CA        48.6670  -10.9080  115.8040 C.3   192  VAL192      0.1561
      3  C         47.4810  -11.7770  115.4510 C.2   192  VAL192      0.2260
      4  O         46.9350  -11.6260  114.3800 O.2   192  VAL192     -0.2867
      5  CB        48.3770   -9.5100  115.2910 C.3   192  VAL192      0.0252
      6  CG1       47.0310   -9.0420  115.8110 C.3   192  VAL192      0.0019
      7  CG2       49.5430   -8.5790  115.6670 C.3   192  VAL192      0.0019
      8  N         43.5320  -13.4890  116.1080 N.3   194  ASP194     -0.1239
      9  CA        42.2200  -13.3530  116.7500 C.3   194  ASP194      0.1674
     10  C         41.8960  -14.6380  117.5290 C.2   194  ASP194      0.2266
     11  O         42.4200  -15.6840  117.2110 O.2   194  ASP194     -0.2867
     12  CB        41.1320  -13.1000  115.6860 C.3   194  ASP194      0.1410
     13  CG        41.2350  -11.7000  115.0460 C.2   194  ASP194      0.3668
     14  OD1       41.0390  -10.7000  115.7820 O.co2 194  ASP194     -0.2456
     15  OD2       41.5100  -11.6050  113.8080 O.co2 194  ASP194     -0.2456
     16  N         39.2600  -16.6670  114.4920 N.3   197  ARG197     -0.1245
     17  CA        39.5130  -16.0900  113.1930 C.3   197  ARG197      0.1563
     18  C         38.2870  -16.2960  112.3210 C.2   197  ARG197      0.2260
     19  O         37.9510  -17.4320  111.9800 O.2   197  ARG197     -0.2867
     20  CB        40.7090  -16.7720  112.5620 C.3   197  ARG197      0.0307
     21  CG        41.0380  -16.1970  111.2340 C.3   197  ARG197      0.0489
     22  CD        42.4160  -16.5340  110.8670 C.3   197  ARG197      0.2205
     23  NE        42.8870  -15.5700  109.8970 N.pl3 197  ARG197     -0.0865
     24  CZ        42.6270  -15.6550  108.6050 C.cat 197  ARG197      0.5346
     25  NH1       41.9070  -16.6780  108.1590 N.pl3 197  ARG197      0.1354
     26  NH2       43.0650  -14.7160  107.7690 N.pl3 197  ARG197      0.1354
     27  N         37.8790  -14.5470  109.3060 N.3   199  LYS199     -0.1245
     28  CA        38.2570  -14.3860  107.8910 C.3   199  LYS199      0.1561
     29  C         38.3320  -15.8060  107.2960 C.2   199  LYS199      0.2260
     30  O         38.7230  -16.7600  107.9750 O.2   199  LYS199     -0.2867
     31  CB        39.6150  -13.6980  107.7620 C.3   199  LYS199      0.0271
     32  CG        39.7050  -12.4150  108.5490 C.3   199  LYS199      0.0035
     33  CD        40.5980  -11.3860  107.8640 C.3   199  LYS199      0.0206
     34  CE        40.6640  -10.0710  108.6520 C.3   199  LYS199      0.1093
     35  NZ        41.4880  -10.1250  109.9270 N.3   199  LYS199     -0.1314
     36  N         41.8530  -17.6030  103.0600 N.3   203  THR203     -0.1204
     37  CA        42.7710  -16.4620  103.1590 C.3   203  THR203      0.1979
     38  C         43.8420  -16.7500  104.2290 C.2   203  THR203      0.2460
     39  O         43.5240  -16.9420  105.3920 O.2   203  THR203     -0.2732
     40  CB        42.0170  -15.1490  103.5960 C.3   203  THR203      0.1783
     41  OG1       41.0820  -14.7520  102.5870 O.3   203  THR203     -0.2211
     42  CG2       42.9980  -14.0060  103.8070 C.3   203  THR203      0.0376
     43  N         45.1200  -16.7730  103.8530 N.am  204  PRO204     -0.2717
     44  CA        46.1370  -17.0450  104.8690 C.3   204  PRO204      0.1535
     45  C         46.4250  -15.8410  105.7910 C.2   204  PRO204      0.2598
     46  O         46.0240  -14.7020  105.5130 O.2   204  PRO204     -0.2715
     47  CB        47.3290  -17.4850  104.0300 C.3   204  PRO204      0.0310
     48  CG        47.1730  -16.6020  102.8010 C.3   204  PRO204      0.0237
     49  CD        45.7130  -16.6260  102.5140 C.3   204  PRO204      0.0939
     50  N         47.1200  -16.0960  106.8930 N.am  205  MET205     -0.1964
     51  CA        47.4030  -15.0460  107.8790 C.3   205  MET205      0.1736
     52  C         48.6350  -14.1990  107.6170 C.2   205  MET205      0.2616
     53  O         49.6880  -14.6990  107.2680 O.2   205  MET205     -0.2715
     54  CB        47.5060  -15.6670  109.2760 C.3   205  MET205      0.0427
     55  CG        46.3650  -16.6690  109.5970 C.3   205  MET205      0.0599
     56  SD        46.4620  -17.4180  111.2670 S.3   205  MET205     -0.1393
     57  CE        45.8960  -15.9150  112.2360 C.3   205  MET205      0.0692
     58  N         48.4550  -12.8950  107.7830 N.am  206  ASN206     -0.1958
     59  CA        49.5150  -11.9120  107.5920 C.3   206  ASN206      0.1819
     60  C         49.2350  -10.6480  108.4260 C.2   206  ASN206      0.2621
     61  O         48.7670   -9.6200  107.9290 O.2   206  ASN206     -0.2715
     62  CB        49.6550  -11.5340  106.1130 C.3   206  ASN206      0.1195
     63  CG        51.0260  -10.9560  105.8050 C.2   206  ASN206      0.2630
     64  OD1       51.7120  -10.4440  106.7170 O.2   206  ASN206     -0.2716
     65  ND2       51.4450  -11.0260  104.5410 N.am  206  ASN206     -0.0877
     66  N         49.4770  -10.7420  109.7200 N.am  207  ARG207     -0.1977
     67  CA        49.2620   -9.5960  110.5770 C.3   207  ARG207      0.1597
     68  C         50.3410   -9.7030  111.6580 C.2   207  ARG207      0.2287
     69  O         50.3140  -10.5790  112.5230 O.2   207  ARG207     -0.2864
     70  CB        47.8490   -9.6310  111.1260 C.3   207  ARG207      0.0334
     71  CG        47.3880   -8.3520  111.7670 C.3   207  ARG207      0.0492
     72  CD        45.8990   -8.4450  112.1290 C.3   207  ARG207      0.2205
     73  NE        45.2500   -7.1370  112.0630 N.pl3 207  ARG207     -0.0865
     74  CZ        44.6560   -6.6520  110.9770 C.cat 207  ARG207      0.5346
     75  NH1       44.6090   -7.3730  109.8520 N.pl3 207  ARG207      0.1354
     76  NH2       44.1190   -5.4270  111.0110 N.pl3 207  ARG207      0.1354
     77  N         51.4610   -5.8900  107.5290 N.3   298  LYS298     -0.1245
     78  CA        51.3790   -7.0090  106.6130 C.3   298  LYS298      0.1561
     79  C         52.7620   -7.1430  105.9500 C.2   298  LYS298      0.2260
     80  O         53.3400   -6.1530  105.5000 O.2   298  LYS298     -0.2867
     81  CB        50.2960   -6.7290  105.5880 C.3   298  LYS298      0.0271
     82  CG        50.1080   -7.8730  104.6260 C.3   298  LYS298      0.0035
     83  CD        48.8350   -7.7010  103.8280 C.3   298  LYS298      0.0206
     84  CE        48.9690   -6.6690  102.7490 C.3   298  LYS298      0.1093
     85  NZ        47.7080   -6.7290  101.9490 N.3   298  LYS298     -0.1314
     86  N         48.3280   -2.1890  108.4110 N.3   320  HIS320     -0.1241
     87  CA        47.0100   -2.6120  107.9930 C.3   320  HIS320      0.1621
     88  C         46.0440   -1.4120  107.9150 C.2   320  HIS320      0.2264
     89  O         45.0550   -1.4600  107.2120 O.2   320  HIS320     -0.2867
     90  CB        46.4870   -3.7030  108.9590 C.3   320  HIS320      0.0745
     91  CG        46.9330   -5.0910  108.6110 C.ar  320  HIS320      0.0817
     92  ND1       46.4030   -5.7960  107.5530 N.ar  320  HIS320     -0.2268
     93  CD2       47.8900   -5.8870  109.1440 C.ar  320  HIS320      0.1154
     94  CE1       47.0210   -6.9620  107.4460 C.ar  320  HIS320      0.1986
     95  NE2       47.9270   -7.0420  108.3980 N.ar  320  HIS320     -0.2212
     96  N         46.5080   -0.7830  101.8120 N.3   325  CYS325     -0.1221
     97  CA        46.9300   -2.0590  102.3100 C.3   325  CYS325      0.1808
     98  C         46.2310   -3.2580  101.6610 C.2   325  CYS325      0.2601
     99  O         46.8650   -4.2510  101.3430 O.2   325  CYS325     -0.2717
    100  CB        46.7460   -2.1020  103.8060 C.3   325  CYS325      0.0970
    101  SG        47.2160   -3.7390  104.4110 S.3   325  CYS325     -0.0800
    102  N         44.9220   -3.1630  101.4570 N.am  326  HIS326     -0.1975
    103  CA        44.1770   -4.2690  100.8780 C.3   326  HIS326      0.1656
    104  C         44.5540   -4.5950   99.4330 C.2   326  HIS326      0.2291
    105  O         44.2760   -5.6960   98.9690 O.2   326  HIS326     -0.2864
    106  CB        42.6690   -4.0010  100.9740 C.3   326  HIS326      0.0771
    107  CG        41.8490   -5.2310  101.2310 C.ar  326  HIS326      0.0820
    108  ND1       41.8000   -6.2990  100.3520 N.ar  326  HIS326     -0.2267
    109  CD2       41.0540   -5.5700  102.2790 C.ar  326  HIS326      0.1154
    110  CE1       41.0120   -7.2420  100.8480 C.ar  326  HIS326      0.1986
    111  NE2       40.5460   -6.8260  102.0150 N.ar  326  HIS326     -0.2212
@<TRIPOS>BOND
     1   105   104    2
     2   104   103    1
     3   108   110   ar
     4   108   107   ar
     5   110   111   ar
     6   103   106    1
     7   103   102    1
     8   106   107    1
     9   107   109   ar
    10    99    98    2
    11   102    98   am
    12    98    97    1
    13    96    97    1
    14    85    84    1
    15   111   109   ar
    16    97   100    1
    17    49    48    1
    18    49    43    1
    19    41    40    1
    20    84    83    1
    21    48    47    1
    22    36    37    1
    23    37    40    1
    24    37    38    1
    25    40    42    1
    26   100   101    1
    27    83    82    1
    28    43    38   am
    29    43    44    1
    30    47    44    1
    31    38    39    2
    32    65    63   am
    33    82    81    1
    34    44    45    1
    35    80    79    2
    36    46    45    2
    37    81    78    1
    38    45    50   am
    39    63    62    1
    40    63    64    2
    41    79    78    1
    42    62    59    1
    43    78    77    1
    44    50    51    1
    45    89    88    2
    46    53    52    2
    47    29    28    1
    48    29    30    2
    49    94    92   ar
    50    94    95   ar
    51    92    91   ar
    52    59    58    1
    53    59    60    1
    54    52    58   am
    55    52    51    1
    56    31    28    1
    57    31    32    1
    58    26    24    1
    59    33    32    1
    60    33    34    1
    61    51    54    1
    62    28    27    1
    63    88    87    1
    64    61    60    2
    65    87    86    1
    66    87    90    1
    67    25    24    1
    68    95    93   ar
    69    60    66   am
    70    24    23    2
    71    91    90    1
    72    91    93   ar
    73    34    35    1
    74    54    55    1
    75    55    56    1
    76    66    67    1
    77    75    74    1
    78    23    22    1
    79    67    70    1
    80    67    68    1
    81    22    21    1
    82    74    76    1
    83    74    73    2
    84    70    71    1
    85    21    20    1
    86    56    57    1
    87    68    69    2
    88    71    72    1
    89    19    18    2
    90    73    72    1
    91    18    17    1
    92    20    17    1
    93    17    16    1
    94    15    13   ar
    95     4     3    2
    96    13    12    1
    97    13    14   ar
    98     1     2    1
    99     5     7    1
   100     5     2    1
   101     5     6    1
   102     3     2    1
   103    12     9    1
   104     8     9    1
   105     9    10    1
   106    11    10    2
