@<TRIPOS>MOLECULE
tmp/5cvcA00.pdb
 152 145 0 0 0
SMALL
GASTEIGER

@<TRIPOS>ATOM
      1  N        -16.0230  -36.1590    3.7190 N.3    50  ALA50      -0.1231
      2  CA       -16.6750  -35.6760    2.4890 C.3    50  ALA50       0.1694
      3  C        -17.2950  -36.8100    1.6880 C.2    50  ALA50       0.2592
      4  O        -17.0840  -37.9950    2.0010 O.2    50  ALA50      -0.2718
      5  CB       -15.6830  -34.9130    1.6280 C.3    50  ALA50       0.0304
      6  N        -18.0770  -36.4320    0.6730 N.am   51  PHE51      -0.1962
      7  CA       -18.8180  -37.3800   -0.1800 C.3    51  PHE51       0.1771
      8  C        -17.9300  -38.2350   -1.0860 C.2    51  PHE51       0.2619
      9  O        -18.3520  -39.2930   -1.5710 O.2    51  PHE51      -0.2715
     10  CB       -19.8370  -36.6370   -1.0650 C.3    51  PHE51       0.0574
     11  CG       -19.2060  -35.7790   -2.1410 C.ar   51  PHE51      -0.0200
     12  CD1      -18.9300  -36.3070   -3.4140 C.ar   51  PHE51      -0.0042
     13  CD2      -18.9050  -34.4540   -1.8900 C.ar   51  PHE51      -0.0042
     14  CE1      -18.3260  -35.5240   -4.3920 C.ar   51  PHE51      -0.0003
     15  CE2      -18.3300  -33.6470   -2.8720 C.ar   51  PHE51      -0.0003
     16  CZ       -18.0380  -34.1880   -4.1300 C.ar   51  PHE51      -0.0000
     17  N        -16.7090  -37.7750   -1.3170 N.am   52  LYS52      -0.1977
     18  CA       -15.8670  -38.3230   -2.3910 C.3    52  LYS52       0.1596
     19  C        -15.4910  -39.7910   -2.2800 C.2    52  LYS52       0.2287
     20  O        -15.1930  -40.4320   -3.2880 O.2    52  LYS52      -0.2864
     21  CB       -14.5960  -37.4970   -2.5110 C.3    52  LYS52       0.0298
     22  CG       -14.8200  -36.1420   -3.1670 C.3    52  LYS52       0.0038
     23  CD       -13.4590  -35.5560   -3.4510 C.3    52  LYS52       0.0206
     24  CE       -13.5560  -34.4320   -4.4320 C.3    52  LYS52       0.1093
     25  NZ       -14.1080  -33.3140   -3.6640 N.3    52  LYS52      -0.1314
     26  N         -9.7970  -33.0480   -0.9720 N.3    79  ASN79      -0.1240
     27  CA       -10.5560  -34.1530   -0.3810 C.3    79  ASN79       0.1653
     28  C        -10.4630  -35.4570   -1.1630 C.2    79  ASN79       0.2266
     29  O        -10.5190  -36.5260   -0.5850 O.2    79  ASN79      -0.2867
     30  CB       -12.0210  -33.7290   -0.1830 C.3    79  ASN79       0.1155
     31  CG       -12.1880  -32.7700    0.9730 C.2    79  ASN79       0.2627
     32  OD1      -11.4130  -32.8010    1.9270 O.2    79  ASN79      -0.2716
     33  ND2      -13.1920  -31.9140    0.8990 N.am   79  ASN79      -0.0877
     34  N        -11.2910  -37.4190  -10.1650 N.3   146  PRO146     -0.2102
     35  CA       -12.1270  -36.8380   -9.1150 C.3   146  PRO146      0.1504
     36  C        -13.5260  -36.3820   -9.5350 C.2   146  PRO146      0.2575
     37  O        -14.3530  -36.1700   -8.6650 O.2   146  PRO146     -0.2718
     38  CB       -11.3200  -35.6220   -8.6540 C.3   146  PRO146      0.0282
     39  CG       -10.4600  -35.2700   -9.8200 C.3   146  PRO146      0.0208
     40  CD       -10.0800  -36.6070  -10.4140 C.3   146  PRO146      0.0893
     41  N        -13.7820  -36.3140  -10.8410 N.am  147  ILE147     -0.1980
     42  CA       -14.9200  -35.5840  -11.4630 C.3   147  ILE147      0.1595
     43  C        -15.4730  -36.4710  -12.6330 C.2   147  ILE147      0.2287
     44  O        -16.6390  -36.9460  -12.7090 O.2   147  ILE147     -0.2864
     45  CB       -14.2600  -34.2620  -12.1040 C.3   147  ILE147      0.0276
     46  CG1      -13.5940  -33.3030  -11.1240 C.3   147  ILE147      0.0022
     47  CG2      -15.0580  -33.5210  -13.1430 C.3   147  ILE147      0.0022
     48  CD1      -12.6620  -32.3320  -11.8780 C.3   147  ILE147      0.0001
     49  N        -21.1500  -40.9580   -6.8440 N.3   156  GLN156     -0.1245
     50  CA       -21.7330  -39.7060   -6.3570 C.3   156  GLN156      0.1566
     51  C        -23.2760  -39.6890   -6.4030 C.2   156  GLN156      0.2260
     52  O        -23.9000  -39.1260   -5.5200 O.2   156  GLN156     -0.2867
     53  CB       -21.1610  -38.5160   -7.1250 C.3   156  GLN156      0.0367
     54  CG       -20.0670  -37.7620   -6.3860 C.3   156  GLN156      0.0905
     55  CD       -18.8580  -38.6090   -5.9890 C.2   156  GLN156      0.2608
     56  OE1      -18.9660  -39.5630   -5.2150 O.2   156  GLN156     -0.2717
     57  NE2      -17.6740  -38.2130   -6.4800 N.am  156  GLN156     -0.0878
     58  N        -23.3010  -28.0210   -4.3690 N.3   176  PRO176     -0.2102
     59  CA       -22.0430  -27.3370   -4.6880 C.3   176  PRO176      0.1504
     60  C        -21.4350  -27.8660   -5.9910 C.2   176  PRO176      0.2576
     61  O        -21.5500  -29.0620   -6.2690 O.2   176  PRO176     -0.2718
     62  CB       -21.1410  -27.7180   -3.5220 C.3   176  PRO176      0.0282
     63  CG       -22.0800  -27.9800   -2.3930 C.3   176  PRO176      0.0208
     64  CD       -23.2700  -28.6400   -3.0370 C.3   176  PRO176      0.0893
     65  N        -20.8050  -27.0070   -6.7820 N.am  177  ILE177     -0.1966
     66  CA       -20.2490  -27.4620   -8.0620 C.3   177  ILE177      0.1727
     67  C        -18.8070  -27.0160   -8.2210 C.2   177  ILE177      0.2617
     68  O        -18.4650  -25.8760   -7.8870 O.2   177  ILE177     -0.2715
     69  CB       -21.1230  -27.0550   -9.2720 C.3   177  ILE177      0.0290
     70  CG1      -20.6650  -27.7700  -10.5400 C.3   177  ILE177      0.0022
     71  CG2      -21.1390  -25.5460   -9.4850 C.3   177  ILE177      0.0023
     72  CD1      -21.6240  -27.6670  -11.7080 C.3   177  ILE177      0.0001
     73  N        -17.9620  -27.9450   -8.6690 N.am  178  SER178     -0.1936
     74  CA       -16.5820  -27.6420   -9.0110 C.3   178  SER178      0.2055
     75  C        -16.2100  -28.2770  -10.3510 C.2   178  SER178      0.2644
     76  O        -16.0970  -27.5740  -11.3550 O.2   178  SER178     -0.2714
     77  CB       -15.6190  -28.1020   -7.9130 C.3   178  SER178      0.2130
     78  OG       -14.2930  -27.6150   -8.1410 O.3   178  SER178     -0.2179
     79  N        -15.9480  -29.5800  -10.3630 N.am  179  GLY179     -0.1939
     80  CA       -15.7410  -30.3180  -11.6200 C.3   179  GLY179      0.2014
     81  C        -17.0610  -30.8430  -12.1720 C.2   179  GLY179      0.2639
     82  O        -17.1740  -31.0990  -13.3650 O.2   179  GLY179     -0.2714
     83  N        -18.0440  -30.9980  -11.2870 N.am  180  GLY180     -0.1939
     84  CA       -19.4050  -31.3870  -11.6580 C.3   180  GLY180      0.2014
     85  C        -19.7600  -32.8470  -11.4770 C.2   180  GLY180      0.2639
     86  O        -20.8420  -33.2770  -11.9150 O.2   180  GLY180     -0.2714
     87  N        -18.8730  -33.6140  -10.8470 N.am  181  GLY181     -0.1939
     88  CA       -19.1340  -35.0230  -10.5700 C.3   181  GLY181      0.2014
     89  C        -20.3140  -35.2440   -9.6230 C.2   181  GLY181      0.2639
     90  O        -21.2130  -36.0560   -9.9050 O.2   181  GLY181     -0.2714
     91  N        -20.3000  -34.5290   -8.4990 N.am  182  LEU182     -0.1963
     92  CA       -21.3680  -34.6230   -7.4980 C.3   182  LEU182      0.1728
     93  C        -22.7050  -34.2680   -8.1300 C.2   182  LEU182      0.2616
     94  O        -23.6770  -35.0460   -8.0640 O.2   182  LEU182     -0.2715
     95  CB       -21.0830  -33.7000   -6.3080 C.3   182  LEU182      0.0311
     96  CG       -22.1320  -33.5780   -5.2020 C.3   182  LEU182      0.0022
     97  CD1      -22.3510  -34.9080   -4.5020 C.3   182  LEU182      0.0001
     98  CD2      -21.7330  -32.5110   -4.1950 C.3   182  LEU182      0.0001
     99  N        -22.7650  -33.1070   -8.7660 N.am  183  ILE183     -0.1977
    100  CA       -24.0570  -32.6460   -9.2890 C.3   183  ILE183      0.1596
    101  C        -24.5280  -33.5180  -10.4560 C.2   183  ILE183      0.2287
    102  O        -25.7250  -33.6990  -10.6380 O.2   183  ILE183     -0.2864
    103  CB       -24.0260  -31.1700   -9.6780 C.3   183  ILE183      0.0276
    104  CG1      -25.4560  -30.6160   -9.7990 C.3   183  ILE183      0.0022
    105  CG2      -23.2390  -30.9640  -10.9600 C.3   183  ILE183      0.0022
    106  CD1      -25.4850  -29.1120   -9.9460 C.3   183  ILE183      0.0001
    107  N        -12.3880  -26.2470   -2.3820 N.3   231  GLY231     -0.1210
    108  CA       -12.7570  -27.4200   -3.1570 C.3   231  GLY231      0.1956
    109  C        -13.5550  -27.0800   -4.4110 C.2   231  GLY231      0.2611
    110  O        -13.9610  -27.9810   -5.1420 O.2   231  GLY231     -0.2717
    111  N        -13.8130  -25.7950   -4.6540 N.am  232  LEU232     -0.1979
    112  CA       -14.6750  -25.3900   -5.7700 C.3   232  LEU232      0.1596
    113  C        -13.9390  -24.6270   -6.8750 C.2   232  LEU232      0.2287
    114  O        -14.5280  -23.7800   -7.5370 O.2   232  LEU232     -0.2864
    115  CB       -15.8930  -24.6020   -5.2620 C.3   232  LEU232      0.0297
    116  CG       -16.6860  -25.2720   -4.1240 C.3   232  LEU232      0.0022
    117  CD1      -17.8840  -24.4200   -3.7510 C.3   232  LEU232      0.0001
    118  CD2      -17.1330  -26.6850   -4.4670 C.3   232  LEU232      0.0001
    119  N        -12.1580  -26.0610   -9.5570 N.3   234  ALA234     -0.1245
    120  CA       -11.9070  -26.8190  -10.7890 C.3   234  ALA234      0.1562
    121  C        -12.8330  -26.3730  -11.9350 C.2   234  ALA234      0.2260
    122  O        -13.7550  -25.5710  -11.7500 O.2   234  ALA234     -0.2867
    123  CB       -12.0750  -28.2970  -10.5260 C.3   234  ALA234      0.0290
    124  N        -16.8070  -27.3790    6.1160 N.3   275  GLU275     -0.1245
    125  CA       -15.8120  -26.5610    5.4420 C.3   275  GLU275      0.1567
    126  C        -16.5320  -25.5260    4.5700 C.2   275  GLU275      0.2260
    127  O        -17.7160  -25.7040    4.2540 O.2   275  GLU275     -0.2867
    128  CB       -14.8580  -27.4390    4.6200 C.3   275  GLU275      0.0388
    129  CG       -15.4680  -28.2050    3.4680 C.3   275  GLU275      0.1160
    130  CD       -14.4090  -29.0410    2.7630 C.2   275  GLU275      0.3649
    131  OE1      -13.6480  -28.4660    1.9920 O.co2 275  GLU275     -0.2457
    132  OE2      -14.3070  -30.2500    3.0010 O.co2 275  GLU275     -0.2457
    133  N        -16.4980  -24.8430    1.3260 N.3   277  SER277     -0.1202
    134  CA       -17.1150  -25.4750    0.1370 C.3   277  SER277      0.2020
    135  C        -18.4250  -26.2000    0.4550 C.2   277  SER277      0.2619
    136  O        -19.3420  -26.2000   -0.3590 O.2   277  SER277     -0.2717
    137  CB       -16.1440  -26.4540   -0.5410 C.3   277  SER277      0.2103
    138  OG       -14.9080  -25.8180   -0.8180 O.3   277  SER277     -0.2182
    139  N        -18.5010  -26.8140    1.6340 N.am  278  GLY278     -0.1956
    140  CA       -19.6880  -27.5310    2.0520 C.3   278  GLY278      0.1869
    141  C        -20.8760  -26.6850    2.4820 C.2   278  GLY278      0.2309
    142  O        -22.0000  -27.1990    2.6000 O.2   278  GLY278     -0.2863
    143  N        -21.4730  -30.8710    1.4980 N.3   307  SER307     -0.1202
    144  CA       -20.5870  -31.7900    0.7870 C.3   307  SER307      0.2023
    145  C        -19.3410  -32.2270    1.5820 C.2   307  SER307      0.2658
    146  O        -18.7640  -33.2690    1.2890 O.2   307  SER307     -0.2713
    147  CB       -20.1930  -31.1780   -0.5630 C.3   307  SER307      0.2104
    148  OG       -19.7710  -29.8460   -0.4000 O.3   307  SER307     -0.2182
    149  N        -18.9580  -31.4800    2.6090 N.am  308  GLY308     -0.1731
    150  CA       -17.7840  -31.8430    3.3770 C.2   308  GLY308      0.1340
    151  C        -17.5090  -31.0040    4.6120 C.2   308  GLY308      0.2521
    152  O        -18.0520  -29.9240    4.7750 O.2   308  GLY308     -0.2816
@<TRIPOS>BOND
     1    82    81    2
     2    47    45    1
     3    44    43    2
     4    43    42    1
     5    81    80    1
     6    81    83   am
     7    45    42    1
     8    45    46    1
     9   121   122    2
    10   121   120    1
    11    86    85    2
    12    48    46    1
    13    72    70    1
    14    84    85    1
    15    84    83    1
    16    80    79    1
    17    85    87   am
    18    42    41    1
    19    76    75    2
    20   105   103    1
    21    87    88    1
    22    41    36   am
    23   120   123    1
    24   120   119    1
    25   102   101    2
    26    88    89    1
    27    70    69    1
    28   101   100    1
    29    40    34    1
    30    40    39    1
    31    79    75   am
    32    75    74    1
    33    34    35    1
    34   106   104    1
    35    90    89    2
    36    39    38    1
    37   104   103    1
    38   103   100    1
    39    89    91   am
    40    36    35    1
    41    36    37    2
    42    71    69    1
    43   100    99    1
    44    69    66    1
    45    35    38    1
    46    74    73    1
    47    74    77    1
    48    99    93   am
    49    73    67   am
    50    91    92    1
    51    67    66    1
    52    67    68    2
    53    78    77    1
    54    93    94    2
    55    93    92    1
    56    66    65    1
    57   114   113    2
    58    92    95    1
    59    53    54    1
    60    53    50    1
    61   113   112    1
    62    49    50    1
    63    65    60   am
    64    57    55   am
    65    51    50    1
    66    51    52    2
    67    54    55    1
    68    95    96    1
    69    61    60    2
    70    60    59    1
    71    55    56    2
    72   112   115    1
    73   112   111    1
    74   115   116    1
    75    96    97    1
    76    96    98    1
    77   110   109    2
    78    59    58    1
    79    59    62    1
    80   111   109   am
    81   118   116    1
    82    24    25    1
    83    24    23    1
    84   109   108    1
    85    14    16   ar
    86    14    12   ar
    87    58    64    1
    88    16    15   ar
    89   116   117    1
    90    62    63    1
    91    23    22    1
    92    12    11   ar
    93    20    19    2
    94    22    21    1
    95   108   107    1
    96    64    63    1
    97    15    13   ar
    98    21    18    1
    99    18    19    1
   100    18    17    1
   101    11    13   ar
   102    11    10    1
   103     9     8    2
   104    17     8   am
   105    28    29    2
   106    28    27    1
   107     8     7    1
   108    10     7    1
   109    26    27    1
   110   138   137    1
   111   147   148    1
   112   147   144    1
   113   137   134    1
   114    27    30    1
   115   136   135    2
   116    30    31    1
   117     7     6    1
   118   134   135    1
   119   134   133    1
   120   135   139   am
   121     6     3   am
   122   144   143    1
   123   144   145    1
   124    33    31   am
   125    31    32    2
   126   146   145    2
   127   145   149    1
   128     5     2    1
   129   139   140    1
   130     3     4    2
   131     3     2    1
   132   131   130   ar
   133   140   141    1
   134   141   142    2
   135     2     1    1
   136   149   150    2
   137   130   132   ar
   138   130   129    1
   139   150   151    1
   140   129   128    1
   141   127   126    2
   142   126   125    1
   143   151   152    2
   144   128   125    1
   145   125   124    1
