@<TRIPOS>MOLECULE
tmp/5cvdA00.pdb
 143 141 0 0 0
SMALL
GASTEIGER

@<TRIPOS>ATOM
      1  N        -19.1420   32.1330  -23.6740 N.3    27  TYR27      -0.1227
      2  CA       -18.4430   31.6870  -24.8670 C.3    27  TYR27       0.1736
      3  C        -19.3910   31.6520  -26.0650 C.2    27  TYR27       0.2595
      4  O        -19.0970   32.2260  -27.1240 O.2    27  TYR27      -0.2718
      5  CB       -17.8180   30.3090  -24.6500 C.3    27  TYR27       0.0548
      6  CG       -17.1710   29.7540  -25.9030 C.ar   27  TYR27      -0.0200
      7  CD1      -15.8480   30.0350  -26.2080 C.ar   27  TYR27      -0.0009
      8  CD2      -17.8880   28.9720  -26.7860 C.ar   27  TYR27      -0.0009
      9  CE1      -15.2580   29.5400  -27.3520 C.ar   27  TYR27       0.0417
     10  CE2      -17.3040   28.4690  -27.9360 C.ar   27  TYR27       0.0417
     11  CZ       -15.9920   28.7610  -28.2150 C.ar   27  TYR27       0.1957
     12  OH       -15.4050   28.2590  -29.3600 O.3    27  TYR27      -0.2866
     13  N        -20.5450   31.0070  -25.9040 N.am   28  TRP28      -0.1976
     14  CA       -21.4390   30.8260  -27.0500 C.3    28  TRP28       0.1640
     15  C        -22.0940   32.1210  -27.5170 C.2    28  TRP28       0.2290
     16  O        -22.3500   32.2730  -28.7070 O.2    28  TRP28      -0.2864
     17  CB       -22.4520   29.7070  -26.7980 C.3    28  TRP28       0.0576
     18  CG       -21.7670   28.3970  -26.9510 C.ar   28  TRP28       0.0006
     19  CD1      -21.3830   27.5450  -25.9560 C.ar   28  TRP28       0.0946
     20  CD2      -21.3240   27.8090  -28.1780 C.ar   28  TRP28       0.0152
     21  NE1      -20.7440   26.4550  -26.4940 N.ar   28  TRP28      -0.2442
     22  CE2      -20.6960   26.5940  -27.8550 C.ar   28  TRP28       0.0810
     23  CE3      -21.4090   28.1890  -29.5190 C.ar   28  TRP28       0.0012
     24  CZ2      -20.1420   25.7620  -28.8230 C.ar   28  TRP28       0.0191
     25  CZ3      -20.8720   27.3540  -30.4820 C.ar   28  TRP28       0.0001
     26  CH2      -20.2460   26.1570  -30.1300 C.ar   28  TRP28       0.0015
     27  N        -21.3510   27.0440  -35.4840 N.3    38  MET38      -0.1230
     28  CA       -21.8640   25.8640  -34.7960 C.3    38  MET38       0.1702
     29  C        -20.8180   24.7610  -34.7670 C.2    38  MET38       0.2592
     30  O        -20.7320   24.0080  -33.7970 O.2    38  MET38      -0.2718
     31  CB       -23.1120   25.3220  -35.4900 C.3    38  MET38       0.0401
     32  CG       -24.2790   26.2980  -35.5960 C.3    38  MET38       0.0596
     33  SD       -24.9120   26.9270  -34.0270 S.3    38  MET38      -0.1393
     34  CE       -24.0510   28.5030  -33.8940 C.3    38  MET38       0.0692
     35  N        -20.0240   24.6580  -35.8310 N.am   39  LEU39      -0.1966
     36  CA       -19.1110   23.5330  -35.9850 C.3    39  LEU39       0.1728
     37  C        -17.6530   23.8800  -35.7010 C.2    39  LEU39       0.2616
     38  O        -16.7530   23.1210  -36.0540 O.2    39  LEU39      -0.2715
     39  CB       -19.2630   22.9070  -37.3730 C.3    39  LEU39       0.0311
     40  CG       -20.6500   22.3140  -37.6480 C.3    39  LEU39       0.0022
     41  CD1      -20.6820   21.5790  -38.9720 C.3    39  LEU39       0.0001
     42  CD2      -21.1100   21.3970  -36.5100 C.3    39  LEU39       0.0001
     43  N        -17.4190   25.0090  -35.0440 N.am   40  GLY40      -0.1955
     44  CA       -16.0770   25.3460  -34.5900 C.3    40  GLY40       0.1869
     45  C        -15.0330   25.3620  -35.6930 C.2    40  GLY40       0.2309
     46  O        -13.9010   24.9160  -35.4920 O.2    40  GLY40      -0.2863
     47  N        -15.4930   23.8460  -38.6560 N.3    42  TYR42      -0.1241
     48  CA       -15.6480   22.6450  -39.4760 C.3    42  TYR42       0.1605
     49  C        -16.9540   22.6400  -40.2760 C.2    42  TYR42       0.2264
     50  O        -17.5180   21.5890  -40.5480 O.2    42  TYR42      -0.2867
     51  CB       -15.5170   21.3950  -38.6050 C.3    42  TYR42       0.0534
     52  CG       -14.1040   21.1830  -38.1270 C.ar   42  TYR42      -0.0201
     53  CD1      -13.1630   20.5540  -38.9370 C.ar   42  TYR42      -0.0009
     54  CD2      -13.6950   21.6390  -36.8880 C.ar   42  TYR42      -0.0009
     55  CE1      -11.8700   20.3710  -38.5160 C.ar   42  TYR42       0.0417
     56  CE2      -12.3970   21.4520  -36.4520 C.ar   42  TYR42       0.0417
     57  CZ       -11.4900   20.8200  -37.2710 C.ar   42  TYR42       0.1957
     58  OH       -10.1960   20.6330  -36.8450 O.3    42  TYR42      -0.2866
     59  N        -17.5860   20.1340  -43.0400 N.3    45  ILE45      -0.1245
     60  CA       -17.9120   18.7300  -42.7490 C.3    45  ILE45       0.1561
     61  C        -19.4150   18.5300  -42.5010 C.2    45  ILE45       0.2260
     62  O        -19.8580   17.4160  -42.2460 O.2    45  ILE45      -0.2867
     63  CB       -17.0970   18.1480  -41.5160 C.3    45  ILE45       0.0252
     64  CG1      -17.8200   18.3940  -40.1700 C.3    45  ILE45       0.0019
     65  CG2      -15.6850   18.6940  -41.4990 C.3    45  ILE45       0.0019
     66  CD1      -17.1120   17.8390  -38.9590 C.3    45  ILE45       0.0001
     67  N        -23.4980   17.4300  -30.0420 N.3   144  TRP144     -0.1241
     68  CA       -22.4240   18.3890  -29.8090 C.3   144  TRP144      0.1605
     69  C        -22.7830   19.3830  -28.7140 C.2   144  TRP144      0.2264
     70  O        -22.5730   20.5950  -28.8270 O.2   144  TRP144     -0.2867
     71  CB       -21.9810   19.0540  -31.1250 C.3   144  TRP144      0.0550
     72  CG       -21.0040   18.1800  -31.8830 C.ar  144  TRP144      0.0003
     73  CD1      -20.0150   17.3990  -31.3370 C.ar  144  TRP144      0.0946
     74  CD2      -20.9270   17.9810  -33.3010 C.ar  144  TRP144      0.0152
     75  NE1      -19.3340   16.7370  -32.3220 N.ar  144  TRP144     -0.2442
     76  CE2      -19.8660   17.0790  -33.5380 C.ar  144  TRP144      0.0810
     77  CE3      -21.6350   18.4890  -34.3950 C.ar  144  TRP144      0.0012
     78  CZ2      -19.5110   16.6630  -34.8160 C.ar  144  TRP144      0.0191
     79  CZ3      -21.2670   18.0760  -35.6740 C.ar  144  TRP144      0.0001
     80  CH2      -20.2190   17.1730  -35.8670 C.ar  144  TRP144      0.0015
     81  N        -21.1800   20.0410  -22.3350 N.3   148  HIS148     -0.1241
     82  CA       -21.5100   21.2370  -21.5690 C.3   148  HIS148      0.1621
     83  C        -22.2880   20.9770  -20.2870 C.2   148  HIS148      0.2264
     84  O        -22.5340   21.9180  -19.5300 O.2   148  HIS148     -0.2867
     85  CB       -22.2450   22.2450  -22.4510 C.3   148  HIS148      0.0745
     86  CG       -21.3170   23.0440  -23.3070 C.ar  148  HIS148      0.0817
     87  ND1      -20.3420   23.8530  -22.7730 N.ar  148  HIS148     -0.2268
     88  CD2      -21.1990   23.1430  -24.6520 C.ar  148  HIS148      0.1154
     89  CE1      -19.6620   24.4240  -23.7530 C.ar  148  HIS148      0.1986
     90  NE2      -20.1570   24.0050  -24.9020 N.ar  148  HIS148     -0.2212
     91  N        -18.6650   14.2190  -29.3980 N.3   176  ASN176     -0.1240
     92  CA       -17.2470   13.9370  -29.2830 C.3   176  ASN176      0.1653
     93  C        -17.0140   12.9670  -28.1540 C.2   176  ASN176      0.2266
     94  O        -17.6030   13.1130  -27.0800 O.2   176  ASN176     -0.2867
     95  CB       -16.4800   15.2260  -28.9790 C.3   176  ASN176      0.1155
     96  CG       -16.6430   16.2700  -30.0540 C.2   176  ASN176      0.2627
     97  OD1      -16.7890   15.9500  -31.2250 O.2   176  ASN176     -0.2716
     98  ND2      -16.6080   17.5310  -29.6580 N.am  176  ASN176     -0.0877
     99  N        -11.9520   21.2120  -21.6460 N.3   185  ASP185     -0.1239
    100  CA       -11.6450   22.3210  -22.5440 C.3   185  ASP185      0.1674
    101  C        -11.9760   23.6090  -21.7880 C.2   185  ASP185      0.2266
    102  O        -13.1480   23.9500  -21.5950 O.2   185  ASP185     -0.2867
    103  CB       -12.4600   22.2100  -23.8390 C.3   185  ASP185      0.1410
    104  CG       -12.1490   23.3120  -24.8370 C.2   185  ASP185      0.3668
    105  OD1      -11.7710   24.4380  -24.4340 O.co2 185  ASP185     -0.2456
    106  OD2      -12.3120   23.0550  -26.0480 O.co2 185  ASP185     -0.2456
    107  N        -13.8500   26.8020  -24.1450 N.3   188  ASP188     -0.1239
    108  CA       -15.3000   26.8590  -24.3010 C.3   188  ASP188      0.1674
    109  C        -16.0500   26.3610  -23.0700 C.2   188  ASP188      0.2266
    110  O        -17.2690   26.4420  -23.0180 O.2   188  ASP188     -0.2867
    111  CB       -15.7690   26.1580  -25.5840 C.3   188  ASP188      0.1410
    112  CG       -15.6220   24.6530  -25.5480 C.2   188  ASP188      0.3668
    113  OD1      -15.1890   24.0880  -24.5240 O.co2 188  ASP188     -0.2456
    114  OD2      -15.9760   24.0260  -26.5790 O.co2 188  ASP188     -0.2456
    115  N         -7.6890   15.1220  -37.3950 N.3   221  GLU221     -0.1231
    116  CA        -7.1540   15.7500  -36.1940 C.3   221  GLU221      0.1699
    117  C         -8.1630   15.8870  -35.0480 C.2   221  GLU221      0.2592
    118  O         -7.7780   16.2650  -33.9430 O.2   221  GLU221     -0.2718
    119  CB        -6.5570   17.1250  -36.5250 C.3   221  GLU221      0.0402
    120  CG        -7.5630   18.2460  -36.8380 C.3   221  GLU221      0.1161
    121  CD        -8.0970   18.2480  -38.2590 C.2   221  GLU221      0.3649
    122  OE1       -7.7830   17.3200  -39.0390 O.co2 221  GLU221     -0.2457
    123  OE2       -8.8370   19.2020  -38.5890 O.co2 221  GLU221     -0.2457
    124  N         -9.4410   15.5970  -35.2990 N.am  222  ILE222     -0.1966
    125  CA       -10.4760   15.8430  -34.2830 C.3   222  ILE222      0.1727
    126  C        -10.8070   14.6200  -33.4300 C.2   222  ILE222      0.2616
    127  O        -10.4570   13.4920  -33.7720 O.2   222  ILE222     -0.2715
    128  CB       -11.7790   16.4360  -34.8940 C.3   222  ILE222      0.0290
    129  CG1      -12.4930   15.4190  -35.7910 C.3   222  ILE222      0.0022
    130  CG2      -11.4660   17.7300  -35.6390 C.3   222  ILE222      0.0023
    131  CD1      -13.8400   15.8990  -36.3050 C.3   222  ILE222      0.0001
    132  N        -11.4650   14.8540  -32.2980 N.am  223  TYR223     -0.1974
    133  CA       -11.9740   13.7540  -31.4850 C.3   223  TYR223      0.1639
    134  C        -12.8880   12.8750  -32.3210 C.2   223  TYR223      0.2290
    135  O        -13.6210   13.3580  -33.2000 O.2   223  TYR223     -0.2864
    136  CB       -12.7870   14.2700  -30.2940 C.3   223  TYR223      0.0560
    137  CG       -11.9740   14.8920  -29.1930 C.ar  223  TYR223     -0.0198
    138  CD1      -11.1520   14.1140  -28.3860 C.ar  223  TYR223     -0.0009
    139  CD2      -12.0410   16.2510  -28.9440 C.ar  223  TYR223     -0.0009
    140  CE1      -10.4080   14.6730  -27.3770 C.ar  223  TYR223      0.0417
    141  CE2      -11.3030   16.8260  -27.9280 C.ar  223  TYR223      0.0417
    142  CZ       -10.4860   16.0290  -27.1500 C.ar  223  TYR223      0.1957
    143  OH        -9.7460   16.5910  -26.1410 O.3   223  TYR223     -0.2866
@<TRIPOS>BOND
     1    59    60    1
     2    60    61    1
     3    60    63    1
     4    61    62    2
     5    63    65    1
     6    63    64    1
     7    50    49    2
     8    49    48    1
     9    64    66    1
    10    48    47    1
    11    48    51    1
    12   122   121   ar
    13    41    40    1
    14    53    55   ar
    15    53    52   ar
    16    51    52    1
    17   123   121   ar
    18    55    57   ar
    19   121   120    1
    20    52    54   ar
    21    40    39    1
    22    40    42    1
    23   115   116    1
    24    39    36    1
    25    57    58    1
    26    57    56   ar
    27    54    56   ar
    28   120   119    1
    29   119   116    1
    30   131   129    1
    31   116   117    1
    32    38    37    2
    33    36    35    1
    34    36    37    1
    35    80    79   ar
    36    80    78   ar
    37    35    29   am
    38   129   128    1
    39    37    43   am
    40    45    46    2
    41    45    44    1
    42    79    77   ar
    43   130   128    1
    44    32    31    1
    45    32    33    1
    46    31    28    1
    47    27    28    1
    48   124   117   am
    49   124   125    1
    50   117   118    2
    51    43    44    1
    52   128   125    1
    53    78    76   ar
    54    28    29    1
    55    29    30    2
    56    77    74   ar
    57   125   126    1
    58    33    34    1
    59   127   126    2
    60    76    74   ar
    61    76    75   ar
    62   126   132   am
    63    74    72   ar
    64   135   134    2
    65    75    73   ar
    66   134   133    1
    67   132   133    1
    68    72    73   ar
    69    72    71    1
    70   133   136    1
    71    97    96    2
    72    71    68    1
    73    25    26   ar
    74    25    23   ar
    75   136   137    1
    76    26    24   ar
    77    96    98   am
    78    96    95    1
    79    67    68    1
    80    68    69    1
    81    23    20   ar
    82    91    92    1
    83    12    11    1
    84    92    95    1
    85    92    93    1
    86   137   139   ar
    87   137   138   ar
    88   139   141   ar
    89    70    69    2
    90    24    22   ar
    91    16    15    2
    92   138   140   ar
    93    11    10   ar
    94    11     9   ar
    95    20    22   ar
    96    20    18   ar
    97    93    94    2
    98    10     8   ar
    99   141   142   ar
   100    22    21   ar
   101    15    14    1
   102   140   142   ar
   103     9     7   ar
   104   142   143    1
   105     4     3    2
   106    14    17    1
   107    14    13    1
   108    18    17    1
   109    18    19   ar
   110     8     6   ar
   111   114   112   ar
   112    21    19   ar
   113     7     6   ar
   114     3    13   am
   115     3     2    1
   116   106   104   ar
   117     6     5    1
   118   111   112    1
   119   111   108    1
   120   112   113   ar
   121    90    88   ar
   122    90    89   ar
   123     2     5    1
   124     2     1    1
   125   104   105   ar
   126   104   103    1
   127    88    86   ar
   128   108   107    1
   129   108   109    1
   130   103   100    1
   131    89    87   ar
   132    86    87   ar
   133    86    85    1
   134   109   110    2
   135   100   101    1
   136   100    99    1
   137    85    82    1
   138    81    82    1
   139   101   102    2
   140    82    83    1
   141    83    84    2
