@<TRIPOS>MOLECULE
tmp/5cvdB00.pdb
 185 182 0 0 0
SMALL
GASTEIGER

@<TRIPOS>ATOM
      1  N        -22.4010  -19.6890   -6.9860 N.3    22  TYR22      -0.1227
      2  CA       -22.8460  -20.7770   -7.8520 C.3    22  TYR22       0.1736
      3  C        -23.4450  -20.2450   -9.1520 C.2    22  TYR22       0.2595
      4  O        -23.0640  -20.6610  -10.2440 O.2    22  TYR22      -0.2718
      5  CB       -23.8690  -21.6580   -7.1310 C.3    22  TYR22       0.0548
      6  CG       -24.5110  -22.6790   -8.0390 C.ar   22  TYR22      -0.0200
      7  CD1      -23.8950  -23.8950   -8.3110 C.ar   22  TYR22      -0.0009
      8  CD2      -25.7300  -22.4160   -8.6500 C.ar   22  TYR22      -0.0009
      9  CE1      -24.4910  -24.8210   -9.1640 C.ar   22  TYR22       0.0417
     10  CE2      -26.3250  -23.3290   -9.4930 C.ar   22  TYR22       0.0417
     11  CZ       -25.7110  -24.5260   -9.7450 C.ar   22  TYR22       0.1957
     12  OH       -26.3260  -25.4240  -10.5990 O.3    22  TYR22      -0.2866
     13  N        -24.3890  -19.3220   -9.0490 N.am   23  TRP23      -0.1976
     14  CA       -25.0970  -18.8780  -10.2400 C.3    23  TRP23       0.1640
     15  C        -24.2040  -18.0450  -11.1540 C.2    23  TRP23       0.2290
     16  O        -24.3940  -18.0450  -12.3690 O.2    23  TRP23      -0.2864
     17  CB       -26.4030  -18.1660   -9.8820 C.3    23  TRP23       0.0576
     18  CG       -27.4350  -19.1570   -9.4730 C.ar   23  TRP23       0.0006
     19  CD1      -27.8850  -19.4060   -8.2150 C.ar   23  TRP23       0.0946
     20  CD2      -28.1040  -20.0860  -10.3340 C.ar   23  TRP23       0.0152
     21  NE1      -28.8050  -20.4220   -8.2380 N.ar   23  TRP23      -0.2442
     22  CE2      -28.9640  -20.8520   -9.5310 C.ar   23  TRP23       0.0810
     23  CE3      -28.0630  -20.3370  -11.7090 C.ar   23  TRP23       0.0012
     24  CZ2      -29.7750  -21.8550  -10.0540 C.ar   23  TRP23       0.0191
     25  CZ3      -28.8720  -21.3190  -12.2260 C.ar   23  TRP23       0.0001
     26  CH2      -29.7110  -22.0740  -11.4030 C.ar   23  TRP23       0.0015
     27  N        -30.5080  -22.4550  -16.7300 N.3    33  MET33      -0.1230
     28  CA       -31.6520  -22.1290  -15.8840 C.3    33  MET33       0.1702
     29  C        -32.2950  -23.3980  -15.3470 C.2    33  MET33       0.2592
     30  O        -32.7940  -23.4110  -14.2230 O.2    33  MET33      -0.2718
     31  CB       -32.7070  -21.3380  -16.6710 C.3    33  MET33       0.0401
     32  CG       -32.2220  -20.0640  -17.3280 C.3    33  MET33       0.0596
     33  SD       -31.5460  -18.8400  -16.2040 S.3    33  MET33      -0.1393
     34  CE       -29.7830  -19.1520  -16.3280 C.3    33  MET33       0.0692
     35  N        -32.2840  -24.4520  -16.1570 N.am   34  LEU34      -0.1966
     36  CA       -32.9950  -25.6860  -15.8390 C.3    34  LEU34       0.1728
     37  C        -32.1000  -26.8200  -15.3380 C.2    34  LEU34       0.2616
     38  O        -32.5120  -27.9750  -15.3140 O.2    34  LEU34      -0.2715
     39  CB       -33.8440  -26.1280  -17.0420 C.3    34  LEU34       0.0311
     40  CG       -34.9590  -25.1340  -17.4190 C.3    34  LEU34       0.0022
     41  CD1      -35.8010  -25.6740  -18.5700 C.3    34  LEU34       0.0001
     42  CD2      -35.8610  -24.7860  -16.2330 C.3    34  LEU34       0.0001
     43  N        -30.8840  -26.4910  -14.9140 N.am   35  GLY35      -0.1955
     44  CA       -30.0400  -27.4660  -14.2480 C.3    35  GLY35       0.1869
     45  C        -29.7370  -28.7040  -15.0740 C.2    35  GLY35       0.2309
     46  O        -29.6610  -29.8080  -14.5450 O.2    35  GLY35      -0.2863
     47  N        -31.6730  -29.7660  -17.5230 N.3    37  TYR37      -0.1241
     48  CA       -32.9350  -30.2960  -18.0410 C.3    37  TYR37       0.1605
     49  C        -33.5610  -29.3100  -19.0300 C.2    37  TYR37       0.2264
     50  O        -34.7730  -29.1600  -19.0750 O.2    37  TYR37      -0.2867
     51  CB       -33.9110  -30.5960  -16.8950 C.3    37  TYR37       0.0534
     52  CG       -33.5690  -31.8330  -16.0960 C.ar   37  TYR37      -0.0201
     53  CD1      -32.6820  -31.7750  -15.0300 C.ar   37  TYR37      -0.0009
     54  CD2      -34.1250  -33.0620  -16.4170 C.ar   37  TYR37      -0.0009
     55  CE1      -32.3760  -32.9080  -14.3020 C.ar   37  TYR37       0.0417
     56  CE2      -33.8230  -34.1910  -15.6980 C.ar   37  TYR37       0.0417
     57  CZ       -32.9410  -34.1110  -14.6440 C.ar   37  TYR37       0.1957
     58  OH       -32.6300  -35.2410  -13.9160 O.3    37  TYR37      -0.2866
     59  N        -36.9030  -29.9160  -21.0230 N.3    40  ILE40      -0.1245
     60  CA       -38.2530  -29.9460  -20.4610 C.3    40  ILE40       0.1561
     61  C        -38.9020  -28.5650  -20.4000 C.2    40  ILE40       0.2260
     62  O        -40.0000  -28.4280  -19.8820 O.2    40  ILE40      -0.2867
     63  CB       -38.3270  -30.6450  -19.0750 C.3    40  ILE40       0.0252
     64  CG1      -37.7310  -29.7890  -17.9570 C.3    40  ILE40       0.0019
     65  CG2      -37.6520  -32.0120  -19.1270 C.3    40  ILE40       0.0019
     66  CD1      -38.0700  -30.3130  -16.5900 C.3    40  ILE40       0.0001
     67  N        -38.8030  -21.5410   -9.3780 N.3   139  TRP139     -0.1241
     68  CA       -37.4990  -22.1760   -9.2030 C.3   139  TRP139      0.1605
     69  C        -36.4790  -21.2400   -8.5560 C.2   139  TRP139      0.2264
     70  O        -35.3120  -21.1610   -8.9680 O.2   139  TRP139     -0.2867
     71  CB       -37.0200  -22.7830  -10.5300 C.3   139  TRP139      0.0550
     72  CG       -37.5840  -24.1570  -10.7590 C.ar  139  TRP139      0.0003
     73  CD1      -37.7820  -25.1220   -9.8150 C.ar  139  TRP139      0.0946
     74  CD2      -38.0280  -24.7210  -12.0050 C.ar  139  TRP139      0.0152
     75  NE1      -38.3070  -26.2490  -10.3920 N.ar  139  TRP139     -0.2442
     76  CE2      -38.4760  -26.0290  -11.7320 C.ar  139  TRP139      0.0810
     77  CE3      -38.0890  -24.2490  -13.3200 C.ar  139  TRP139      0.0012
     78  CZ2      -38.9730  -26.8630  -12.7180 C.ar  139  TRP139      0.0191
     79  CZ3      -38.5880  -25.0780  -14.2910 C.ar  139  TRP139      0.0001
     80  CH2      -39.0180  -26.3720  -13.9910 C.ar  139  TRP139      0.0015
     81  N        -33.9510  -20.5120   -2.5480 N.3   143  HIS143     -0.1241
     82  CA       -32.7940  -19.6650   -2.2750 C.3   143  HIS143      0.1621
     83  C        -33.0150  -18.6370   -1.1710 C.2   143  HIS143      0.2264
     84  O        -32.0760  -17.9370   -0.8060 O.2   143  HIS143     -0.2867
     85  CB       -32.2930  -18.9870   -3.5510 C.3   143  HIS143      0.0745
     86  CG       -31.4350  -19.8790   -4.3840 C.ar  143  HIS143      0.0817
     87  ND1      -30.2330  -20.3760   -3.9290 N.ar  143  HIS143     -0.2268
     88  CD2      -31.6130  -20.3930   -5.6230 C.ar  143  HIS143      0.1154
     89  CE1      -29.7000  -21.1460   -4.8610 C.ar  143  HIS143      0.1986
     90  NE2      -30.5180  -21.1750   -5.8980 N.ar  143  HIS143     -0.2212
     91  N        -39.8860  -26.7020   -6.8600 N.3   171  ASN171     -0.1240
     92  CA       -39.6490  -28.0410   -6.3530 C.3   171  ASN171      0.1653
     93  C        -40.2150  -28.1670   -4.9530 C.2   171  ASN171      0.2266
     94  O        -40.0890  -27.2380   -4.1420 O.2   171  ASN171     -0.2867
     95  CB       -38.1470  -28.3210   -6.2870 C.3   171  ASN171      0.1155
     96  CG       -37.4770  -28.2210   -7.6360 C.2   171  ASN171      0.2627
     97  OD1      -38.0850  -28.5140   -8.6630 O.2   171  ASN171     -0.2716
     98  ND2      -36.2300  -27.7830   -7.6460 N.am  171  ASN171     -0.0877
     99  N        -40.8450  -34.3720   -0.5600 N.3   174  GLN174     -0.1245
    100  CA       -41.8900  -35.2190   -0.0160 C.3   174  GLN174      0.1566
    101  C        -42.0660  -34.9380    1.4710 C.2   174  GLN174      0.2260
    102  O        -43.1900  -34.9030    1.9690 O.2   174  GLN174     -0.2867
    103  CB       -41.5580  -36.6930   -0.2370 C.3   174  GLN174      0.0367
    104  CG       -42.6280  -37.6450    0.2830 C.3   174  GLN174      0.0905
    105  CD       -42.3470  -39.0940   -0.0710 C.2   174  GLN174      0.2608
    106  OE1      -41.2180  -39.5710    0.0550 O.2   174  GLN174     -0.2717
    107  NE2      -43.3760  -39.8010   -0.5260 N.am  174  GLN174     -0.0878
    108  N        -34.7590  -29.8700    2.8480 N.3   178  ILE178     -0.1245
    109  CA       -33.5540  -30.5400    2.3690 C.3   178  ILE178      0.1561
    110  C        -32.5760  -29.5240    1.8000 C.2   178  ILE178      0.2260
    111  O        -32.8970  -28.8120    0.8590 O.2   178  ILE178     -0.2867
    112  CB       -33.9140  -31.5540    1.2640 C.3   178  ILE178      0.0252
    113  CG1      -34.9650  -32.5470    1.7780 C.3   178  ILE178      0.0019
    114  CG2      -32.6670  -32.2850    0.7600 C.3   178  ILE178      0.0019
    115  CD1      -35.5840  -33.3970    0.6950 C.3   178  ILE178      0.0001
    116  N        -29.4920  -28.3660   -0.3810 N.3   180  ASP180     -0.1239
    117  CA       -28.6120  -28.6780   -1.4990 C.3   180  ASP180      0.1674
    118  C        -27.3490  -27.8570   -1.2660 C.2   180  ASP180      0.2266
    119  O        -27.3610  -26.6430   -1.4380 O.2   180  ASP180     -0.2867
    120  CB       -29.2920  -28.2840   -2.8110 C.3   180  ASP180      0.1410
    121  CG       -28.4490  -28.6010   -4.0370 C.2   180  ASP180      0.3668
    122  OD1      -27.2020  -28.5330   -3.9660 O.co2 180  ASP180     -0.2456
    123  OD2      -29.0390  -28.9060   -5.0920 O.co2 180  ASP180     -0.2456
    124  N        -25.6930  -25.9590   -4.8840 N.3   183  ASP183     -0.1239
    125  CA       -26.1930  -24.6550   -5.3230 C.3   183  ASP183      0.1674
    126  C        -26.6020  -23.7540   -4.1540 C.2   183  ASP183      0.2266
    127  O        -26.8920  -22.5820   -4.3620 O.2   183  ASP183     -0.2867
    128  CB       -27.3090  -24.7750   -6.3840 C.3   183  ASP183      0.1410
    129  CG       -28.6230  -25.3120   -5.8370 C.2   183  ASP183      0.3668
    130  OD1      -28.7500  -25.5460   -4.6170 O.co2 183  ASP183     -0.2456
    131  OD2      -29.5640  -25.4680   -6.6510 O.co2 183  ASP183     -0.2456
    132  N        -39.0300  -38.9130  -14.0580 N.3   215  ASP215     -0.1225
    133  CA       -39.3590  -39.5580  -12.7910 C.3   215  ASP215      0.1805
    134  C        -38.3800  -39.2480  -11.6590 C.2   215  ASP215      0.2598
    135  O        -38.7620  -39.2740  -10.4910 O.2   215  ASP215     -0.2718
    136  CB       -39.4320  -41.0790  -12.9800 C.3   215  ASP215      0.1424
    137  CG       -40.7170  -41.5320  -13.6510 C.2   215  ASP215      0.3668
    138  OD1      -41.5180  -40.6800  -14.0850 O.co2 215  ASP215     -0.2456
    139  OD2      -40.9250  -42.7610  -13.7470 O.co2 215  ASP215     -0.2456
    140  N        -37.1270  -38.9600  -11.9940 N.am  216  GLU216     -0.1965
    141  CA       -36.0780  -38.8800  -10.9790 C.3   216  GLU216      0.1733
    142  C        -36.0050  -37.5430  -10.2490 C.2   216  GLU216      0.2616
    143  O        -35.3010  -37.4310   -9.2430 O.2   216  GLU216     -0.2715
    144  CB       -34.7090  -39.1990  -11.5930 C.3   216  GLU216      0.0429
    145  CG       -34.1300  -38.1250  -12.5120 C.3   216  GLU216      0.1163
    146  CD       -34.5880  -38.2180  -13.9560 C.2   216  GLU216      0.3649
    147  OE1      -35.4630  -39.0530  -14.2860 O.co2 216  GLU216     -0.2457
    148  OE2      -34.0630  -37.4240  -14.7660 O.co2 216  GLU216     -0.2457
    149  N        -36.6980  -36.5240  -10.7490 N.am  217  ILE217     -0.1963
    150  CA       -36.5770  -35.1880  -10.1590 C.3   217  ILE217      0.1727
    151  C        -37.6310  -34.9200   -9.0780 C.2   217  ILE217      0.2616
    152  O        -38.6270  -35.6390   -8.9680 O.2   217  ILE217     -0.2715
    153  CB       -36.5910  -34.0550  -11.2370 C.3   217  ILE217      0.0290
    154  CG1      -37.9560  -33.9320  -11.9250 C.3   217  ILE217      0.0022
    155  CG2      -35.4760  -34.3010  -12.2480 C.3   217  ILE217      0.0023
    156  CD1      -38.0380  -32.7460  -12.8590 C.3   217  ILE217      0.0001
    157  N        -37.3930  -33.8970   -8.2660 N.am  218  TYR218     -0.1960
    158  CA       -38.3800  -33.4700   -7.2850 C.3   218  TYR218      0.1771
    159  C        -39.6760  -33.1290   -7.9900 C.2   218  TYR218      0.2620
    160  O        -39.6790  -32.5990   -9.1080 O.2   218  TYR218     -0.2715
    161  CB       -37.9150  -32.2380   -6.5010 C.3   218  TYR218      0.0574
    162  CG       -36.8160  -32.5150   -5.5090 C.ar  218  TYR218     -0.0198
    163  CD1      -37.0790  -33.1920   -4.3250 C.ar  218  TYR218     -0.0009
    164  CD2      -35.5150  -32.0970   -5.7510 C.ar  218  TYR218     -0.0009
    165  CE1      -36.0840  -33.4510   -3.4160 C.ar  218  TYR218      0.0417
    166  CE2      -34.5070  -32.3520   -4.8400 C.ar  218  TYR218      0.0417
    167  CZ       -34.8000  -33.0310   -3.6780 C.ar  218  TYR218      0.1957
    168  OH       -33.8050  -33.2930   -2.7710 O.3   218  TYR218     -0.2866
    169  N        -40.7800  -33.4180   -7.3210 N.am  219  HIS219     -0.1959
    170  CA       -42.0760  -33.0150   -7.8200 C.3   219  HIS219      0.1787
    171  C        -42.1290  -31.5020   -7.8320 C.2   219  HIS219      0.2620
    172  O        -41.4760  -30.8350   -7.0150 O.2   219  HIS219     -0.2715
    173  CB       -43.1850  -33.6010   -6.9550 C.3   219  HIS219      0.0785
    174  CG       -43.1840  -35.0980   -6.9280 C.ar  219  HIS219      0.0821
    175  ND1      -44.0850  -35.8350   -6.1900 N.ar  219  HIS219     -0.2267
    176  CD2      -42.3780  -35.9970   -7.5420 C.ar  219  HIS219      0.1154
    177  CE1      -43.8390  -37.1220   -6.3560 C.ar  219  HIS219      0.1986
    178  NE2      -42.8050  -37.2480   -7.1680 N.ar  219  HIS219     -0.2212
    179  N        -42.9050  -30.9680   -8.7660 N.am  220  VAL220     -0.1977
    180  CA       -43.0330  -29.5320   -8.9470 C.3   220  VAL220      0.1596
    181  C        -44.5000  -29.1730   -8.7950 C.2   220  VAL220      0.2287
    182  O        -45.3650  -29.8440   -9.3580 O.2   220  VAL220     -0.2864
    183  CB       -42.5120  -29.1180  -10.3330 C.3   220  VAL220      0.0276
    184  CG1      -42.8210  -27.6500  -10.6400 C.3   220  VAL220      0.0022
    185  CG2      -41.0120  -29.4040  -10.4220 C.3   220  VAL220      0.0022
@<TRIPOS>BOND
     1    59    60    1
     2    60    61    1
     3    60    63    1
     4    61    62    2
     5    65    63    1
     6    50    49    2
     7    63    64    1
     8    49    48    1
     9    41    40    1
    10    48    47    1
    11    48    51    1
    12    64    66    1
    13    40    39    1
    14    40    42    1
    15    32    31    1
    16    32    33    1
    17    39    36    1
    18    51    52    1
    19    27    28    1
    20    31    28    1
    21    54    52   ar
    22    54    56   ar
    23    34    33    1
    24    35    36    1
    25    35    29   am
    26    52    53   ar
    27    28    29    1
    28    36    37    1
    29    56    57   ar
    30    29    30    2
    31    37    38    2
    32    37    43   am
    33    45    46    2
    34    45    44    1
    35    53    55   ar
    36    43    44    1
    37   148   146   ar
    38    57    55   ar
    39    57    58    1
    40    79    80   ar
    41    79    77   ar
    42   147   146   ar
    43   138   137   ar
    44   132   133    1
    45    80    78   ar
    46   146   145    1
    47   139   137   ar
    48   137   136    1
    49    77    74   ar
    50   136   133    1
    51   156   154    1
    52   133   134    1
    53    78    76   ar
    54   145   144    1
    55    16    15    2
    56   155   153    1
    57    25    23   ar
    58    25    26   ar
    59    74    76   ar
    60    74    72   ar
    61   140   134   am
    62   140   141    1
    63   154   153    1
    64    76    75   ar
    65    23    20   ar
    66   134   135    2
    67   144   141    1
    68    26    24   ar
    69   153   150    1
    70    15    14    1
    71   141   142    1
    72    72    71    1
    73    72    73   ar
    74   149   142   am
    75   149   150    1
    76   184   183    1
    77    12    11    1
    78    71    68    1
    79   185   183    1
    80    75    73   ar
    81    20    22   ar
    82    20    18   ar
    83   183   180    1
    84   142   143    2
    85     4     3    2
    86    14    17    1
    87    14    13    1
    88   150   151    1
    89    24    22   ar
    90    17    18    1
    91    11    10   ar
    92    11     9   ar
    93    22    21   ar
    94    10     8   ar
    95    18    19   ar
    96    67    68    1
    97   182   181    2
    98    68    69    1
    99     9     7   ar
   100     3    13   am
   101     3     2    1
   102   160   159    2
   103   151   152    2
   104   151   157   am
   105    70    69    2
   106   180   181    1
   107   180   179    1
   108   179   171   am
   109    97    96    2
   110     8     6   ar
   111     7     6   ar
   112   157   158    1
   113    21    19   ar
   114     6     5    1
   115   159   169   am
   116   159   158    1
   117     2     5    1
   118     2     1    1
   119   171   170    1
   120   171   172    2
   121   170   169    1
   122   170   173    1
   123    98    96   am
   124    96    95    1
   125   176   178   ar
   126   176   174   ar
   127   158   161    1
   128   178   177   ar
   129   173   174    1
   130   174   175   ar
   131    91    92    1
   132   131   129   ar
   133   161   162    1
   134   128   129    1
   135   128   125    1
   136   177   175   ar
   137    92    95    1
   138    92    93    1
   139    90    88   ar
   140    90    89   ar
   141   129   130   ar
   142   164   162   ar
   143   164   166   ar
   144    88    86   ar
   145   162   163   ar
   146   125   124    1
   147   125   126    1
   148   123   121   ar
   149    93    94    2
   150    89    87   ar
   151   166   167   ar
   152    86    87   ar
   153    86    85    1
   154   127   126    2
   155   163   165   ar
   156   121   122   ar
   157   121   120    1
   158   167   165   ar
   159   167   168    1
   160    85    82    1
   161   120   117    1
   162    81    82    1
   163    82    83    1
   164   117   118    1
   165   117   116    1
   166   119   118    2
   167    83    84    2
   168    99   100    1
   169   107   105   am
   170   103   100    1
   171   103   104    1
   172   105   106    2
   173   105   104    1
   174   100   101    1
   175   115   113    1
   176   114   112    1
   177   111   110    2
   178   112   113    1
   179   112   109    1
   180   101   102    2
   181   110   109    1
   182   109   108    1
