@<TRIPOS>MOLECULE
tmp/5cveA00.pdb
 193 187 0 0 0
SMALL
GASTEIGER

@<TRIPOS>ATOM
      1  N        -28.3860   31.8670   -9.4010 N.3    27  TYR27      -0.1227
      2  CA       -29.0650   31.4080   -8.1970 C.3    27  TYR27       0.1736
      3  C        -28.1110   31.4120   -7.0050 C.2    27  TYR27       0.2595
      4  O        -28.4300   31.9450   -5.9330 O.2    27  TYR27      -0.2718
      5  CB       -29.6540   30.0010   -8.3970 C.3    27  TYR27       0.0548
      6  CG       -30.1990   29.3980   -7.1170 C.ar   27  TYR27      -0.0200
      7  CD1      -31.5010   29.6550   -6.7030 C.ar   27  TYR27      -0.0009
      8  CD2      -29.4080   28.5760   -6.3240 C.ar   27  TYR27      -0.0009
      9  CE1      -31.9900   29.1120   -5.5270 C.ar   27  TYR27       0.0417
     10  CE2      -29.8910   28.0340   -5.1470 C.ar   27  TYR27       0.0417
     11  CZ       -31.1780   28.3060   -4.7610 C.ar   27  TYR27       0.1957
     12  OH       -31.6530   27.7550   -3.5860 O.3    27  TYR27      -0.2866
     13  N        -26.9370   30.8160   -7.1760 N.am   28  TRP28      -0.1976
     14  CA       -26.0270   30.6630   -6.0450 C.3    28  TRP28       0.1640
     15  C        -25.3990   31.9780   -5.5840 C.2    28  TRP28       0.2290
     16  O        -25.0280   32.1160   -4.4110 O.2    28  TRP28      -0.2864
     17  CB       -24.9870   29.5660   -6.3150 C.3    28  TRP28       0.0576
     18  CG       -25.6030   28.2130   -6.1680 C.ar   28  TRP28       0.0006
     19  CD1      -25.9190   27.3380   -7.1680 C.ar   28  TRP28       0.0946
     20  CD2      -26.0360   27.6000   -4.9460 C.ar   28  TRP28       0.0152
     21  NE1      -26.5050   26.2100   -6.6410 N.ar   28  TRP28      -0.2442
     22  CE2      -26.5920   26.3470   -5.2800 C.ar   28  TRP28       0.0810
     23  CE3      -26.0040   27.9890   -3.6010 C.ar   28  TRP28       0.0012
     24  CZ2      -27.1070   25.4770   -4.3210 C.ar   28  TRP28       0.0191
     25  CZ3      -26.5180   27.1250   -2.6500 C.ar   28  TRP28       0.0001
     26  CH2      -27.0600   25.8850   -3.0100 C.ar   28  TRP28       0.0015
     27  N        -26.1480   26.7230    2.2980 N.3    38  MET38      -0.1230
     28  CA       -25.6090   25.5580    1.6070 C.3    38  MET38       0.1702
     29  C        -26.6260   24.4320    1.5620 C.2    38  MET38       0.2592
     30  O        -26.6900   23.6870    0.5910 O.2    38  MET38      -0.2718
     31  CB       -24.3520   25.0420    2.3130 C.3    38  MET38       0.0401
     32  CG       -23.2220   26.0540    2.4660 C.3    38  MET38       0.0596
     33  SD       -22.5750   26.6530    0.8790 S.3    38  MET38      -0.1393
     34  CE       -23.4360   28.2270    0.7530 C.3    38  MET38       0.0692
     35  N        -27.4160   24.3030    2.6270 N.am   39  LEU39      -0.1966
     36  CA       -28.3160   23.1620    2.7710 C.3    39  LEU39       0.1728
     37  C        -29.7740   23.4890    2.4550 C.2    39  LEU39       0.2616
     38  O        -30.6670   22.7100    2.7760 O.2    39  LEU39      -0.2715
     39  CB       -28.1910   22.5510    4.1680 C.3    39  LEU39       0.0311
     40  CG       -26.8130   21.9290    4.4120 C.3    39  LEU39       0.0022
     41  CD1      -26.7620   21.2270    5.7620 C.3    39  LEU39       0.0001
     42  CD2      -26.4820   20.9700    3.2710 C.3    39  LEU39       0.0001
     43  N        -30.0050   24.6340    1.8210 N.am   40  GLY40      -0.1955
     44  CA       -31.3400   24.9990    1.3650 C.3    40  GLY40       0.1869
     45  C        -32.3970   24.9680    2.4540 C.2    40  GLY40       0.2309
     46  O        -33.5180   24.5130    2.2230 O.2    40  GLY40      -0.2863
     47  N        -31.9820   23.3910    5.4080 N.3    42  TYR42      -0.1241
     48  CA       -31.8110   22.1960    6.2330 C.3    42  TYR42       0.1605
     49  C        -30.5270   22.2000    7.0560 C.2    42  TYR42       0.2264
     50  O        -29.9660   21.1470    7.3430 O.2    42  TYR42      -0.2867
     51  CB       -31.9220   20.9310    5.3730 C.3    42  TYR42       0.0534
     52  CG       -33.3240   20.7210    4.8660 C.ar   42  TYR42      -0.0201
     53  CD1      -34.2900   20.1330    5.6740 C.ar   42  TYR42      -0.0009
     54  CD2      -33.6970   21.1400    3.5970 C.ar   42  TYR42      -0.0009
     55  CE1      -35.5820   19.9510    5.2270 C.ar   42  TYR42       0.0417
     56  CE2      -34.9900   20.9570    3.1370 C.ar   42  TYR42       0.0417
     57  CZ       -35.9320   20.3670    3.9630 C.ar   42  TYR42       0.1957
     58  OH       -37.2200   20.1840    3.5080 O.3    42  TYR42      -0.2866
     59  N        -29.9260   19.6840    9.9390 N.3    45  ILE45      -0.1245
     60  CA       -29.5260   18.2810    9.8140 C.3    45  ILE45       0.1561
     61  C        -28.0790   18.0990    9.3460 C.2    45  ILE45       0.2260
     62  O        -27.6820   17.0020    8.9540 O.2    45  ILE45      -0.2867
     63  CB       -30.5150   17.4250    8.9700 C.3    45  ILE45       0.0252
     64  CG1      -30.8050   18.0710    7.6170 C.3    45  ILE45       0.0019
     65  CG2      -31.8260   17.2240    9.7320 C.3    45  ILE45       0.0019
     66  CD1      -29.6900   17.9270    6.5980 C.3    45  ILE45       0.0001
     67  N        -23.9340   17.0450   -3.1150 N.3   144  TRP144     -0.1227
     68  CA       -25.0180   18.0050   -3.3130 C.3   144  TRP144      0.1737
     69  C        -24.6680   19.0200   -4.3880 C.2   144  TRP144      0.2595
     70  O        -24.8280   20.2230   -4.2210 O.2   144  TRP144     -0.2718
     71  CB       -25.4450   18.6420   -1.9810 C.3   144  TRP144      0.0564
     72  CG       -26.4260   17.7530   -1.2560 C.ar  144  TRP144      0.0003
     73  CD1      -27.3880   16.9680   -1.8310 C.ar  144  TRP144      0.0946
     74  CD2      -26.5130   17.5230    0.1580 C.ar  144  TRP144      0.0152
     75  NE1      -28.0850   16.2840   -0.8600 N.ar  144  TRP144     -0.2442
     76  CE2      -27.5680   16.6060    0.3650 C.ar  144  TRP144      0.0810
     77  CE3      -25.8200   18.0160    1.2670 C.ar  144  TRP144      0.0012
     78  CZ2      -27.9390   16.1690    1.6310 C.ar  144  TRP144      0.0191
     79  CZ3      -26.1980   17.5780    2.5360 C.ar  144  TRP144      0.0001
     80  CH2      -27.2450   16.6630    2.7040 C.ar  144  TRP144      0.0015
     81  N        -24.1800   18.4940   -5.5060 N.am  145  VAL145     -0.1980
     82  CA       -23.8170   19.3310   -6.6410 C.3   145  VAL145      0.1595
     83  C        -23.9620   18.6100   -7.9890 C.2   145  VAL145      0.2287
     84  O        -23.9590   19.2590   -9.0320 O.2   145  VAL145     -0.2864
     85  CB       -22.3730   19.8860   -6.4700 C.3   145  VAL145      0.0276
     86  CG1      -21.3480   18.7640   -6.5800 C.3   145  VAL145      0.0022
     87  CG2      -22.0730   21.0060   -7.4730 C.3   145  VAL145      0.0022
     88  N        -26.2370   19.7770  -10.8270 N.3   148  HIS148     -0.1241
     89  CA       -25.9260   20.9840  -11.5880 C.3   148  HIS148      0.1621
     90  C        -25.1580   20.7240  -12.8700 C.2   148  HIS148      0.2264
     91  O        -24.8950   21.6550  -13.6290 O.2   148  HIS148     -0.2867
     92  CB       -25.1700   21.9980  -10.7270 C.3   148  HIS148      0.0745
     93  CG       -26.0690   22.8270   -9.8690 C.ar  148  HIS148      0.0817
     94  ND1      -27.0660   23.6200  -10.3940 N.ar  148  HIS148     -0.2268
     95  CD2      -26.1400   22.9700   -8.5240 C.ar  148  HIS148      0.1154
     96  CE1      -27.7090   24.2230   -9.4080 C.ar  148  HIS148      0.1986
     97  NE2      -27.1660   23.8460   -8.2640 N.ar  148  HIS148     -0.2212
     98  N        -25.4970   12.5250   -2.8120 N.3   175  ASP175     -0.1225
     99  CA       -26.4260   13.4590   -3.4310 C.3   175  ASP175      0.1805
    100  C        -27.8670   12.9850   -3.4080 C.2   175  ASP175      0.2597
    101  O        -28.1580   11.8400   -3.0440 O.2   175  ASP175     -0.2718
    102  CB       -25.9920   13.7460   -4.8750 C.3   175  ASP175      0.1424
    103  CG       -26.0370   15.2200   -5.2120 C.2   175  ASP175      0.3668
    104  OD1      -27.0990   15.8520   -5.0030 O.co2 175  ASP175     -0.2456
    105  OD2      -25.0020   15.7460   -5.6760 O.co2 175  ASP175     -0.2456
    106  N        -28.7670   13.8840   -3.7910 N.am  176  ASN176     -0.1974
    107  CA       -30.1790   13.5550   -3.9020 C.3   176  ASN176      0.1688
    108  C        -30.3960   12.5560   -5.0190 C.2   176  ASN176      0.2292
    109  O        -29.7700   12.6520   -6.0880 O.2   176  ASN176     -0.2864
    110  CB       -30.9980   14.7950   -4.2350 C.3   176  ASN176      0.1181
    111  CG       -30.8530   15.8880   -3.2070 C.2   176  ASN176      0.2629
    112  OD1      -30.6700   15.6220   -2.0150 O.2   176  ASN176     -0.2716
    113  ND2      -30.9470   17.1330   -3.6590 N.am  176  ASN176     -0.0877
    114  N        -35.4990   20.9290  -11.3640 N.3   185  ASP185     -0.1239
    115  CA       -35.8380   22.0160  -10.4470 C.3   185  ASP185      0.1674
    116  C        -35.4860   23.3000  -11.1930 C.2   185  ASP185      0.2266
    117  O        -34.3130   23.6190  -11.3530 O.2   185  ASP185     -0.2867
    118  CB       -35.0160   21.9030   -9.1540 C.3   185  ASP185      0.1410
    119  CG       -35.3510   22.9850   -8.1350 C.2   185  ASP185      0.3668
    120  OD1      -35.8780   24.0540   -8.5160 O.co2 185  ASP185     -0.2456
    121  OD2      -35.0710   22.7650   -6.9380 O.co2 185  ASP185     -0.2456
    122  N        -33.5560   26.4950   -8.8290 N.3   188  ASP188     -0.1239
    123  CA       -32.0910   26.5380   -8.7300 C.3   188  ASP188      0.1674
    124  C        -31.3500   26.0570   -9.9810 C.2   188  ASP188      0.2266
    125  O        -30.1190   26.1130  -10.0330 O.2   188  ASP188     -0.2867
    126  CB       -31.5550   25.8530   -7.4610 C.3   188  ASP188      0.1410
    127  CG       -31.7230   24.3420   -7.4600 C.2   188  ASP188      0.3668
    128  OD1      -32.1740   23.7510   -8.4710 O.co2 188  ASP188     -0.2456
    129  OD2      -31.3750   23.7320   -6.4170 O.co2 188  ASP188     -0.2456
    130  N        -31.2520   22.8400  -11.5730 N.3   190  SER190     -0.1217
    131  CA       -30.5560   21.5860  -11.3480 C.3   190  SER190      0.1889
    132  C        -31.5110   20.4290  -11.6110 C.2   190  SER190      0.2288
    133  O        -32.7230   20.6330  -11.7500 O.2   190  SER190     -0.2866
    134  CB       -30.0510   21.5070   -9.9040 C.3   190  SER190      0.2089
    135  OG       -31.1400   21.3810   -9.0010 O.3   190  SER190     -0.2183
    136  N        -32.5570   16.1840  -10.5000 N.3   192  CYS192     -0.1235
    137  CA       -32.4380   15.0670   -9.5800 C.3   192  CYS192      0.1677
    138  C        -32.6700   13.7800  -10.3670 C.2   192  CYS192      0.2270
    139  O        -33.7150   13.6240  -11.0020 O.2   192  CYS192     -0.2867
    140  CB       -33.4730   15.1940   -8.4690 C.3   192  CYS192      0.0956
    141  SG       -33.2180   14.0010   -7.1610 S.3   192  CYS192     -0.0801
    142  N        -33.0200   11.2870    7.6940 N.3   218  LEU218     -0.1245
    143  CA       -33.2780   12.5880    7.0900 C.3   218  LEU218      0.1561
    144  C        -34.7620   12.9690    7.1250 C.2   218  LEU218      0.2260
    145  O        -35.6270   12.0970    7.2280 O.2   218  LEU218     -0.2867
    146  CB       -32.7560   12.6110    5.6500 C.3   218  LEU218      0.0270
    147  CG       -31.2370   12.6810    5.5170 C.3   218  LEU218      0.0019
    148  CD1      -30.8570   12.9490    4.0710 C.3   218  LEU218      0.0001
    149  CD2      -30.6530   13.7400    6.4260 C.3   218  LEU218      0.0001
    150  N        -38.5410   13.7560    6.3810 N.3   220  ASP220     -0.1225
    151  CA       -39.4260   12.8930    5.6120 C.3   220  ASP220      0.1805
    152  C        -39.7650   13.4430    4.2350 C.2   220  ASP220      0.2598
    153  O        -40.0020   12.6770    3.3010 O.2   220  ASP220     -0.2718
    154  CB       -40.7230   12.6330    6.3860 C.3   220  ASP220      0.1424
    155  CG       -40.4930   11.8160    7.6420 C.2   220  ASP220      0.3668
    156  OD1      -40.3240   10.5870    7.5170 O.co2 220  ASP220     -0.2456
    157  OD2      -40.4840   12.4020    8.7450 O.co2 220  ASP220     -0.2456
    158  N        -39.7810   14.7640    4.0990 N.am  221  GLU221     -0.1965
    159  CA       -40.2860   15.3720    2.8700 C.3   221  GLU221      0.1733
    160  C        -39.2620   15.4730    1.7420 C.2   221  GLU221      0.2616
    161  O        -39.6270   15.7600    0.6080 O.2   221  GLU221     -0.2715
    162  CB       -40.8880   16.7540    3.1480 C.3   221  GLU221      0.0429
    163  CG       -39.8890   17.8670    3.4430 C.3   221  GLU221      0.1163
    164  CD       -39.3960   17.8720    4.8770 C.2   221  GLU221      0.3649
    165  OE1      -39.7870   16.9780    5.6650 O.co2 221  GLU221     -0.2457
    166  OE2      -38.6150   18.7810    5.2230 O.co2 221  GLU221     -0.2457
    167  N        -37.9920   15.2350    2.0420 N.am  222  ILE222     -0.1963
    168  CA       -36.9620   15.4670    1.0270 C.3   222  ILE222      0.1727
    169  C        -36.6260   14.2420    0.1800 C.2   222  ILE222      0.2616
    170  O        -36.9400   13.1100    0.5460 O.2   222  ILE222     -0.2715
    171  CB       -35.6770   16.0590    1.6440 C.3   222  ILE222      0.0290
    172  CG1      -34.9470   15.0220    2.5060 C.3   222  ILE222      0.0022
    173  CG2      -36.0000   17.3270    2.4280 C.3   222  ILE222      0.0023
    174  CD1      -33.6250   15.5170    3.0720 C.3   222  ILE222      0.0001
    175  N        -35.9830   14.4740   -0.9640 N.am  223  TYR223     -0.1974
    176  CA       -35.4800   13.3680   -1.7670 C.3   223  TYR223      0.1639
    177  C        -34.5680   12.4770   -0.9290 C.2   223  TYR223      0.2290
    178  O        -33.8480   12.9580   -0.0480 O.2   223  TYR223     -0.2864
    179  CB       -34.6540   13.8820   -2.9540 C.3   223  TYR223      0.0560
    180  CG       -35.4420   14.4820   -4.0840 C.ar  223  TYR223     -0.0198
    181  CD1      -36.2560   13.6900   -4.8800 C.ar  223  TYR223     -0.0009
    182  CD2      -35.3470   15.8360   -4.3750 C.ar  223  TYR223     -0.0009
    183  CE1      -36.9670   14.2310   -5.9320 C.ar  223  TYR223      0.0417
    184  CE2      -36.0510   16.3910   -5.4240 C.ar  223  TYR223      0.0417
    185  CZ       -36.8650   15.5860   -6.1930 C.ar  223  TYR223      0.1957
    186  OH       -37.5670   16.1380   -7.2410 O.3   223  TYR223     -0.2866
    187  N        -31.2410   10.4120   -0.1350 N.3   225  VAL225     -0.1245
    188  CA       -29.8550   10.7890   -0.3390 C.3   225  VAL225      0.1561
    189  C        -29.0020    9.5360   -0.2660 C.2   225  VAL225      0.2260
    190  O        -29.1660    8.7150    0.6400 O.2   225  VAL225     -0.2867
    191  CB       -29.4080   11.8100    0.7170 C.3   225  VAL225      0.0252
    192  CG1      -27.8980   12.0110    0.6810 C.3   225  VAL225      0.0019
    193  CG2      -30.1420   13.1250    0.5060 C.3   225  VAL225      0.0019
@<TRIPOS>BOND
     1    91    90    2
     2    90    89    1
     3   133   132    2
     4   132   131    1
     5    89    88    1
     6    89    92    1
     7   130   131    1
     8   114   115    1
     9   117   116    2
    10   131   134    1
    11   116   115    1
    12   139   138    2
    13    92    93    1
    14   136   137    1
    15   115   118    1
    16    94    93   ar
    17    94    96   ar
    18   138   137    1
    19   125   124    2
    20   124   123    1
    21   134   135    1
    22    93    95   ar
    23   137   140    1
    24    96    97   ar
    25     1     2    1
    26   118   119    1
    27    84    83    2
    28   122   123    1
    29   123   126    1
    30    95    97   ar
    31   120   119   ar
    32   128   127   ar
    33   140   141    1
    34     5     2    1
    35     5     6    1
    36     2     3    1
    37   119   121   ar
    38    83    82    1
    39    87    85    1
    40   126   127    1
    41   127   129   ar
    42   186   185    1
    43    13     3   am
    44    13    14    1
    45    19    21   ar
    46    19    18   ar
    47     6     7   ar
    48     6     8   ar
    49     3     4    2
    50     7     9   ar
    51    21    22   ar
    52    82    85    1
    53    82    81    1
    54    86    85    1
    55     8    10   ar
    56    17    18    1
    57    17    14    1
    58   185   183   ar
    59   185   184   ar
    60    18    20   ar
    61   109   108    2
    62    14    15    1
    63   183   181   ar
    64   105   103   ar
    65    15    16    2
    66     9    11   ar
    67    81    69   am
    68   184   182   ar
    69    22    20   ar
    70    22    24   ar
    71   103   104   ar
    72   103   102    1
    73    10    11   ar
    74   108   107    1
    75    20    23   ar
    76   181   180   ar
    77   102    99    1
    78    11    12    1
    79    69    70    2
    80    69    68    1
    81   182   180   ar
    82    24    26   ar
    83   110   107    1
    84   110   111    1
    85   180   179    1
    86   107   106    1
    87   106   100   am
    88   113   111   am
    89    23    25   ar
    90    99   100    1
    91    99    98    1
    92   100   101    2
    93    68    67    1
    94    68    71    1
    95   111   112    2
    96    26    25   ar
    97   179   176    1
    98    71    72    1
    99    73    72   ar
   100    73    75   ar
   101   176   175    1
   102   176   177    1
   103    72    74   ar
   104   175   169   am
   105   177   178    2
   106    75    76   ar
   107   188   189    1
   108   188   187    1
   109   188   191    1
   110   189   190    2
   111    74    76   ar
   112    74    77   ar
   113   169   170    2
   114   169   168    1
   115    76    78   ar
   116   193   191    1
   117    30    29    2
   118   161   160    2
   119   192   191    1
   120    34    33    1
   121    33    32    1
   122   168   171    1
   123   168   167    1
   124    77    79   ar
   125    44    43    1
   126    44    45    1
   127    29    28    1
   128    29    35   am
   129    28    27    1
   130    28    31    1
   131    78    80   ar
   132   171   173    1
   133   171   172    1
   134   160   167   am
   135   160   159    1
   136    43    37   am
   137    46    45    2
   138    31    32    1
   139    37    36    1
   140    37    38    2
   141   172   174    1
   142    79    80   ar
   143    35    36    1
   144    36    39    1
   145   159   162    1
   146   159   158    1
   147    56    54   ar
   148    56    57   ar
   149   162   163    1
   150    42    40    1
   151   153   152    2
   152   163   164    1
   153    58    57    1
   154    54    52   ar
   155    57    55   ar
   156   148   147    1
   157   158   152   am
   158    39    40    1
   159   152   151    1
   160    40    41    1
   161    52    51    1
   162    52    53   ar
   163   164   166   ar
   164   164   165   ar
   165    55    53   ar
   166    51    48    1
   167    47    48    1
   168   147   146    1
   169   147   149    1
   170   151   150    1
   171   151   154    1
   172   146   143    1
   173    48    49    1
   174   154   155    1
   175    66    64    1
   176    49    50    2
   177   143   144    1
   178   143   142    1
   179   144   145    2
   180   156   155   ar
   181    64    63    1
   182   155   157   ar
   183    62    61    2
   184    63    65    1
   185    63    60    1
   186    61    60    1
   187    60    59    1
