@<TRIPOS>MOLECULE
tmp/5cveA01.pdb
 211 207 0 0 0
SMALL
GASTEIGER

@<TRIPOS>ATOM
      1  N        -26.8170   26.3880  -17.0780 N.3    21  TYR21      -0.1241
      2  CA       -25.6670   26.7690  -16.2720 C.3    21  TYR21       0.1605
      3  C        -25.7150   28.2190  -15.7940 C.2    21  TYR21       0.2264
      4  O        -25.3800   28.5040  -14.6400 O.2    21  TYR21      -0.2867
      5  CB       -24.3600   26.4910  -17.0290 C.3    21  TYR21       0.0534
      6  CG       -24.0140   25.0210  -17.0800 C.ar   21  TYR21      -0.0201
      7  CD1      -23.7240   24.3220  -15.9180 C.ar   21  TYR21      -0.0009
      8  CD2      -23.9870   24.3270  -18.2880 C.ar   21  TYR21      -0.0009
      9  CE1      -23.4100   22.9790  -15.9470 C.ar   21  TYR21       0.0417
     10  CE2      -23.6680   22.9700  -18.3280 C.ar   21  TYR21       0.0417
     11  CZ       -23.3930   22.3040  -17.1490 C.ar   21  TYR21       0.1957
     12  OH       -23.0810   20.9650  -17.1560 O.3    21  TYR21      -0.2866
     13  N        -28.1620   28.7230  -12.8960 N.3    24  ALA24      -0.1231
     14  CA       -27.6400   28.1200  -11.6680 C.3    24  ALA24       0.1694
     15  C        -26.5940   29.0100  -11.0190 C.2    24  ALA24       0.2591
     16  O        -26.5750   29.1690   -9.7970 O.2    24  ALA24      -0.2718
     17  CB       -27.0510   26.7460  -11.9500 C.3    24  ALA24       0.0304
     18  N        -25.7110   29.5800  -11.8320 N.am   25  LYS25      -0.1980
     19  CA       -24.6860   30.4630  -11.2940 C.3    25  LYS25       0.1596
     20  C        -25.3290   31.6820  -10.6270 C.2    25  LYS25       0.2287
     21  O        -24.9330   32.0860   -9.5320 O.2    25  LYS25      -0.2864
     22  CB       -23.7050   30.8740  -12.3950 C.3    25  LYS25       0.0298
     23  CG       -22.5830   31.7380  -11.8860 C.3    25  LYS25       0.0038
     24  CD       -21.5370   31.9820  -12.9580 C.3    25  LYS25       0.0206
     25  CE       -20.4670   32.9080  -12.4090 C.3    25  LYS25       0.1093
     26  NZ       -19.4230   33.2220  -13.4160 N.3    25  LYS25      -0.1314
     27  N        -26.9370   30.8160   -7.1760 N.3    28  TRP28      -0.1241
     28  CA       -26.0270   30.6630   -6.0450 C.3    28  TRP28       0.1605
     29  C        -25.3990   31.9780   -5.5840 C.2    28  TRP28       0.2264
     30  O        -25.0280   32.1160   -4.4110 O.2    28  TRP28      -0.2867
     31  CB       -24.9870   29.5660   -6.3150 C.3    28  TRP28       0.0550
     32  CG       -25.6030   28.2130   -6.1680 C.ar   28  TRP28       0.0003
     33  CD1      -25.9190   27.3380   -7.1680 C.ar   28  TRP28       0.0946
     34  CD2      -26.0360   27.6000   -4.9460 C.ar   28  TRP28       0.0152
     35  NE1      -26.5050   26.2100   -6.6410 N.ar   28  TRP28      -0.2442
     36  CE2      -26.5920   26.3470   -5.2800 C.ar   28  TRP28       0.0810
     37  CE3      -26.0040   27.9890   -3.6010 C.ar   28  TRP28       0.0012
     38  CZ2      -27.1070   25.4770   -4.3210 C.ar   28  TRP28       0.0191
     39  CZ3      -26.5180   27.1250   -2.6500 C.ar   28  TRP28       0.0001
     40  CH2      -27.0600   25.8850   -3.0100 C.ar   28  TRP28       0.0015
     41  N        -26.1480   26.7230    2.2980 N.3    38  MET38      -0.1230
     42  CA       -25.6090   25.5580    1.6070 C.3    38  MET38       0.1702
     43  C        -26.6260   24.4320    1.5620 C.2    38  MET38       0.2592
     44  O        -26.6900   23.6870    0.5910 O.2    38  MET38      -0.2718
     45  CB       -24.3520   25.0420    2.3130 C.3    38  MET38       0.0401
     46  CG       -23.2220   26.0540    2.4660 C.3    38  MET38       0.0596
     47  SD       -22.5750   26.6530    0.8790 S.3    38  MET38      -0.1393
     48  CE       -23.4360   28.2270    0.7530 C.3    38  MET38       0.0692
     49  N        -27.4160   24.3030    2.6270 N.am   39  LEU39      -0.1980
     50  CA       -28.3160   23.1620    2.7710 C.3    39  LEU39       0.1596
     51  C        -29.7740   23.4890    2.4550 C.2    39  LEU39       0.2287
     52  O        -30.6670   22.7100    2.7760 O.2    39  LEU39      -0.2864
     53  CB       -28.1910   22.5510    4.1680 C.3    39  LEU39       0.0297
     54  CG       -26.8130   21.9290    4.4120 C.3    39  LEU39       0.0022
     55  CD1      -26.7620   21.2270    5.7620 C.3    39  LEU39       0.0001
     56  CD2      -26.4820   20.9700    3.2710 C.3    39  LEU39       0.0001
     57  N        -12.6410   18.7150   -2.1950 N.3    75  ASP75      -0.1225
     58  CA       -14.0550   18.9170   -1.8700 C.3    75  ASP75       0.1805
     59  C        -14.6900   19.6290   -3.0630 C.2    75  ASP75       0.2598
     60  O        -14.3710   20.7890   -3.3320 O.2    75  ASP75      -0.2718
     61  CB       -14.1740   19.7740   -0.5990 C.3    75  ASP75       0.1424
     62  CG       -15.6030   19.8680   -0.0640 C.2    75  ASP75       0.3668
     63  OD1      -16.5470   19.4030   -0.7340 O.co2  75  ASP75      -0.2456
     64  OD2      -15.7790   20.4410    1.0320 O.co2  75  ASP75      -0.2456
     65  N        -15.5820   18.9330   -3.7700 N.am   76  CYS76      -0.1956
     66  CA       -16.1710   19.4510   -5.0130 C.3    76  CYS76       0.1843
     67  C        -17.5420   20.0730   -4.7950 C.2    76  CYS76       0.2626
     68  O        -18.4140   19.4570   -4.1840 O.2    76  CYS76      -0.2714
     69  CB       -16.2910   18.3350   -6.0420 C.3    76  CYS76       0.0997
     70  SG       -14.7030   17.6420   -6.5290 S.3    76  CYS76      -0.0797
     71  N        -17.7410   21.2810   -5.3220 N.am   77  GLY77      -0.1940
     72  CA       -18.9410   22.0520   -5.0230 C.3    77  GLY77       0.2014
     73  C        -18.9520   22.3760   -3.5380 C.2    77  GLY77       0.2639
     74  O        -19.9820   22.2800   -2.8700 O.2    77  GLY77      -0.2714
     75  N        -17.7920   22.7690   -3.0280 N.am   78  ALA78      -0.1963
     76  CA       -17.5450   22.8380   -1.5900 C.3    78  ALA78       0.1728
     77  C        -18.3050   23.9360   -0.8560 C.2    78  ALA78       0.2616
     78  O        -18.4540   23.8770    0.3740 O.2    78  ALA78      -0.2715
     79  CB       -16.0510   22.9940   -1.3390 C.3    78  ALA78       0.0334
     80  N        -18.7560   24.9480   -1.5930 N.am   79  GLY79      -0.1955
     81  CA       -19.3970   26.1000   -0.9820 C.3    79  GLY79       0.1869
     82  C        -18.4830   26.7650    0.0320 C.2    79  GLY79       0.2309
     83  O        -17.2830   26.9420   -0.2260 O.2    79  GLY79      -0.2863
     84  N        -18.6130   23.6190    4.5420 N.3    82  ARG82      -0.1231
     85  CA       -19.3170   22.8770    5.5870 C.3    82  ARG82       0.1694
     86  C        -18.7070   21.4870    5.7720 C.2    82  ARG82       0.2591
     87  O        -18.4470   21.0410    6.8960 O.2    82  ARG82      -0.2718
     88  CB       -20.7980   22.7510    5.2120 C.3    82  ARG82       0.0321
     89  CG       -21.6720   22.0840    6.2630 C.3    82  ARG82       0.0489
     90  CD       -23.0790   21.8550    5.7030 C.3    82  ARG82       0.2205
     91  NE       -23.0690   20.9060    4.5910 N.pl3  82  ARG82      -0.0865
     92  CZ       -23.2220   19.5920    4.7280 C.cat  82  ARG82       0.5346
     93  NH1      -23.4120   19.0660    5.9350 N.pl3  82  ARG82       0.1354
     94  NH2      -23.1980   18.7980    3.6660 N.pl3  82  ARG82       0.1354
     95  N        -18.4710   20.8060    4.6560 N.am   83  ILE83      -0.1980
     96  CA       -17.9210   19.4570    4.6590 C.3    83  ILE83       0.1595
     97  C        -16.4120   19.4770    4.9110 C.2    83  ILE83       0.2287
     98  O        -15.8800   18.6390    5.6480 O.2    83  ILE83      -0.2864
     99  CB       -18.2360   18.7390    3.3290 C.3    83  ILE83       0.0276
    100  CG1      -19.7530   18.6680    3.1190 C.3    83  ILE83       0.0022
    101  CG2      -17.6470   17.3430    3.3090 C.3    83  ILE83       0.0022
    102  CD1      -20.1470   18.2200    1.7150 C.3    83  ILE83       0.0001
    103  N        -15.2810   25.3360   -6.2470 N.3    99  ASP99      -0.1225
    104  CA       -16.6640   25.7950   -6.2910 C.3    99  ASP99       0.1805
    105  C        -16.8050   26.9020   -7.3200 C.2    99  ASP99       0.2598
    106  O        -15.8640   27.6670   -7.5510 O.2    99  ASP99      -0.2718
    107  CB       -17.1000   26.3130   -4.9150 C.3    99  ASP99       0.1424
    108  CG       -18.6050   26.3830   -4.7830 C.2    99  ASP99       0.3668
    109  OD1      -19.1890   27.4190   -5.1620 O.co2  99  ASP99      -0.2456
    110  OD2      -19.1950   25.3900   -4.3150 O.co2  99  ASP99      -0.2456
    111  N        -17.9780   26.9970   -7.9360 N.am  100  ILE100     -0.1966
    112  CA       -18.1980   27.9940   -8.9740 C.3   100  ILE100      0.1727
    113  C        -18.3760   29.4040   -8.3990 C.2   100  ILE100      0.2616
    114  O        -18.1620   30.3970   -9.1010 O.2   100  ILE100     -0.2715
    115  CB       -19.4050   27.6080   -9.8610 C.3   100  ILE100      0.0290
    116  CG1      -19.3340   28.3320  -11.1960 C.3   100  ILE100      0.0022
    117  CG2      -20.7330   27.8900   -9.1500 C.3   100  ILE100      0.0023
    118  CD1      -20.3210   27.7880  -12.2020 C.3   100  ILE100      0.0001
    119  N        -18.7430   29.4830   -7.1190 N.am  101  THR101     -0.1951
    120  CA       -19.1120   30.7530   -6.4930 C.3   101  THR101      0.1897
    121  C        -17.9650   31.3260   -5.6540 C.2   101  THR101      0.2313
    122  O        -17.7040   30.8510   -4.5480 O.2   101  THR101     -0.2863
    123  CB       -20.3860   30.5790   -5.6290 C.3   101  THR101      0.1794
    124  OG1      -21.4400   30.0480   -6.4520 O.3   101  THR101     -0.2208
    125  CG2      -20.8330   31.9120   -5.0550 C.3   101  THR101      0.0378
    126  N        -18.3120   32.2260   -1.8910 N.3   104  PHE104     -0.1241
    127  CA       -18.3410   31.1340   -0.9220 C.3   104  PHE104      0.1605
    128  C        -16.9220   30.7350   -0.5290 C.2   104  PHE104      0.2264
    129  O        -16.6570   30.4080    0.6330 O.2   104  PHE104     -0.2867
    130  CB       -19.1020   29.9190   -1.4700 C.3   104  PHE104      0.0534
    131  CG       -20.5720   30.1560   -1.6660 C.ar  104  PHE104     -0.0203
    132  CD1      -21.2190   31.2110   -1.0390 C.ar  104  PHE104     -0.0042
    133  CD2      -21.3100   29.3140   -2.4790 C.ar  104  PHE104     -0.0042
    134  CE1      -22.5750   31.4240   -1.2270 C.ar  104  PHE104     -0.0003
    135  CE2      -22.6610   29.5190   -2.6770 C.ar  104  PHE104     -0.0003
    136  CZ       -23.2990   30.5740   -2.0530 C.ar  104  PHE104     -0.0000
    137  N        -14.1500   27.5900  -10.0860 N.3   125  CYS125     -0.1221
    138  CA       -14.3470   26.9620  -11.3830 C.3   125  CYS125      0.1808
    139  C        -15.6120   26.1180  -11.3510 C.2   125  CYS125      0.2602
    140  O        -15.9250   25.5120  -10.3260 O.2   125  CYS125     -0.2717
    141  CB       -13.1380   26.0710  -11.6870 C.3   125  CYS125      0.0970
    142  SG       -13.0260   25.4740  -13.3940 S.3   125  CYS125     -0.0800
    143  N        -16.3330   26.0700  -12.4690 N.am  126  GLY126     -0.1942
    144  CA       -17.4350   25.1280  -12.5990 C.3   126  GLY126      0.2014
    145  C        -16.8470   23.7390  -12.7910 C.2   126  GLY126      0.2639
    146  O        -15.8240   23.5950  -13.4640 O.2   126  GLY126     -0.2714
    147  N        -17.4660   22.7150  -12.2090 N.am  127  LEU127     -0.1963
    148  CA       -16.9490   21.3570  -12.3640 C.3   127  LEU127      0.1728
    149  C        -16.8440   20.9480  -13.8310 C.2   127  LEU127      0.2616
    150  O        -15.9430   20.1910  -14.2110 O.2   127  LEU127     -0.2715
    151  CB       -17.7970   20.3510  -11.5860 C.3   127  LEU127      0.0311
    152  CG       -17.9120   20.5870  -10.0780 C.3   127  LEU127      0.0022
    153  CD1      -18.6380   19.4030   -9.4360 C.3   127  LEU127      0.0001
    154  CD2      -16.5450   20.8180   -9.4240 C.3   127  LEU127      0.0001
    155  N        -17.7630   21.4580  -14.6470 N.am  128  GLN128     -0.1977
    156  CA       -17.7850   21.1390  -16.0710 C.3   128  GLN128      0.1601
    157  C        -16.5370   21.6410  -16.7970 C.2   128  GLN128      0.2287
    158  O        -16.2250   21.1730  -17.8950 O.2   128  GLN128     -0.2864
    159  CB       -19.0680   21.6730  -16.7320 C.3   128  GLN128      0.0394
    160  CG       -19.1890   23.1960  -16.8150 C.3   128  GLN128      0.0908
    161  CD       -19.7900   23.8430  -15.5810 C.2   128  GLN128      0.2608
    162  OE1      -19.7850   23.2750  -14.4860 O.2   128  GLN128     -0.2717
    163  NE2      -20.3080   25.0550  -15.7540 N.am  128  GLN128     -0.0878
    164  N        -20.4610   16.3370   -3.2350 N.3   143  GLN143     -0.1231
    165  CA       -21.7240   16.2700   -2.4990 C.3   143  GLN143      0.1698
    166  C        -22.6890   17.4110   -2.8100 C.2   143  GLN143      0.2592
    167  O        -22.3190   18.5800   -2.7720 O.2   143  GLN143     -0.2718
    168  CB       -21.4730   16.1650   -0.9850 C.3   143  GLN143      0.0381
    169  CG       -22.7670   16.2110   -0.1650 C.3   143  GLN143      0.0905
    170  CD       -22.6370   15.5990    1.2230 C.2   143  GLN143      0.2608
    171  OE1      -21.5510   15.2040    1.6430 O.2   143  GLN143     -0.2717
    172  NE2      -23.7550   15.5240    1.9460 N.am  143  GLN143     -0.0878
    173  N        -23.9340   17.0450   -3.1150 N.am  144  TRP144     -0.1962
    174  CA       -25.0180   18.0050   -3.3130 C.3   144  TRP144      0.1771
    175  C        -24.6680   19.0200   -4.3880 C.2   144  TRP144      0.2619
    176  O        -24.8280   20.2230   -4.2210 O.2   144  TRP144     -0.2715
    177  CB       -25.4450   18.6420   -1.9810 C.3   144  TRP144      0.0590
    178  CG       -26.4260   17.7530   -1.2560 C.ar  144  TRP144      0.0006
    179  CD1      -27.3880   16.9680   -1.8310 C.ar  144  TRP144      0.0946
    180  CD2      -26.5130   17.5230    0.1580 C.ar  144  TRP144      0.0152
    181  NE1      -28.0850   16.2840   -0.8600 N.ar  144  TRP144     -0.2442
    182  CE2      -27.5680   16.6060    0.3650 C.ar  144  TRP144      0.0810
    183  CE3      -25.8200   18.0160    1.2670 C.ar  144  TRP144      0.0012
    184  CZ2      -27.9390   16.1690    1.6310 C.ar  144  TRP144      0.0191
    185  CZ3      -26.1980   17.5780    2.5360 C.ar  144  TRP144      0.0001
    186  CH2      -27.2450   16.6630    2.7040 C.ar  144  TRP144      0.0015
    187  N        -24.1800   18.4940   -5.5060 N.am  145  VAL145     -0.1977
    188  CA       -23.8170   19.3310   -6.6410 C.3   145  VAL145      0.1596
    189  C        -23.9620   18.6100   -7.9890 C.2   145  VAL145      0.2287
    190  O        -23.9590   19.2590   -9.0320 O.2   145  VAL145     -0.2864
    191  CB       -22.3730   19.8860   -6.4700 C.3   145  VAL145      0.0276
    192  CG1      -21.3480   18.7640   -6.5800 C.3   145  VAL145      0.0022
    193  CG2      -22.0730   21.0060   -7.4730 C.3   145  VAL145      0.0022
    194  N        -26.2370   19.7770  -10.8270 N.3   148  HIS148     -0.1226
    195  CA       -25.9260   20.9840  -11.5880 C.3   148  HIS148      0.1752
    196  C        -25.1580   20.7240  -12.8700 C.2   148  HIS148      0.2595
    197  O        -24.8950   21.6550  -13.6290 O.2   148  HIS148     -0.2718
    198  CB       -25.1700   21.9980  -10.7270 C.3   148  HIS148      0.0759
    199  CG       -26.0690   22.8270   -9.8690 C.ar  148  HIS148      0.0818
    200  ND1      -27.0660   23.6200  -10.3940 N.ar  148  HIS148     -0.2268
    201  CD2      -26.1400   22.9700   -8.5240 C.ar  148  HIS148      0.1154
    202  CE1      -27.7090   24.2230   -9.4080 C.ar  148  HIS148      0.1986
    203  NE2      -27.1660   23.8460   -8.2640 N.ar  148  HIS148     -0.2212
    204  N        -24.7960   19.4690  -13.1150 N.am  149  LEU149     -0.1980
    205  CA       -24.1170   19.1240  -14.3630 C.3   149  LEU149      0.1596
    206  C        -25.0350   18.3380  -15.2890 C.2   149  LEU149      0.2287
    207  O        -25.8480   17.5330  -14.8370 O.2   149  LEU149     -0.2864
    208  CB       -22.8370   18.3280  -14.0990 C.3   149  LEU149      0.0297
    209  CG       -21.5380   19.1490  -14.0200 C.3   149  LEU149      0.0022
    210  CD1      -21.6540   20.3020  -13.0380 C.3   149  LEU149      0.0001
    211  CD2      -20.3500   18.2390  -13.6740 C.3   149  LEU149      0.0001
@<TRIPOS>BOND
     1    10     8   ar
     2    10    11   ar
     3     8     6   ar
     4   158   157    2
     5    12    11    1
     6    11     9   ar
     7     6     5    1
     8     6     7   ar
     9     1     2    1
    10     5     2    1
    11   160   159    1
    12   160   161    1
    13   157   156    1
    14   159   156    1
    15     2     3    1
    16   156   155    1
    17     9     7   ar
    18     3     4    2
    19   163   161   am
    20   161   162    2
    21   206   207    2
    22   206   205    1
    23   155   149   am
    24   205   208    1
    25   205   204    1
    26   150   149    2
    27   208   209    1
    28   209   211    1
    29   209   210    1
    30   149   148    1
    31   197   196    2
    32   146   145    2
    33    26    25    1
    34   142   141    1
    35   204   196   am
    36    24    25    1
    37    24    23    1
    38    13    14    1
    39   196   195    1
    40   145   144    1
    41   145   147   am
    42   144   143    1
    43   143   139   am
    44    22    23    1
    45    22    19    1
    46   148   147    1
    47   148   151    1
    48   118   116    1
    49    17    14    1
    50    18    19    1
    51    18    15   am
    52   141   138    1
    53    14    15    1
    54   195   194    1
    55   195   198    1
    56   151   152    1
    57   138   139    1
    58   138   137    1
    59   139   140    2
    60    19    20    1
    61   116   115    1
    62    15    16    2
    63   198   199    1
    64    20    21    2
    65   200   199   ar
    66   200   202   ar
    67   152   153    1
    68   152   154    1
    69   199   201   ar
    70   115   117    1
    71   115   112    1
    72   202   203   ar
    73   114   113    2
    74   190   189    2
    75   112   113    1
    76   112   111    1
    77   201   203   ar
    78   113   119   am
    79   189   188    1
    80   111   105   am
    81   106   105    2
    82   193   191    1
    83   105   104    1
    84    27    28    1
    85    33    35   ar
    86    33    32   ar
    87   119   120    1
    88   188   191    1
    89   188   187    1
    90    35    36   ar
    91   192   191    1
    92    70    69    1
    93   120   121    1
    94   120   123    1
    95   124   123    1
    96    31    32    1
    97    31    28    1
    98   104   103    1
    99   104   107    1
   100    32    34   ar
   101    28    29    1
   102    69    66    1
   103   121   122    2
   104   123   125    1
   105    29    30    2
   106   187   175   am
   107    71    72    1
   108    71    67   am
   109    36    34   ar
   110    36    38   ar
   111   109   108   ar
   112    72    73    1
   113    66    67    1
   114    66    65    1
   115    34    37   ar
   116   107   108    1
   117    67    68    2
   118   108   110   ar
   119   175   176    2
   120   175   174    1
   121    38    40   ar
   122    65    59   am
   123    37    39   ar
   124    73    75   am
   125    73    74    2
   126    60    59    2
   127   174   173    1
   128   174   177    1
   129   164   165    1
   130   173   166   am
   131    59    58    1
   132    75    76    1
   133    40    39   ar
   134   166   167    2
   135   166   165    1
   136   135   133   ar
   137   135   136   ar
   138   165   168    1
   139   133   131   ar
   140    57    58    1
   141   136   134   ar
   142   177   178    1
   143   126   127    1
   144    58    61    1
   145   179   178   ar
   146   179   181   ar
   147   131   130    1
   148   131   132   ar
   149    80    81    1
   150    80    77   am
   151    76    79    1
   152    76    77    1
   153   130   127    1
   154   178   180   ar
   155   134   132   ar
   156   168   169    1
   157    81    82    1
   158   127   128    1
   159   181   182   ar
   160    77    78    2
   161    63    62   ar
   162    61    62    1
   163   128   129    2
   164    83    82    2
   165   169   170    1
   166    62    64   ar
   167   180   182   ar
   168   180   183   ar
   169   182   184   ar
   170    44    43    2
   171    48    47    1
   172    47    46    1
   173   170   171    2
   174   170   172   am
   175   183   185   ar
   176    43    42    1
   177    43    49   am
   178    42    41    1
   179    42    45    1
   180   184   186   ar
   181   102   100    1
   182    45    46    1
   183    51    50    1
   184    51    52    2
   185   185   186   ar
   186    49    50    1
   187    50    53    1
   188   100    99    1
   189    56    54    1
   190   101    99    1
   191    99    96    1
   192    94    92    1
   193    53    54    1
   194    54    55    1
   195    84    85    1
   196    91    92    2
   197    91    90    1
   198    95    96    1
   199    95    86   am
   200    96    97    1
   201    92    93    1
   202    97    98    2
   203    88    85    1
   204    88    89    1
   205    85    86    1
   206    90    89    1
   207    86    87    2
