@<TRIPOS>MOLECULE
tmp/5cveB00.pdb
 186 180 0 0 0
SMALL
GASTEIGER

@<TRIPOS>ATOM
      1  N        -25.3060  -19.7640  -25.6060 N.3    22  TYR22      -0.1227
      2  CA       -24.8590  -20.8490  -24.7340 C.3    22  TYR22       0.1736
      3  C        -24.2430  -20.3200  -23.4410 C.2    22  TYR22       0.2595
      4  O        -24.6110  -20.7370  -22.3370 O.2    22  TYR22      -0.2718
      5  CB       -23.8500  -21.7560  -25.4510 C.3    22  TYR22       0.0548
      6  CG       -23.1810  -22.7500  -24.5210 C.ar   22  TYR22      -0.0200
      7  CD1      -23.8070  -23.9450  -24.1810 C.ar   22  TYR22      -0.0009
      8  CD2      -21.9230  -22.4990  -23.9940 C.ar   22  TYR22      -0.0009
      9  CE1      -23.2000  -24.8550  -23.3280 C.ar   22  TYR22       0.0417
     10  CE2      -21.3090  -23.4000  -23.1400 C.ar   22  TYR22       0.0417
     11  CZ       -21.9480  -24.5770  -22.8140 C.ar   22  TYR22       0.1957
     12  OH       -21.3280  -25.4740  -21.9610 O.3    22  TYR22      -0.2866
     13  N        -23.2960  -19.3980  -23.5680 N.am   23  TRP23      -0.1976
     14  CA       -22.5800  -18.9220  -22.3910 C.3    23  TRP23       0.1640
     15  C        -23.4490  -18.0720  -21.4660 C.2    23  TRP23       0.2290
     16  O        -23.2410  -18.0580  -20.2540 O.2    23  TRP23      -0.2864
     17  CB       -21.2730  -18.2260  -22.7910 C.3    23  TRP23       0.0576
     18  CG       -20.2330  -19.2320  -23.1940 C.ar   23  TRP23       0.0006
     19  CD1      -19.7630  -19.4810  -24.4540 C.ar   23  TRP23       0.0946
     20  CD2      -19.5770  -20.1680  -22.3320 C.ar   23  TRP23       0.0152
     21  NE1      -18.8380  -20.4990  -24.4240 N.ar   23  TRP23      -0.2442
     22  CE2      -18.7010  -20.9350  -23.1310 C.ar   23  TRP23       0.0810
     23  CE3      -19.6300  -20.4220  -20.9550 C.ar   23  TRP23       0.0012
     24  CZ2      -17.9030  -21.9430  -22.6070 C.ar   23  TRP23       0.0191
     25  CZ3      -18.8270  -21.4160  -20.4360 C.ar   23  TRP23       0.0001
     26  CH2      -17.9770  -22.1670  -21.2580 C.ar   23  TRP23       0.0015
     27  N        -17.1120  -22.6670  -16.0210 N.3    33  MET33      -0.1230
     28  CA       -15.9570  -22.3190  -16.8550 C.3    33  MET33       0.1702
     29  C        -15.2970  -23.5640  -17.4190 C.2    33  MET33       0.2592
     30  O        -14.7710  -23.5430  -18.5360 O.2    33  MET33      -0.2718
     31  CB       -14.9100  -21.5430  -16.0440 C.3    33  MET33       0.0401
     32  CG       -15.4160  -20.2760  -15.3590 C.3    33  MET33       0.0596
     33  SD       -16.0280  -19.0280  -16.5060 S.3    33  MET33      -0.1393
     34  CE       -17.8000  -19.2930  -16.4230 C.3    33  MET33       0.0692
     35  N        -15.3080  -24.6380  -16.6350 N.am   34  LEU34      -0.1966
     36  CA       -14.5970  -25.8580  -17.0010 C.3    34  LEU34       0.1728
     37  C        -15.4990  -26.9760  -17.5300 C.2    34  LEU34       0.2616
     38  O        -15.0840  -28.1320  -17.6050 O.2    34  LEU34      -0.2715
     39  CB       -13.7330  -26.3400  -15.8320 C.3    34  LEU34       0.0311
     40  CG       -12.6110  -25.3560  -15.4760 C.3    34  LEU34       0.0022
     41  CD1      -11.6870  -25.9030  -14.3900 C.3    34  LEU34       0.0001
     42  CD2      -11.8110  -24.9760  -16.7150 C.3    34  LEU34       0.0001
     43  N        -16.7260  -26.6210  -17.9020 N.am   35  GLY35      -0.1955
     44  CA       -17.6190  -27.5520  -18.5770 C.3    35  GLY35       0.1869
     45  C        -17.8670  -28.8410  -17.8150 C.2    35  GLY35       0.2309
     46  O        -17.9150  -29.9220  -18.4020 O.2    35  GLY35      -0.2863
     47  N        -15.8410  -29.9880  -15.4540 N.3    37  TYR37      -0.1241
     48  CA       -14.5660  -30.4960  -14.9530 C.3    37  TYR37       0.1605
     49  C        -13.9250  -29.5540  -13.9490 C.2    37  TYR37       0.2264
     50  O        -12.7060  -29.4260  -13.9130 O.2    37  TYR37      -0.2867
     51  CB       -13.5940  -30.7610  -16.1120 C.3    37  TYR37       0.0534
     52  CG       -13.9710  -31.9820  -16.9150 C.ar   37  TYR37      -0.0201
     53  CD1      -13.4700  -33.2310  -16.5820 C.ar   37  TYR37      -0.0009
     54  CD2      -14.8490  -31.8880  -17.9850 C.ar   37  TYR37      -0.0009
     55  CE1      -13.8200  -34.3580  -17.3030 C.ar   37  TYR37       0.0417
     56  CE2      -15.2100  -33.0150  -18.7140 C.ar   37  TYR37       0.0417
     57  CZ       -14.6930  -34.2440  -18.3640 C.ar   37  TYR37       0.1957
     58  OH       -15.0470  -35.3660  -19.0900 O.3    37  TYR37      -0.2866
     59  N        -10.5630  -30.2440  -11.9920 N.3    40  ILE40      -0.1245
     60  CA        -9.2190  -30.2460  -12.5790 C.3    40  ILE40       0.1561
     61  C         -8.5540  -28.8720  -12.5600 C.2    40  ILE40       0.2260
     62  O         -7.4360  -28.7220  -13.0560 O.2    40  ILE40      -0.2867
     63  CB        -9.1750  -30.8130  -14.0350 C.3    40  ILE40       0.0252
     64  CG1       -9.6940  -29.7910  -15.0530 C.3    40  ILE40       0.0019
     65  CG2       -9.9320  -32.1350  -14.1380 C.3    40  ILE40       0.0019
     66  CD1       -9.4680  -30.1990  -16.5180 C.3    40  ILE40       0.0001
     67  N         -8.7730  -21.7820  -23.3760 N.3   139  TRP139     -0.1241
     68  CA       -10.0790  -22.4290  -23.5110 C.3   139  TRP139      0.1605
     69  C        -11.1180  -21.4990  -24.1210 C.2   139  TRP139      0.2264
     70  O        -12.2580  -21.4060  -23.6500 O.2   139  TRP139     -0.2867
     71  CB       -10.5290  -23.0630  -22.1820 C.3   139  TRP139      0.0550
     72  CG        -9.9290  -24.4300  -21.9890 C.ar  139  TRP139      0.0003
     73  CD1       -9.6990  -25.3630  -22.9620 C.ar  139  TRP139      0.0946
     74  CD2       -9.4590  -25.0100  -20.7580 C.ar  139  TRP139      0.0152
     75  NE1       -9.1190  -26.4880  -22.4140 N.ar  139  TRP139     -0.2442
     76  CE2       -8.9660  -26.2970  -21.0650 C.ar  139  TRP139      0.0810
     77  CE3       -9.4200  -24.5720  -19.4310 C.ar  139  TRP139      0.0012
     78  CZ2       -8.4320  -27.1460  -20.0940 C.ar  139  TRP139      0.0191
     79  CZ3       -8.8860  -25.4210  -18.4620 C.ar  139  TRP139      0.0001
     80  CH2       -8.3980  -26.6900  -18.8000 C.ar  139  TRP139      0.0015
     81  N        -13.7720  -20.7200  -30.1580 N.3   143  HIS143     -0.1241
     82  CA       -14.9310  -19.8710  -30.4220 C.3   143  HIS143      0.1621
     83  C        -14.7170  -18.8540  -31.5290 C.2   143  HIS143      0.2264
     84  O        -15.6540  -18.1510  -31.9020 O.2   143  HIS143     -0.2867
     85  CB       -15.4130  -19.1740  -29.1500 C.3   143  HIS143      0.0745
     86  CG       -16.2600  -20.0480  -28.2840 C.ar  143  HIS143      0.0817
     87  ND1      -17.4820  -20.5370  -28.7030 N.ar  143  HIS143     -0.2268
     88  CD2      -16.0590  -20.5460  -27.0440 C.ar  143  HIS143      0.1154
     89  CE1      -18.0030  -21.2810  -27.7450 C.ar  143  HIS143      0.1986
     90  NE2      -17.1590  -21.3080  -26.7280 N.ar  143  HIS143     -0.2212
     91  N         -5.1360  -24.6030  -24.7920 N.3   170  ASP170     -0.1225
     92  CA        -6.4470  -25.0210  -25.2660 C.3   170  ASP170      0.1805
     93  C         -6.5100  -26.4820  -25.6770 C.2   170  ASP170      0.2597
     94  O         -5.4860  -27.1680  -25.7580 O.2   170  ASP170     -0.2718
     95  CB        -6.8830  -24.1360  -26.4390 C.3   170  ASP170      0.1424
     96  CG        -8.3300  -23.6980  -26.3340 C.2   170  ASP170      0.3668
     97  OD1       -9.2070  -24.5740  -26.1790 O.co2 170  ASP170     -0.2456
     98  OD2       -8.5810  -22.4750  -26.3960 O.co2 170  ASP170     -0.2456
     99  N         -7.7320  -26.9410  -25.9390 N.am  171  ASN171     -0.1974
    100  CA        -7.9600  -28.2910  -26.4340 C.3   171  ASN171      0.1688
    101  C         -7.3940  -28.4100  -27.8290 C.2   171  ASN171      0.2292
    102  O         -7.5160  -27.4770  -28.6320 O.2   171  ASN171     -0.2864
    103  CB        -9.4550  -28.5960  -26.5370 C.3   171  ASN171      0.1181
    104  CG       -10.1750  -28.4990  -25.2160 C.2   171  ASN171      0.2629
    105  OD1       -9.6010  -28.7550  -24.1600 O.2   171  ASN171     -0.2716
    106  ND2      -11.4500  -28.1300  -25.2710 N.am  171  ASN171     -0.0877
    107  N        -13.0240  -30.1230  -35.5460 N.3   178  ILE178     -0.1245
    108  CA       -14.2550  -30.7540  -35.0820 C.3   178  ILE178      0.1561
    109  C        -15.1970  -29.7430  -34.4390 C.2   178  ILE178      0.2260
    110  O        -14.8300  -29.0660  -33.4860 O.2   178  ILE178     -0.2867
    111  CB       -13.9380  -31.8610  -34.0610 C.3   178  ILE178      0.0252
    112  CG1      -12.9100  -32.8350  -34.6450 C.3   178  ILE178      0.0019
    113  CG2      -15.2110  -32.5780  -33.6330 C.3   178  ILE178      0.0019
    114  CD1      -12.3270  -33.7880  -33.6330 C.3   178  ILE178      0.0001
    115  N        -18.2900  -28.6560  -32.1540 N.3   180  ASP180     -0.1239
    116  CA       -19.1560  -29.0550  -31.0510 C.3   180  ASP180      0.1674
    117  C        -20.4200  -28.2170  -31.1440 C.2   180  ASP180      0.2266
    118  O        -20.3830  -27.0060  -30.9210 O.2   180  ASP180     -0.2867
    119  CB       -18.4700  -28.7840  -29.7090 C.3   180  ASP180      0.1410
    120  CG       -19.2620  -29.3230  -28.5250 C.2   180  ASP180      0.3668
    121  OD1      -20.3670  -29.8650  -28.7350 O.co2 180  ASP180     -0.2456
    122  OD2      -18.7840  -29.1940  -27.3780 O.co2 180  ASP180     -0.2456
    123  N        -21.8640  -26.1760  -27.6240 N.3   183  ASP183     -0.1239
    124  CA       -21.4690  -24.8190  -27.2610 C.3   183  ASP183      0.1674
    125  C        -21.0900  -23.9380  -28.4500 C.2   183  ASP183      0.2266
    126  O        -20.7390  -22.7750  -28.2640 O.2   183  ASP183     -0.2867
    127  CB       -20.3480  -24.8200  -26.2030 C.3   183  ASP183      0.1410
    128  CG       -19.0660  -25.4950  -26.6790 C.2   183  ASP183      0.3668
    129  OD1      -18.9460  -25.8300  -27.8760 O.co2 183  ASP183     -0.2456
    130  OD2      -18.1520  -25.6660  -25.8370 O.co2 183  ASP183     -0.2456
    131  N        -18.4960  -24.3160  -30.8970 N.3   185  SER185     -0.1217
    132  CA       -17.0630  -24.0580  -30.9220 C.3   185  SER185      0.1889
    133  C        -16.3880  -25.1620  -31.7100 C.2   185  SER185      0.2288
    134  O        -16.9870  -26.2110  -31.9500 O.2   185  SER185     -0.2866
    135  CB       -16.4930  -24.0330  -29.5020 C.3   185  SER185      0.2089
    136  OG       -16.5380  -25.3280  -28.9190 O.3   185  SER185     -0.2183
    137  N        -12.7050  -27.6070  -32.2710 N.3   187  CYS187     -0.1235
    138  CA       -11.4460  -28.0980  -31.7490 C.3   187  CYS187      0.1677
    139  C        -10.5550  -28.4120  -32.9420 C.2   187  CYS187      0.2270
    140  O        -10.9380  -29.1890  -33.8210 O.2   187  CYS187     -0.2867
    141  CB       -11.6750  -29.3540  -30.9190 C.3   187  CYS187      0.0956
    142  SG       -10.2220  -29.8490  -30.0150 S.3   187  CYS187     -0.0801
    143  N         -8.4880  -39.2460  -19.0350 N.3   215  ASP215     -0.1225
    144  CA        -8.1860  -39.8350  -20.3360 C.3   215  ASP215      0.1805
    145  C         -9.2150  -39.5110  -21.4170 C.2   215  ASP215      0.2598
    146  O         -8.8880  -39.4880  -22.6040 O.2   215  ASP215     -0.2718
    147  CB        -8.0600  -41.3580  -20.2160 C.3   215  ASP215      0.1424
    148  CG        -6.7380  -41.7920  -19.6160 C.2   215  ASP215      0.3668
    149  OD1       -5.9760  -40.9220  -19.1440 O.co2 215  ASP215     -0.2456
    150  OD2       -6.4630  -43.0110  -19.6130 O.co2 215  ASP215     -0.2456
    151  N        -10.4530  -39.2660  -21.0050 N.am  216  GLU216     -0.1965
    152  CA       -11.5530  -39.1640  -21.9610 C.3   216  GLU216      0.1733
    153  C        -11.6810  -37.7990  -22.6370 C.2   216  GLU216      0.2616
    154  O        -12.4600  -37.6470  -23.5750 O.2   216  GLU216     -0.2715
    155  CB       -12.8860  -39.5520  -21.3050 C.3   216  GLU216      0.0429
    156  CG       -13.4670  -38.5050  -20.3630 C.3   216  GLU216      0.1163
    157  CD       -12.9630  -38.6350  -18.9340 C.2   216  GLU216      0.3649
    158  OE1      -12.0420  -39.4430  -18.6910 O.co2 216  GLU216     -0.2457
    159  OE2      -13.4930  -37.9180  -18.0560 O.co2 216  GLU216     -0.2457
    160  N        -10.9350  -36.8040  -22.1630 N.am  217  ILE217     -0.1963
    161  CA       -11.0400  -35.4660  -22.7440 C.3   217  ILE217      0.1727
    162  C         -9.9790  -35.2050  -23.8170 C.2   217  ILE217      0.2616
    163  O         -8.9830  -35.9200  -23.9030 O.2   217  ILE217     -0.2715
    164  CB       -11.0100  -34.3450  -21.6580 C.3   217  ILE217      0.0290
    165  CG1       -9.6740  -34.3010  -20.9210 C.3   217  ILE217      0.0022
    166  CG2      -12.1530  -34.5240  -20.6670 C.3   217  ILE217      0.0023
    167  CD1       -9.5410  -33.0880  -20.0170 C.3   217  ILE217      0.0001
    168  N        -10.2170  -34.1910  -24.6460 N.am  218  TYR218     -0.1974
    169  CA        -9.2220  -33.7510  -25.6180 C.3   218  TYR218      0.1639
    170  C         -7.9120  -33.4380  -24.9160 C.2   218  TYR218      0.2290
    171  O         -7.8980  -32.9390  -23.7790 O.2   218  TYR218     -0.2864
    172  CB        -9.6830  -32.4850  -26.3490 C.3   218  TYR218      0.0560
    173  CG       -10.7460  -32.6890  -27.4060 C.ar  218  TYR218     -0.0198
    174  CD1      -10.4860  -33.4290  -28.5530 C.ar  218  TYR218     -0.0009
    175  CD2      -12.0030  -32.1110  -27.2730 C.ar  218  TYR218     -0.0009
    176  CE1      -11.4560  -33.6050  -29.5280 C.ar  218  TYR218      0.0417
    177  CE2      -12.9780  -32.2820  -28.2400 C.ar  218  TYR218      0.0417
    178  CZ       -12.7010  -33.0270  -29.3660 C.ar  218  TYR218      0.1957
    179  OH       -13.6840  -33.1850  -30.3240 O.3   218  TYR218     -0.2866
    180  N         -4.6870  -31.2520  -24.1460 N.3   220  VAL220     -0.1245
    181  CA        -4.5680  -29.8140  -23.9480 C.3   220  VAL220      0.1561
    182  C         -3.1020  -29.4330  -24.0970 C.2   220  VAL220      0.2260
    183  O         -2.2280  -30.0990  -23.5490 O.2   220  VAL220     -0.2867
    184  CB        -5.0890  -29.4170  -22.5490 C.3   220  VAL220      0.0252
    185  CG1       -4.7380  -27.9670  -22.2130 C.3   220  VAL220      0.0019
    186  CG2       -6.5920  -29.6600  -22.4640 C.3   220  VAL220      0.0019
@<TRIPOS>BOND
     1   107   108    1
     2   108   109    1
     3   108   111    1
     4   112   111    1
     5   112   114    1
     6   109   110    2
     7   111   113    1
     8   140   139    2
     9   139   138    1
    10   137   138    1
    11   115   116    1
    12   134   133    2
    13    84    83    2
    14   138   141    1
    15   133   132    1
    16    83    82    1
    17   117   116    1
    18   117   118    2
    19   116   119    1
    20   132   131    1
    21   132   135    1
    22   141   142    1
    23    82    81    1
    24    82    85    1
    25   179   178    1
    26   119   120    1
    27   176   178   ar
    28   176   174   ar
    29   135   136    1
    30   178   177   ar
    31    85    86    1
    32   121   120   ar
    33    87    86   ar
    34    87    89   ar
    35   102   101    2
    36   174   173   ar
    37   120   122   ar
    38   125   126    2
    39   125   124    1
    40    86    88   ar
    41   177   175   ar
    42   129   128   ar
    43   101   100    1
    44    89    90   ar
    45   123   124    1
    46   173   175   ar
    47   173   172    1
    48   124   127    1
    49    88    90   ar
    50   128   127    1
    51   128   130   ar
    52   103   100    1
    53   103   104    1
    54    95    96    1
    55    95    92    1
    56   100    99    1
    57    98    96   ar
    58   172   169    1
    59    96    97   ar
    60    99    93   am
    61    94    93    2
    62    93    92    1
    63   169   170    1
    64   169   168    1
    65     1     2    1
    66     5     2    1
    67     5     6    1
    68   106   104   am
    69    92    91    1
    70   104   105    2
    71   170   171    2
    72     2     3    1
    73   168   162   am
    74     6     7   ar
    75     6     8   ar
    76    19    21   ar
    77    19    18   ar
    78    21    22   ar
    79     7     9   ar
    80   180   181    1
    81    69    70    2
    82    69    68    1
    83   182   181    1
    84   182   183    2
    85     8    10   ar
    86   181   184    1
    87   163   162    2
    88   162   161    1
    89   154   153    2
    90    13     3   am
    91    13    14    1
    92    68    67    1
    93    68    71    1
    94     3     4    2
    95     9    11   ar
    96    18    17    1
    97    18    20   ar
    98    10    11   ar
    99    22    24   ar
   100    22    20   ar
   101    73    75   ar
   102    73    72   ar
   103    11    12    1
   104    17    14    1
   105   161   160    1
   106   161   164    1
   107   153   160   am
   108   153   152    1
   109    24    26   ar
   110   146   145    2
   111   184   186    1
   112   184   185    1
   113    75    76   ar
   114    14    15    1
   115    20    23   ar
   116    71    72    1
   117    72    74   ar
   118   152   155    1
   119   152   151    1
   120   164   165    1
   121   164   166    1
   122    15    16    2
   123   145   151   am
   124   145   144    1
   125   155   156    1
   126    26    25   ar
   127    76    74   ar
   128    76    78   ar
   129    23    25   ar
   130   165   167    1
   131    74    77   ar
   132   156   157    1
   133   144   147    1
   134   144   143    1
   135   147   148    1
   136    78    80   ar
   137   148   150   ar
   138   148   149   ar
   139    77    79   ar
   140    58    57    1
   141   157   158   ar
   142   157   159   ar
   143    80    79   ar
   144    56    57   ar
   145    56    54   ar
   146    44    43    1
   147    44    45    1
   148    30    29    2
   149    46    45    2
   150    57    55   ar
   151    54    52   ar
   152    43    37   am
   153    38    37    2
   154    37    36    1
   155    29    28    1
   156    29    35   am
   157    55    53   ar
   158    36    35    1
   159    36    39    1
   160    52    53   ar
   161    52    51    1
   162    28    31    1
   163    28    27    1
   164    42    40    1
   165    66    64    1
   166    33    34    1
   167    33    32    1
   168    51    48    1
   169    31    32    1
   170    39    40    1
   171    40    41    1
   172    47    48    1
   173    64    63    1
   174    48    49    1
   175    65    63    1
   176    63    60    1
   177    49    50    2
   178    62    61    2
   179    60    61    1
   180    60    59    1
