@<TRIPOS>MOLECULE
tmp/5cvfA00.pdb
 146 140 0 0 0
SMALL
GASTEIGER

@<TRIPOS>ATOM
      1  N         90.8810   22.4840  125.6940 N.3   114  ASN114     -0.1225
      2  CA        89.6820   22.4450  126.5360 C.3   114  ASN114      0.1785
      3  C         89.2180   23.7950  127.0920 C.2   114  ASN114      0.2597
      4  O         89.8630   24.3490  127.9950 O.2   114  ASN114     -0.2718
      5  CB        89.8710   21.4520  127.6870 C.3   114  ASN114      0.1169
      6  CG        88.6500   21.2760  128.5730 C.2   114  ASN114      0.2627
      7  OD1       88.7200   21.3350  129.8130 O.2   114  ASN114     -0.2716
      8  ND2       87.5140   21.0070  127.9650 N.am  114  ASN114     -0.0877
      9  N         88.0570   24.2790  126.5960 N.am  115  THR115     -0.1953
     10  CA        87.3920   25.4980  127.0790 C.3   115  THR115      0.1897
     11  C         87.0010   25.2190  128.5370 C.2   115  THR115      0.2313
     12  O         86.5520   24.1050  128.8250 O.2   115  THR115     -0.2863
     13  CB        86.1230   25.7770  126.2270 C.3   115  THR115      0.1794
     14  OG1       86.4300   25.6840  124.8310 O.3   115  THR115     -0.2208
     15  CG2       85.4870   27.1300  126.5310 C.3   115  THR115      0.0378
     16  N         85.0920   24.6430  131.8980 N.3   117  PHE117     -0.1241
     17  CA        83.7580   24.0670  132.1130 C.3   117  PHE117      0.1605
     18  C         82.7010   25.0990  132.5280 C.2   117  PHE117      0.2264
     19  O         81.7010   25.2280  131.8200 O.2   117  PHE117     -0.2867
     20  CB        83.8150   22.8730  133.0960 C.3   117  PHE117      0.0534
     21  CG        82.5080   22.3910  133.6990 C.ar  117  PHE117     -0.0203
     22  CD1       81.4220   22.0660  132.8880 C.ar  117  PHE117     -0.0042
     23  CD2       82.3850   22.2040  135.0710 C.ar  117  PHE117     -0.0042
     24  CE1       80.2100   21.6540  133.4510 C.ar  117  PHE117     -0.0003
     25  CE2       81.1830   21.7560  135.6280 C.ar  117  PHE117     -0.0003
     26  CZ        80.1060   21.4800  134.8130 C.ar  117  PHE117     -0.0000
     27  N         81.9390   27.4710  129.6550 N.3   120  LEU120     -0.1231
     28  CA        81.1760   26.8410  128.5750 C.3   120  LEU120      0.1693
     29  C         79.7320   26.5060  128.9480 C.2   120  LEU120      0.2592
     30  O         78.8180   26.8290  128.1940 O.2   120  LEU120     -0.2718
     31  CB        81.9020   25.6080  128.0340 C.3   120  LEU120      0.0284
     32  CG        81.4940   25.1720  126.6440 C.3   120  LEU120      0.0019
     33  CD1       81.5770   26.3360  125.6630 C.3   120  LEU120      0.0001
     34  CD2       82.3620   24.0390  126.1600 C.3   120  LEU120      0.0001
     35  N         79.5310   25.8730  130.1090 N.am  121  TYR121     -0.1976
     36  CA        78.2130   25.5310  130.6600 C.3   121  TYR121      0.1639
     37  C         77.3180   26.7910  130.6640 C.2   121  TYR121      0.2290
     38  O         76.1420   26.7150  130.2890 O.2   121  TYR121     -0.2864
     39  CB        78.4060   24.9420  132.0740 C.3   121  TYR121      0.0560
     40  CG        77.1830   24.9270  132.9660 C.ar  121  TYR121     -0.0198
     41  CD1       76.3490   23.8140  133.0190 C.ar  121  TYR121     -0.0009
     42  CD2       76.9170   25.9800  133.8340 C.ar  121  TYR121     -0.0009
     43  CE1       75.2260   23.7900  133.8460 C.ar  121  TYR121      0.0417
     44  CE2       75.8050   25.9650  134.6700 C.ar  121  TYR121      0.0417
     45  CZ        74.9590   24.8700  134.6650 C.ar  121  TYR121      0.1957
     46  OH        73.8850   24.8510  135.5100 O.3   121  TYR121     -0.2866
     47  N         76.2790   27.7400  126.8130 N.3   124  LEU124     -0.1245
     48  CA        75.7220   26.8280  125.8170 C.3   124  LEU124      0.1561
     49  C         74.2990   27.1530  125.4110 C.2   124  LEU124      0.2260
     50  O         73.4340   27.4110  126.2440 O.2   124  LEU124     -0.2867
     51  CB        75.8600   25.3480  126.1970 C.3   124  LEU124      0.0270
     52  CG        77.2930   24.7440  126.0820 C.3   124  LEU124      0.0019
     53  CD1       77.2350   23.2670  125.9200 C.3   124  LEU124      0.0001
     54  CD2       78.0590   25.2660  124.8740 C.3   124  LEU124      0.0001
     55  N         73.9110   22.2660  123.1590 N.3   129  ILE129     -0.1245
     56  CA        73.7030   21.1380  124.0890 C.3   129  ILE129      0.1561
     57  C         73.3560   19.9030  123.2320 C.2   129  ILE129      0.2260
     58  O         73.9760   18.8490  123.3920 O.2   129  ILE129     -0.2867
     59  CB        72.5840   21.4300  125.1110 C.3   129  ILE129      0.0252
     60  CG1       72.9990   22.6140  126.0580 C.3   129  ILE129      0.0019
     61  CG2       72.2680   20.1430  125.9300 C.3   129  ILE129      0.0019
     62  CD1       71.8970   23.1250  126.9360 C.3   129  ILE129      0.0001
     63  N         76.6090   18.7870  121.1940 N.3   132  TYR132     -0.1227
     64  CA        77.6330   18.1300  122.0000 C.3   132  TYR132      0.1736
     65  C         77.1390   16.8350  122.6260 C.2   132  TYR132      0.2595
     66  O         77.9060   15.8900  122.7300 O.2   132  TYR132     -0.2718
     67  CB        78.2230   19.1010  123.0270 C.3   132  TYR132      0.0548
     68  CG        79.0920   20.1730  122.3910 C.ar  132  TYR132     -0.0200
     69  CD1       80.1820   19.8280  121.5880 C.ar  132  TYR132     -0.0009
     70  CD2       78.9020   21.5220  122.6890 C.ar  132  TYR132     -0.0009
     71  CE1       81.0120   20.7990  121.0330 C.ar  132  TYR132      0.0417
     72  CE2       79.7250   22.5090  122.1330 C.ar  132  TYR132      0.0417
     73  CZ        80.7910   22.1370  121.3250 C.ar  132  TYR132      0.1957
     74  OH        81.6260   23.0830  120.7830 O.3   132  TYR132     -0.2866
     75  N         75.8560   16.7570  122.9740 N.am  133  MET133     -0.1979
     76  CA        75.3470   15.5130  123.5140 C.3   133  MET133      0.1605
     77  C         75.4050   14.4020  122.4530 C.2   133  MET133      0.2287
     78  O         75.7010   13.2570  122.7860 O.2   133  MET133     -0.2864
     79  CB        73.9330   15.7230  124.0390 C.3   133  MET133      0.0413
     80  CG        73.9280   16.5430  125.3260 C.3   133  MET133      0.0598
     81  SD        74.2810   15.4690  126.7220 S.3   133  MET133     -0.1393
     82  CE        72.8890   14.3010  126.5410 C.3   133  MET133      0.0692
     83  N         78.9580   13.1620  122.2960 N.3   136  ILE136     -0.1245
     84  CA        79.2270   12.2350  123.4220 C.3   136  ILE136      0.1561
     85  C         78.6390   10.8630  123.1070 C.2   136  ILE136      0.2260
     86  O         79.2720    9.8310  123.3520 O.2   136  ILE136     -0.2867
     87  CB        78.7350   12.7500  124.7870 C.3   136  ILE136      0.0252
     88  CG1       79.4670   14.0480  125.1430 C.3   136  ILE136      0.0019
     89  CG2       78.9640   11.6790  125.9090 C.3   136  ILE136      0.0019
     90  CD1       78.7140   14.9280  126.2020 C.3   136  ILE136      0.0001
     91  N         81.0840   15.9420  133.3900 N.3   155  PRO155     -0.2102
     92  CA        81.5850   17.0480  132.5430 C.3   155  PRO155      0.1504
     93  C         83.1130   17.2130  132.5080 C.2   155  PRO155      0.2575
     94  O         83.6670   17.5310  131.4510 O.2   155  PRO155     -0.2718
     95  CB        80.9010   18.2900  133.1420 C.3   155  PRO155      0.0282
     96  CG        79.6820   17.7800  133.8250 C.3   155  PRO155      0.0208
     97  CD        80.0020   16.3920  134.2980 C.3   155  PRO155      0.0893
     98  N         83.7920   16.9660  133.6440 N.am  156  HIS156     -0.1976
     99  CA        85.2510   17.0920  133.7150 C.3   156  HIS156      0.1656
    100  C         85.9730   16.0790  132.8290 C.2   156  HIS156      0.2291
    101  O         87.1400   16.2990  132.4800 O.2   156  HIS156     -0.2864
    102  CB        85.7580   17.0500  135.1690 C.3   156  HIS156      0.0771
    103  CG        85.6920   18.3730  135.8720 C.ar  156  HIS156      0.0820
    104  ND1       85.5210   18.4540  137.2540 N.ar  156  HIS156     -0.2267
    105  CD2       85.7730   19.6290  135.3690 C.ar  156  HIS156      0.1154
    106  CE1       85.5300   19.7490  137.5390 C.ar  156  HIS156      0.1986
    107  NE2       85.6550   20.4930  136.4390 N.ar  156  HIS156     -0.2212
    108  N         84.9280   15.2370  129.7520 N.3   158  VAL158     -0.1231
    109  CA        84.5350   15.5380  128.3790 C.3   158  VAL158      0.1692
    110  C         85.3110   16.7930  127.9810 C.2   158  VAL158      0.2592
    111  O         85.0010   17.8860  128.4570 O.2   158  VAL158     -0.2718
    112  CB        82.9930   15.7120  128.2120 C.3   158  VAL158      0.0266
    113  CG1       82.6370   16.0670  126.7740 C.3   158  VAL158      0.0020
    114  CG2       82.2490   14.4440  128.6470 C.3   158  VAL158      0.0020
    115  N         86.3970   16.6190  127.2180 N.am  159  MET159     -0.1965
    116  CA        87.1900   17.7550  126.7530 C.3   159  MET159      0.1736
    117  C         86.5200   18.4030  125.5340 C.2   159  MET159      0.2616
    118  O         86.1710   17.7100  124.5690 O.2   159  MET159     -0.2715
    119  CB        88.6370   17.3370  126.4270 C.3   159  MET159      0.0427
    120  CG        89.4300   16.8030  127.6170 C.3   159  MET159      0.0599
    121  SD        89.7750   18.0320  128.8910 S.3   159  MET159     -0.1393
    122  CE        88.4390   17.7810  129.9730 C.3   159  MET159      0.0692
    123  N         86.3470   19.7250  125.5660 N.am  160  ILE160     -0.1977
    124  CA        85.7320   20.4460  124.4510 C.3   160  ILE160      0.1596
    125  C         86.5240   21.6770  124.0400 C.2   160  ILE160      0.2287
    126  O         86.7290   22.5960  124.8310 O.2   160  ILE160     -0.2864
    127  CB        84.2230   20.7960  124.6570 C.3   160  ILE160      0.0276
    128  CG1       83.3570   19.5280  124.7890 C.3   160  ILE160      0.0022
    129  CG2       83.6960   21.6650  123.4900 C.3   160  ILE160      0.0022
    130  CD1       82.1030   19.7080  125.6210 C.3   160  ILE160      0.0001
    131  N         74.1080   14.6600  133.3330 N.3   217  MET217     -0.1245
    132  CA        74.7170   15.7940  132.6300 C.3   217  MET217      0.1570
    133  C         73.6620   16.5800  131.8530 C.2   217  MET217      0.2261
    134  O         73.5990   17.8000  131.9750 O.2   217  MET217     -0.2867
    135  CB        75.8230   15.3020  131.6720 C.3   217  MET217      0.0387
    136  CG        77.0170   14.7740  132.4060 C.3   217  MET217      0.0595
    137  SD        78.3890   14.3460  131.3000 S.3   217  MET217     -0.1393
    138  CE        78.3900   15.7070  130.2240 C.3   217  MET217      0.0692
    139  N         72.4880   20.6700  132.4410 N.3   221  MET221     -0.1245
    140  CA        72.6130   21.6370  131.3510 C.3   221  MET221      0.1570
    141  C         71.2890   22.2730  130.9660 C.2   221  MET221      0.2261
    142  O         71.2020   23.5030  131.0070 O.2   221  MET221     -0.2867
    143  CB        73.2550   20.9770  130.1290 C.3   221  MET221      0.0387
    144  CG        74.7460   20.9190  130.2080 C.3   221  MET221      0.0595
    145  SD        75.3710   20.1010  128.7440 S.3   221  MET221     -0.1393
    146  CE        75.6470   18.5440  129.3880 C.3   221  MET221      0.0692
@<TRIPOS>BOND
     1    74    73    1
     2    71    73   ar
     3    71    69   ar
     4    63    64    1
     5    73    72   ar
     6    69    68   ar
     7    64    65    1
     8    64    67    1
     9    72    70   ar
    10    83    84    1
    11    68    70   ar
    12    68    67    1
    13    77    78    2
    14    77    76    1
    15    65    66    2
    16    65    75   am
    17    75    76    1
    18    85    86    2
    19    85    84    1
    20    55    56    1
    21    57    58    2
    22    57    56    1
    23    84    87    1
    24   129   127    1
    25    76    79    1
    26    79    80    1
    27   125   124    1
    28   125   126    2
    29    56    59    1
    30   124   127    1
    31   124   123    1
    32   118   117    2
    33   127   128    1
    34    87    88    1
    35    87    89    1
    36   128   130    1
    37    14    13    1
    38    54    52    1
    39    59    61    1
    40    59    60    1
    41    88    90    1
    42    80    81    1
    43    49    48    1
    44    49    50    2
    45   117   123   am
    46   117   116    1
    47    33    32    1
    48     1     2    1
    49    48    51    1
    50    48    47    1
    51    53    52    1
    52    60    62    1
    53    52    51    1
    54    34    32    1
    55    13    15    1
    56    13    10    1
    57   119   116    1
    58   119   120    1
    59     2     3    1
    60     2     5    1
    61    82    81    1
    62     9    10    1
    63     9     3   am
    64    32    31    1
    65   116   115    1
    66   113   112    1
    67    10    11    1
    68     3     4    2
    69   115   110   am
    70   120   121    1
    71     5     6    1
    72     8     6   am
    73   110   109    1
    74   110   111    2
    75    31    28    1
    76    30    29    2
    77   112   109    1
    78   112   114    1
    79   109   108    1
    80    11    12    2
    81     6     7    2
    82    28    29    1
    83    28    27    1
    84   145   146    1
    85   145   144    1
    86   121   122    1
    87    29    35   am
    88    35    36    1
    89   143   144    1
    90   143   140    1
    91   138   137    1
    92    38    37    2
    93    36    37    1
    94    36    39    1
    95   141   142    2
    96   141   140    1
    97   137   136    1
    98   140   139    1
    99    94    93    2
   100   135   136    1
   101   135   132    1
   102    19    18    2
   103   133   134    2
   104   133   132    1
   105    16    17    1
   106    39    40    1
   107    17    18    1
   108    17    20    1
   109   101   100    2
   110    93    92    1
   111    93    98   am
   112    92    95    1
   113    92    91    1
   114   132   131    1
   115   100    99    1
   116    22    24   ar
   117    22    21   ar
   118    40    41   ar
   119    40    42   ar
   120    41    43   ar
   121    20    21    1
   122    95    96    1
   123    91    97    1
   124    24    26   ar
   125    98    99    1
   126    21    23   ar
   127    99   102    1
   128    96    97    1
   129    42    44   ar
   130    43    45   ar
   131    45    44   ar
   132    45    46    1
   133    26    25   ar
   134    23    25   ar
   135   102   103    1
   136   105   103   ar
   137   105   107   ar
   138   103   104   ar
   139   107   106   ar
   140   104   106   ar
