@<TRIPOS>MOLECULE
tmp/5cvkA00.pdb
 142 142 0 0 0
SMALL
GASTEIGER

@<TRIPOS>ATOM
      1  N         -6.1500  -15.9980    2.5060 N.3    42  ALA42      -0.1231
      2  CA        -5.4760  -14.7880    1.9570 C.3    42  ALA42       0.1694
      3  C         -4.9000  -15.0820    0.5880 C.2    42  ALA42       0.2592
      4  O         -4.2450  -14.2200   -0.0020 O.2    42  ALA42      -0.2718
      5  CB        -4.3690  -14.3030    2.9020 C.3    42  ALA42       0.0304
      6  N         -5.0800  -16.3200    0.1190 N.am   43  HIS43      -0.1962
      7  CA        -4.4990  -16.8210   -1.1230 C.3    43  HIS43       0.1787
      8  C         -2.9930  -16.7070   -1.1140 C.2    43  HIS43       0.2621
      9  O         -2.3890  -16.3660   -2.1460 O.2    43  HIS43      -0.2715
     10  CB        -5.1140  -16.1090   -2.3460 C.3    43  HIS43       0.0785
     11  CG        -6.5820  -16.3460   -2.4650 C.ar   43  HIS43       0.0821
     12  ND1       -7.1100  -17.1190   -3.4700 N.ar   43  HIS43      -0.2267
     13  CD2       -7.6080  -16.0700   -1.6270 C.ar   43  HIS43       0.1154
     14  CE1       -8.4200  -17.2070   -3.3040 C.ar   43  HIS43       0.1986
     15  NE2       -8.7490  -16.5470   -2.2090 N.ar   43  HIS43      -0.2212
     16  N         -2.3510  -16.9740    0.0290 N.am   44  GLY44      -0.1940
     17  CA        -0.9030  -16.8650    0.0350 C.3    44  GLY44       0.2014
     18  C         -0.2040  -18.0720   -0.4870 C.2    44  GLY44       0.2639
     19  O         -0.8250  -19.1180   -0.6340 O.2    44  GLY44      -0.2714
     20  N          1.1120  -17.9650   -0.6620 N.am   45  VAL45      -0.1963
     21  CA         1.9320  -19.1170   -0.9120 C.3    45  VAL45       0.1727
     22  C          2.8570  -19.4630    0.2920 C.2    45  VAL45       0.2616
     23  O          3.4960  -20.5180    0.3170 O.2    45  VAL45      -0.2715
     24  CB         2.7740  -18.9700   -2.2190 C.3    45  VAL45       0.0290
     25  CG1        1.8260  -18.9110   -3.4610 C.3    45  VAL45       0.0023
     26  CG2        3.7030  -17.7460   -2.1330 C.3    45  VAL45       0.0023
     27  N          3.0080  -18.5240    1.2100 N.am   46  GLY46      -0.1955
     28  CA         3.7710  -18.8080    2.4010 C.3    46  GLY46       0.1869
     29  C          3.2730  -17.9080    3.4890 C.2    46  GLY46       0.2309
     30  O          2.6840  -16.8310    3.2180 O.2    46  GLY46      -0.2863
     31  N         -0.5390  -14.7750   -7.3010 N.3    66  ARG66      -0.1231
     32  CA        -0.6650  -15.9030   -8.2260 C.3    66  ARG66       0.1694
     33  C          0.6110  -15.9600   -9.0370 C.2    66  ARG66       0.2592
     34  O          1.0040  -14.9790   -9.6680 O.2    66  ARG66      -0.2718
     35  CB        -1.9000  -15.7810   -9.1230 C.3    66  ARG66       0.0321
     36  CG        -3.1380  -16.1190   -8.3360 C.3    66  ARG66       0.0489
     37  CD        -3.3250  -17.6110   -8.1830 C.3    66  ARG66       0.2205
     38  NE        -3.2940  -18.3420   -9.4410 N.pl3  66  ARG66      -0.0865
     39  CZ        -2.4080  -19.2960   -9.7320 C.cat  66  ARG66       0.5346
     40  NH1       -1.4440  -19.6370   -8.8690 N.pl3  66  ARG66       0.1354
     41  NH2       -2.4860  -19.8840  -10.9400 N.pl3  66  ARG66       0.1354
     42  N          1.2760  -17.1080   -8.9880 N.am   67  TYR67      -0.1976
     43  CA         2.6280  -17.2420   -9.5340 C.3    67  TYR67       0.1639
     44  C          2.7270  -18.3040  -10.6710 C.2    67  TYR67       0.2290
     45  O          3.0840  -19.4820  -10.4420 O.2    67  TYR67      -0.2864
     46  CB         3.6190  -17.5080   -8.3950 C.3    67  TYR67       0.0560
     47  CG         3.7670  -16.3560   -7.3920 C.ar   67  TYR67      -0.0198
     48  CD1        4.8090  -15.3990   -7.5510 C.ar   67  TYR67      -0.0009
     49  CD2        2.8890  -16.2170   -6.2890 C.ar   67  TYR67      -0.0009
     50  CE1        4.9830  -14.3480   -6.6600 C.ar   67  TYR67       0.0417
     51  CE2        3.0580  -15.1620   -5.3840 C.ar   67  TYR67       0.0417
     52  CZ         4.1190  -14.2330   -5.5760 C.ar   67  TYR67       0.1957
     53  OH         4.3190  -13.1570   -4.7230 O.3    67  TYR67      -0.2866
     54  N          9.8900  -12.0070   -8.7650 N.3    94  TRP94      -0.1227
     55  CA         8.8410  -11.1840   -8.1580 C.3    94  TRP94       0.1737
     56  C          8.4830  -11.7270   -6.7780 C.2    94  TRP94       0.2595
     57  O          8.2530  -12.9190   -6.6570 O.2    94  TRP94      -0.2718
     58  CB         7.5700  -11.1940   -9.0540 C.3    94  TRP94       0.0564
     59  CG         7.7770  -10.3460  -10.2600 C.ar   94  TRP94       0.0003
     60  CD1        8.0350  -10.7660  -11.5550 C.ar   94  TRP94       0.0946
     61  CD2        7.9100   -8.9030  -10.2590 C.ar   94  TRP94       0.0152
     62  NE1        8.2140   -9.6590  -12.3670 N.ar   94  TRP94      -0.2442
     63  CE2        8.1570   -8.5100  -11.6000 C.ar   94  TRP94       0.0810
     64  CE3        7.7870   -7.9160   -9.2570 C.ar   94  TRP94       0.0012
     65  CZ2        8.2820   -7.1680  -11.9740 C.ar   94  TRP94       0.0191
     66  CZ3        7.9170   -6.5880   -9.6200 C.ar   94  TRP94       0.0001
     67  CH2        8.1760   -6.2190  -10.9770 C.ar   94  TRP94       0.0015
     68  N          8.3760  -10.8500   -5.7800 N.am   95  GLU95      -0.1965
     69  CA         7.7610  -11.2170   -4.4660 C.3    95  GLU95       0.1733
     70  C          6.7670  -10.1540   -4.0280 C.2    95  GLU95       0.2617
     71  O          6.9720   -8.9510   -4.3350 O.2    95  GLU95      -0.2715
     72  CB         8.8420  -11.3200   -3.3970 C.3    95  GLU95       0.0429
     73  CG         9.8730  -12.3650   -3.7940 C.3    95  GLU95       0.1163
     74  CD        10.8870  -12.6200   -2.7130 C.2    95  GLU95       0.3649
     75  OE1       10.5890  -12.3090   -1.5300 O.co2  95  GLU95      -0.2457
     76  OE2       11.9880  -13.1050   -3.0290 O.co2  95  GLU95      -0.2457
     77  N          5.6730  -10.6050   -3.3940 N.am   96  GLY96      -0.1940
     78  CA         4.7820   -9.7610   -2.5880 C.3    96  GLY96       0.2014
     79  C          4.7890  -10.3180   -1.1710 C.2    96  GLY96       0.2639
     80  O          5.5560  -11.2270   -0.8780 O.2    96  GLY96      -0.2714
     81  N          3.9650   -9.7820   -0.2840 N.am   97  CYS97      -0.1953
     82  CA         3.9440  -10.2340    1.1320 C.3    97  CYS97       0.1843
     83  C          2.5850   -9.8440    1.6010 C.2    97  CYS97       0.2625
     84  O          2.1440   -8.6910    1.4220 O.2    97  CYS97      -0.2714
     85  CB         5.0720   -9.5830    1.9380 C.3    97  CYS97       0.0997
     86  SG         5.1260  -10.0390    3.6040 S.3    97  CYS97      -0.0797
     87  N          1.8970  -10.7680    2.2720 N.am   98  LEU98      -0.1977
     88  CA         0.5650  -10.4450    2.8460 C.3    98  LEU98       0.1596
     89  C          0.6370   -9.3610    3.9200 C.2    98  LEU98       0.2287
     90  O         -0.3720   -8.7670    4.2560 O.2    98  LEU98      -0.2864
     91  CB        -0.1020  -11.7330    3.4270 C.3    98  LEU98       0.0297
     92  CG        -0.2020  -12.8950    2.4410 C.3    98  LEU98       0.0022
     93  CD1       -0.5650  -14.2270    3.1000 C.3    98  LEU98       0.0001
     94  CD2       -1.1890  -12.5250    1.3190 C.3    98  LEU98       0.0001
     95  N         11.4890  -21.1730   -7.2170 N.3   132  PHE132     -0.1241
     96  CA        10.4290  -20.5390   -6.4450 C.3   132  PHE132      0.1605
     97  C         10.2380  -21.1930   -5.0420 C.2   132  PHE132      0.2264
     98  O          9.9460  -20.5190   -4.0550 O.2   132  PHE132     -0.2867
     99  CB         9.1190  -20.5330   -7.2290 C.3   132  PHE132      0.0534
    100  CG         8.0580  -19.6820   -6.5740 C.ar  132  PHE132     -0.0203
    101  CD1        8.1220  -18.2920   -6.6570 C.ar  132  PHE132     -0.0042
    102  CD2        6.9900  -20.2710   -5.8920 C.ar  132  PHE132     -0.0042
    103  CE1        7.1490  -17.5000   -6.0630 C.ar  132  PHE132     -0.0003
    104  CE2        6.0110  -19.4950   -5.2900 C.ar  132  PHE132     -0.0003
    105  CZ         6.0980  -18.1120   -5.3600 C.ar  132  PHE132     -0.0000
    106  N         12.7990  -19.7960   -2.9920 N.3   135  ARG135     -0.1231
    107  CA        12.5910  -18.3590   -2.7150 C.3   135  ARG135      0.1694
    108  C         11.5880  -18.2030   -1.6070 C.2   135  ARG135      0.2591
    109  O         11.7130  -17.3410   -0.7000 O.2   135  ARG135     -0.2718
    110  CB        12.0790  -17.6470   -4.0470 C.3   135  ARG135      0.0321
    111  CG        11.3480  -16.3060   -3.8650 C.3   135  ARG135      0.0489
    112  CD        10.8970  -15.7560   -5.2680 C.3   135  ARG135      0.2205
    113  NE        12.0310  -15.7830   -6.2160 N.pl3 135  ARG135     -0.0865
    114  CZ        13.0280  -14.8920   -6.2770 C.cat 135  ARG135      0.5346
    115  NH1       13.0110  -13.7970   -5.5040 N.pl3 135  ARG135      0.1354
    116  NH2       14.0500  -15.0710   -7.1360 N.pl3 135  ARG135      0.1354
    117  N         10.5200  -19.0120   -1.7030 N.am  136  VAL136     -0.1980
    118  CA         9.4490  -18.9200   -0.7150 C.3   136  VAL136      0.1595
    119  C         10.0210  -19.1860    0.6980 C.2   136  VAL136      0.2287
    120  O          9.7670  -18.4290    1.6670 O.2   136  VAL136     -0.2864
    121  CB         8.2720  -19.8760   -0.9700 C.3   136  VAL136      0.0276
    122  CG1        7.2850  -19.8050    0.2500 C.3   136  VAL136      0.0022
    123  CG2        7.4890  -19.4640   -2.2080 C.3   136  VAL136      0.0022
    124  N         12.1920  -16.2540    1.9110 N.3   139  HIS139     -0.1226
    125  CA        11.3290  -15.0910    2.2490 C.3   139  HIS139      0.1752
    126  C         10.6550  -15.3160    3.6070 C.2   139  HIS139      0.2595
    127  O         10.6390  -14.4230    4.4540 O.2   139  HIS139     -0.2718
    128  CB        10.2540  -14.9610    1.1470 C.3   139  HIS139      0.0759
    129  CG         9.1400  -13.9850    1.4580 C.ar  139  HIS139      0.0818
    130  ND1        8.8620  -12.8900    0.6660 N.ar  139  HIS139     -0.2268
    131  CD2        8.1860  -13.9950    2.4370 C.ar  139  HIS139      0.1154
    132  CE1        7.8000  -12.2480    1.1710 C.ar  139  HIS139      0.1986
    133  NE2        7.3540  -12.9170    2.2290 N.ar  139  HIS139     -0.2212
    134  N         10.0900  -16.5120    3.8160 N.am  140  GLU140     -0.1979
    135  CA         9.4610  -16.7630    5.1230 C.3   140  GLU140      0.1602
    136  C         10.5040  -16.7900    6.2400 C.2   140  GLU140      0.2287
    137  O         10.2450  -16.3210    7.3080 O.2   140  GLU140     -0.2864
    138  CB         8.6380  -18.0420    5.1050 C.3   140  GLU140      0.0415
    139  CG         7.3980  -18.0290    4.1970 C.3   140  GLU140      0.1163
    140  CD         6.5950  -16.7600    4.2500 C.2   140  GLU140      0.3649
    141  OE1        6.3740  -16.2080    5.3450 O.co2 140  GLU140     -0.2457
    142  OE2        6.1290  -16.3190    3.1760 O.co2 140  GLU140     -0.2457
@<TRIPOS>BOND
     1    62    63   ar
     2    62    60   ar
     3    65    63   ar
     4    65    67   ar
     5    63    61   ar
     6    60    59   ar
     7    67    66   ar
     8    41    39    1
     9    44    45    2
    10    44    43    1
    11    59    61   ar
    12    59    58    1
    13    61    64   ar
    14    39    38    2
    15    39    40    1
    16    34    33    2
    17    66    64   ar
    18    43    42    1
    19    43    46    1
    20    38    37    1
    21    35    36    1
    22    35    32    1
    23    58    55    1
    24    33    42   am
    25    33    32    1
    26    54    55    1
    27    46    47    1
    28    36    37    1
    29    32    31    1
    30    55    56    1
    31    48    47   ar
    32    48    50   ar
    33    47    49   ar
    34    99   100    1
    35    99    96    1
    36    95    96    1
    37   116   114    1
    38    56    57    2
    39    56    68   am
    40    50    52   ar
    41   101   100   ar
    42   101   103   ar
    43   100   102   ar
    44    96    97    1
    45    49    51   ar
    46   114   113    2
    47   114   115    1
    48   113   112    1
    49   103   105   ar
    50   102   104   ar
    51    68    69    1
    52    52    51   ar
    53    52    53    1
    54   105   104   ar
    55   112   111    1
    56    97    98    2
    57    69    70    1
    58    69    72    1
    59    71    70    2
    60   110   111    1
    61   110   107    1
    62    70    77   am
    63    73    72    1
    64    73    74    1
    65    12    14   ar
    66    12    11   ar
    67    25    24    1
    68    77    78    1
    69    14    15   ar
    70    76    74   ar
    71   106   107    1
    72   107   108    1
    73    74    75   ar
    74    78    79    1
    75    11    10    1
    76    11    13   ar
    77    10     7    1
    78    24    26    1
    79    24    21    1
    80    15    13   ar
    81   123   121    1
    82     9     8    2
    83   117   108   am
    84   117   118    1
    85   108   109    2
    86    79    80    2
    87    79    81   am
    88     7     8    1
    89     7     6    1
    90     8    16   am
    91   121   118    1
    92   121   122    1
    93    21    20    1
    94    21    22    1
    95   118   119    1
    96    20    18   am
    97    19    18    2
    98    18    17    1
    99    81    82    1
   100     4     3    2
   101    16    17    1
   102     6     3   am
   103    22    23    2
   104    22    27   am
   105     3     2    1
   106   130   132   ar
   107   130   129   ar
   108   119   120    2
   109    82    83    1
   110    82    85    1
   111   128   129    1
   112   128   125    1
   113   132   133   ar
   114    27    28    1
   115    94    92    1
   116    84    83    2
   117   129   131   ar
   118    83    87   am
   119   124   125    1
   120    85    86    1
   121     2     1    1
   122     2     5    1
   123   133   131   ar
   124   125   126    1
   125    87    88    1
   126    28    29    1
   127    92    93    1
   128    92    91    1
   129    88    91    1
   130    88    89    1
   131   142   140   ar
   132    30    29    2
   133   126   134   am
   134   126   127    2
   135   134   135    1
   136    89    90    2
   137   139   140    1
   138   139   138    1
   139   140   141   ar
   140   138   135    1
   141   135   136    1
   142   136   137    2
