@<TRIPOS>MOLECULE
tmp/5cvpA00.pdb
 119 116 0 0 0
SMALL
GASTEIGER

@<TRIPOS>ATOM
      1  N          0.9480  -17.8040   -0.6110 N.3    45  VAL45      -0.1231
      2  CA         1.7010  -19.0180   -0.7860 C.3    45  VAL45       0.1692
      3  C          2.6240  -19.3450    0.4310 C.2    45  VAL45       0.2592
      4  O          3.2150  -20.4270    0.4720 O.2    45  VAL45      -0.2718
      5  CB         2.5430  -19.0550   -2.0880 C.3    45  VAL45       0.0266
      6  CG1        1.6210  -18.9540   -3.3550 C.3    45  VAL45       0.0020
      7  CG2        3.5850  -17.9580   -2.0210 C.3    45  VAL45       0.0020
      8  N          2.8010  -18.4070    1.3460 N.am   46  GLY46      -0.1957
      9  CA         3.6250  -18.6730    2.5390 C.3    46  GLY46       0.1869
     10  C          3.0320  -17.8110    3.6030 C.2    46  GLY46       0.2309
     11  O          2.4300  -16.7720    3.3080 O.2    46  GLY46      -0.2863
     12  N          9.9140  -12.0160   -8.7300 N.3    91  TRP91      -0.1227
     13  CA         8.8650  -11.1720   -8.1590 C.3    91  TRP91       0.1737
     14  C          8.5270  -11.7020   -6.7600 C.2    91  TRP91       0.2595
     15  O          8.3620  -12.9030   -6.6170 O.2    91  TRP91      -0.2718
     16  CB         7.5790  -11.1970   -9.0150 C.3    91  TRP91       0.0564
     17  CG         7.7340  -10.3280  -10.2510 C.ar   91  TRP91       0.0003
     18  CD1        7.9670  -10.7510  -11.5610 C.ar   91  TRP91       0.0946
     19  CD2        7.8670   -8.8900  -10.2570 C.ar   91  TRP91       0.0152
     20  NE1        8.1390   -9.6420  -12.3740 N.ar   91  TRP91      -0.2442
     21  CE2        8.0870   -8.4950  -11.6100 C.ar   91  TRP91       0.0810
     22  CE3        7.7580   -7.8960   -9.2580 C.ar   91  TRP91       0.0012
     23  CZ2        8.1980   -7.1550  -11.9870 C.ar   91  TRP91       0.0191
     24  CZ3        7.8340   -6.5670   -9.6390 C.ar   91  TRP91       0.0001
     25  CH2        8.0910   -6.2090  -10.9830 C.ar   91  TRP91       0.0015
     26  N          8.4270  -10.8060   -5.7740 N.am   92  GLU92      -0.1965
     27  CA         7.9210  -11.1840   -4.4410 C.3    92  GLU92       0.1733
     28  C          6.8710  -10.2170   -3.9830 C.2    92  GLU92       0.2617
     29  O          6.9010   -9.0150   -4.3430 O.2    92  GLU92      -0.2715
     30  CB         9.0780  -11.2160   -3.4410 C.3    92  GLU92       0.0429
     31  CG        10.0330  -12.3570   -3.7590 C.3    92  GLU92       0.1163
     32  CD        11.0650  -12.5580   -2.6690 C.2    92  GLU92       0.3649
     33  OE1       10.8520  -12.1670   -1.4820 O.co2  92  GLU92      -0.2457
     34  OE2       12.1210  -13.1040   -2.9730 O.co2  92  GLU92      -0.2457
     35  N          5.8560  -10.7230   -3.2650 N.am   93  GLY93      -0.1940
     36  CA         4.9550   -9.8140   -2.5950 C.3    93  GLY93       0.2014
     37  C          4.7590  -10.3860   -1.1890 C.2    93  GLY93       0.2639
     38  O          5.3900  -11.3860   -0.8190 O.2    93  GLY93      -0.2714
     39  N          3.8650   -9.8270   -0.4280 N.am   94  CYS94      -0.1967
     40  CA         3.7900  -10.2630    1.0040 C.3    94  CYS94       0.1712
     41  C          2.4390   -9.8610    1.5010 C.2    94  CYS94       0.2296
     42  O          2.0060   -8.7610    1.2800 O.2    94  CYS94      -0.2864
     43  CB         4.8910   -9.6040    1.8210 C.3    94  CYS94       0.0983
     44  SG         5.0030  -10.1460    3.6080 S.3    94  CYS94      -0.0798
     45  N          1.4340   -4.5100   -3.0880 N.3   100  LEU100     -0.1231
     46  CA         2.7420   -4.2050   -3.6810 C.3   100  LEU100      0.1693
     47  C          3.5120   -5.4360   -4.1110 C.2   100  LEU100      0.2591
     48  O          3.2270   -6.5110   -3.6520 O.2   100  LEU100     -0.2718
     49  CB         3.6410   -3.3550   -2.7720 C.3   100  LEU100      0.0284
     50  CG         3.0150   -1.9660   -2.5390 C.3   100  LEU100      0.0019
     51  CD1        3.1280   -1.6460   -1.0950 C.3   100  LEU100      0.0001
     52  CD2        3.5700   -0.8190   -3.3820 C.3   100  LEU100      0.0001
     53  N          4.5130   -5.2450   -4.9720 N.am  101  ARG101     -0.1980
     54  CA         5.5240   -6.2620   -5.2340 C.3   101  ARG101      0.1597
     55  C          6.8150   -5.6420   -5.6970 C.2   101  ARG101      0.2287
     56  O          6.8600   -4.4360   -6.0540 O.2   101  ARG101     -0.2864
     57  CB         5.0330   -7.3390   -6.2220 C.3   101  ARG101      0.0334
     58  CG         4.4900   -6.8430   -7.5350 C.3   101  ARG101      0.0492
     59  CD         4.1250   -7.9960   -8.4590 C.3   101  ARG101      0.2205
     60  NE         3.1840   -7.5430   -9.4960 N.pl3 101  ARG101     -0.0865
     61  CZ         3.5250   -7.1440  -10.7320 C.cat 101  ARG101      0.5346
     62  NH1        2.5720   -6.7310  -11.5750 N.pl3 101  ARG101      0.1354
     63  NH2        4.7750   -7.1760  -11.1650 N.pl3 101  ARG101      0.1354
     64  N         11.3490  -21.1600   -7.3060 N.3   129  PHE129     -0.1241
     65  CA        10.2520  -20.5430   -6.5330 C.3   129  PHE129      0.1605
     66  C         10.1040  -21.2170   -5.1180 C.2   129  PHE129      0.2264
     67  O          9.8710  -20.5390   -4.1380 O.2   129  PHE129     -0.2867
     68  CB         8.9360  -20.6110   -7.3230 C.3   129  PHE129      0.0534
     69  CG         7.8380  -19.7500   -6.7260 C.ar  129  PHE129     -0.0203
     70  CD1        7.9300  -18.3570   -6.7640 C.ar  129  PHE129     -0.0042
     71  CD2        6.7060  -20.3280   -6.1400 C.ar  129  PHE129     -0.0042
     72  CE1        6.9290  -17.5470   -6.2140 C.ar  129  PHE129     -0.0003
     73  CE2        5.7160  -19.5300   -5.5670 C.ar  129  PHE129     -0.0003
     74  CZ         5.8200  -18.1550   -5.5790 C.ar  129  PHE129     -0.0000
     75  N         12.7100  -19.8250   -3.0270 N.3   132  ARG132     -0.1231
     76  CA        12.4120  -18.4090   -2.7660 C.3   132  ARG132      0.1694
     77  C         11.3890  -18.2300   -1.6610 C.2   132  ARG132      0.2591
     78  O         11.5510  -17.3670   -0.7560 O.2   132  ARG132     -0.2718
     79  CB        11.9370  -17.6930   -4.0830 C.3   132  ARG132      0.0321
     80  CG        11.3360  -16.2760   -3.8910 C.3   132  ARG132      0.0489
     81  CD        10.8930  -15.7250   -5.2870 C.3   132  ARG132      0.2205
     82  NE        12.0190  -15.7970   -6.2790 N.pl3 132  ARG132     -0.0865
     83  CZ        13.0320  -14.9190   -6.3260 C.cat 132  ARG132      0.5346
     84  NH1       13.0390  -13.8900   -5.4900 N.pl3 132  ARG132      0.1354
     85  NH2       14.0380  -15.0430   -7.2200 N.pl3 132  ARG132      0.1354
     86  N         10.3110  -19.0050   -1.7500 N.am  133  VAL133     -0.1980
     87  CA         9.2670  -18.8950   -0.7390 C.3   133  VAL133      0.1595
     88  C          9.8350  -19.1670    0.6890 C.2   133  VAL133      0.2287
     89  O          9.5760  -18.4210    1.6460 O.2   133  VAL133     -0.2864
     90  CB         8.1040  -19.8980   -1.0120 C.3   133  VAL133      0.0276
     91  CG1        7.0520  -19.8110    0.1300 C.3   133  VAL133      0.0022
     92  CG2        7.4020  -19.4630   -2.2850 C.3   133  VAL133      0.0022
     93  N         11.9970  -16.3020    1.8120 N.3   136  HIS136     -0.1226
     94  CA        11.1540  -15.1270    2.1490 C.3   136  HIS136      0.1752
     95  C         10.4800  -15.3280    3.5130 C.2   136  HIS136      0.2595
     96  O         10.4810  -14.4070    4.3580 O.2   136  HIS136     -0.2718
     97  CB        10.0860  -14.9580    1.0380 C.3   136  HIS136      0.0759
     98  CG         9.0430  -13.9110    1.3300 C.ar  136  HIS136      0.0818
     99  ND1        8.9580  -12.7170    0.6390 N.ar  136  HIS136     -0.2268
    100  CD2        8.0330  -13.9000    2.2440 C.ar  136  HIS136      0.1154
    101  CE1        7.9550  -12.0050    1.1500 C.ar  136  HIS136      0.1986
    102  NE2        7.3500  -12.7190    2.0920 N.ar  136  HIS136     -0.2212
    103  N          9.8890  -16.5200    3.7400 N.am  137  GLU137     -0.1979
    104  CA         9.2600  -16.7160    5.0720 C.3   137  GLU137      0.1602
    105  C         10.2950  -16.7180    6.1900 C.2   137  GLU137      0.2287
    106  O         10.0200  -16.2720    7.2650 O.2   137  GLU137     -0.2864
    107  CB         8.4630  -18.0230    5.0650 C.3   137  GLU137      0.0415
    108  CG         7.1860  -17.9380    4.1530 C.3   137  GLU137      0.1163
    109  CD         6.3760  -16.6630    4.3610 C.2   137  GLU137      0.3649
    110  OE1        6.0330  -15.9770    3.3640 O.co2 137  GLU137     -0.2457
    111  OE2        6.0730  -16.2510    5.4850 O.co2 137  GLU137     -0.2457
    112  N          0.8300   -3.8490   -7.6790 N.3   159  ASP159     -0.1239
    113  CA         0.6610   -5.0030   -8.5890 C.3   159  ASP159      0.1674
    114  C         -0.2020   -4.6910   -9.8160 C.2   159  ASP159      0.2266
    115  O          0.0480   -5.2120  -10.8980 O.2   159  ASP159     -0.2867
    116  CB         0.0450   -6.2040   -7.8320 C.3   159  ASP159      0.1410
    117  CG        -0.2300   -7.3770   -8.7390 C.2   159  ASP159      0.3668
    118  OD1       -1.4040   -7.6890   -8.9060 O.co2 159  ASP159     -0.2456
    119  OD2        0.7060   -7.9480   -9.3320 O.co2 159  ASP159     -0.2456
@<TRIPOS>BOND
     1    20    21   ar
     2    20    18   ar
     3    23    21   ar
     4    23    25   ar
     5    21    19   ar
     6    62    61    1
     7    18    17   ar
     8    63    61    1
     9    25    24   ar
    10   115   114    2
    11    61    60    2
    12    19    17   ar
    13    19    22   ar
    14    17    16    1
    15   114   113    1
    16    24    22   ar
    17    60    59    1
    18   119   117   ar
    19    16    13    1
    20   118   117   ar
    21   117   116    1
    22    12    13    1
    23   113   116    1
    24   113   112    1
    25    59    58    1
    26    13    14    1
    27    58    57    1
    28    68    69    1
    29    68    65    1
    30    64    65    1
    31    85    83    1
    32    70    69   ar
    33    70    72   ar
    34    14    15    2
    35    14    26   am
    36    69    71   ar
    37    65    66    1
    38    83    82    2
    39    83    84    1
    40    82    81    1
    41    57    54    1
    42    72    74   ar
    43    71    73   ar
    44    56    55    2
    45    26    27    1
    46    55    54    1
    47    74    73   ar
    48    81    80    1
    49    54    53    1
    50    66    67    2
    51    53    47   am
    52    27    28    1
    53    27    30    1
    54    29    28    2
    55    47    46    1
    56    47    48    2
    57    79    80    1
    58    79    76    1
    59    28    35   am
    60    31    30    1
    61    31    32    1
    62    46    45    1
    63    46    49    1
    64    52    50    1
    65     6     5    1
    66    35    36    1
    67    75    76    1
    68    34    32   ar
    69    49    50    1
    70    76    77    1
    71    32    33   ar
    72    36    37    1
    73    50    51    1
    74    92    90    1
    75     5     7    1
    76     5     2    1
    77    86    77   am
    78    86    87    1
    79    77    78    2
    80    37    38    2
    81    37    39   am
    82    90    87    1
    83    90    91    1
    84     2     1    1
    85     2     3    1
    86    87    88    1
    87    39    40    1
    88     3     4    2
    89     3     8   am
    90    99   101   ar
    91    99    98   ar
    92    88    89    2
    93    40    41    1
    94    40    43    1
    95    97    98    1
    96    97    94    1
    97   101   102   ar
    98    42    41    2
    99    98   100   ar
   100     8     9    1
   101    93    94    1
   102    43    44    1
   103   102   100   ar
   104    94    95    1
   105     9    10    1
   106    11    10    2
   107   110   109   ar
   108    95   103   am
   109    95    96    2
   110   103   104    1
   111   108   109    1
   112   108   107    1
   113   109   111   ar
   114   107   104    1
   115   104   105    1
   116   105   106    2
