@<TRIPOS>MOLECULE
tmp/5cvqA00.pdb
 160 158 0 0 0
SMALL
GASTEIGER

@<TRIPOS>ATOM
      1  N         -5.8320  -15.7390    2.5630 N.3    42  ALA42      -0.1231
      2  CA        -5.1260  -14.5530    2.1130 C.3    42  ALA42       0.1694
      3  C         -4.4890  -14.8380    0.7440 C.2    42  ALA42       0.2592
      4  O         -3.8640  -13.9550    0.1740 O.2    42  ALA42      -0.2718
      5  CB        -4.0640  -14.0790    3.1390 C.3    42  ALA42       0.0304
      6  N         -4.6570  -16.0540    0.2410 N.am   43  HIS43      -0.1962
      7  CA        -4.1040  -16.4870   -1.0580 C.3    43  HIS43       0.1787
      8  C         -2.5910  -16.4380   -1.1110 C.2    43  HIS43       0.2621
      9  O         -2.0250  -16.1070   -2.1420 O.2    43  HIS43      -0.2715
     10  CB        -4.7050  -15.7030   -2.2420 C.3    43  HIS43       0.0785
     11  CG        -6.1930  -15.8440   -2.3660 C.ar   43  HIS43       0.0821
     12  ND1       -6.8380  -15.9190   -3.5830 N.ar   43  HIS43      -0.2267
     13  CD2       -7.1650  -15.9560   -1.4270 C.ar   43  HIS43       0.1154
     14  CE1       -8.1400  -16.0510   -3.3870 C.ar   43  HIS43       0.1986
     15  NE2       -8.3620  -16.0930   -2.0900 N.ar   43  HIS43      -0.2212
     16  N         -1.9200  -16.7540   -0.0130 N.am   44  GLY44      -0.1940
     17  CA        -0.4590  -16.7690   -0.0390 C.3    44  GLY44       0.2014
     18  C          0.1250  -18.1200   -0.3920 C.2    44  GLY44       0.2639
     19  O         -0.6040  -19.1080   -0.4300 O.2    44  GLY44      -0.2714
     20  N          1.4360  -18.1730   -0.6300 N.am   45  VAL45      -0.1963
     21  CA         2.1040  -19.4660   -0.8550 C.3    45  VAL45       0.1727
     22  C          2.9840  -19.7940    0.3720 C.2    45  VAL45       0.2616
     23  O          3.6150  -20.8760    0.4930 O.2    45  VAL45      -0.2715
     24  CB         2.9290  -19.4860   -2.1900 C.3    45  VAL45       0.0290
     25  CG1        1.9880  -19.2440   -3.3810 C.3    45  VAL45       0.0023
     26  CG2        4.0540  -18.4530   -2.1660 C.3    45  VAL45       0.0023
     27  N          3.0250  -18.8570    1.2940 N.am   46  GLY46      -0.1955
     28  CA         3.8080  -19.0860    2.4820 C.3    46  GLY46       0.1869
     29  C          3.1540  -18.2170    3.4980 C.2    46  GLY46       0.2309
     30  O          2.4160  -17.2720    3.1320 O.2    46  GLY46      -0.2863
     31  N          3.7680  -13.0760   11.2510 N.3    51  GLN51      -0.1245
     32  CA         2.7930  -12.3260   10.4750 C.3    51  GLN51       0.1566
     33  C          1.4070  -12.3330   11.1120 C.2    51  GLN51       0.2260
     34  O          0.5400  -11.5460   10.7170 O.2    51  GLN51      -0.2867
     35  CB         2.7170  -12.8640    9.0700 C.3    51  GLN51       0.0367
     36  CG         3.9450  -12.5240    8.2450 C.3    51  GLN51       0.0905
     37  CD         3.8050  -13.1300    6.8580 C.2    51  GLN51       0.2608
     38  OE1        4.0220  -14.3450    6.6650 O.2    51  GLN51      -0.2717
     39  NE2        3.3590  -12.3350    5.9140 N.am   51  GLN51      -0.0878
     40  N          2.1070  -24.6190   -2.7770 N.3    63  PHE63      -0.1241
     41  CA         1.6330  -23.8680   -3.9970 C.3    63  PHE63       0.1605
     42  C          1.2070  -24.8590   -5.0570 C.2    63  PHE63       0.2264
     43  O          1.6680  -25.9980   -5.0270 O.2    63  PHE63      -0.2867
     44  CB         2.7820  -23.0450   -4.6140 C.3    63  PHE63       0.0534
     45  CG         2.3840  -22.3100   -5.8630 C.ar   63  PHE63      -0.0203
     46  CD1        1.4870  -21.2770   -5.8390 C.ar   63  PHE63      -0.0042
     47  CD2        2.8440  -22.7360   -7.0600 C.ar   63  PHE63      -0.0042
     48  CE1        1.1000  -20.6620   -7.0790 C.ar   63  PHE63      -0.0003
     49  CE2        2.4890  -22.0940   -8.2780 C.ar   63  PHE63      -0.0003
     50  CZ         1.6370  -21.0500   -8.2510 C.ar   63  PHE63      -0.0000
     51  N          9.8960  -12.0120   -8.7690 N.3    87  TRP87      -0.1227
     52  CA         8.9120  -11.1730   -8.1260 C.3    87  TRP87       0.1737
     53  C          8.4680  -11.7510   -6.7880 C.2    87  TRP87       0.2595
     54  O          8.2730  -12.9910   -6.6280 O.2    87  TRP87      -0.2718
     55  CB         7.6960  -11.0250   -9.0330 C.3    87  TRP87       0.0564
     56  CG         7.9880  -10.1930  -10.2200 C.ar   87  TRP87       0.0003
     57  CD1        8.2190  -10.6300  -11.5100 C.ar   87  TRP87       0.0946
     58  CD2        8.0990   -8.7530  -10.2530 C.ar   87  TRP87       0.0152
     59  NE1        8.4510   -9.5570  -12.3240 N.ar   87  TRP87      -0.2442
     60  CE2        8.3790   -8.3940  -11.5890 C.ar   87  TRP87       0.0810
     61  CE3        7.9610   -7.7390   -9.2830 C.ar   87  TRP87       0.0012
     62  CZ2        8.5500   -7.0630  -11.9840 C.ar   87  TRP87       0.0191
     63  CZ3        8.1350   -6.4180   -9.6700 C.ar   87  TRP87       0.0001
     64  CH2        8.4440   -6.0910  -11.0050 C.ar   87  TRP87       0.0015
     65  N          8.2550  -10.8390   -5.8430 N.am   88  GLU88      -0.1965
     66  CA         7.6930  -11.1740   -4.5320 C.3    88  GLU88       0.1733
     67  C          6.7010  -10.1160   -4.0780 C.2    88  GLU88       0.2617
     68  O          6.8370   -8.9260   -4.4280 O.2    88  GLU88      -0.2715
     69  CB         8.8150  -11.3090   -3.5250 C.3    88  GLU88       0.0429
     70  CG         9.7560  -12.4800   -3.8160 C.3    88  GLU88       0.1163
     71  CD        10.7340  -12.7120   -2.6880 C.2    88  GLU88       0.3649
     72  OE1       10.4320  -12.3200   -1.5130 O.co2  88  GLU88      -0.2457
     73  OE2       11.8200  -13.2560   -2.9870 O.co2  88  GLU88      -0.2457
     74  N          5.6890  -10.5460   -3.3310 N.am   89  GLY89      -0.1940
     75  CA         4.8580   -9.6210   -2.5610 C.3    89  GLY89       0.2014
     76  C          4.6630  -10.2130   -1.1790 C.2    89  GLY89       0.2639
     77  O          4.8240  -11.4190   -0.9810 O.2    89  GLY89      -0.2714
     78  N          4.2940   -9.3960   -0.2200 N.am   90  CYS90      -0.1953
     79  CA         4.2180   -9.8820    1.1360 C.3    90  CYS90       0.1843
     80  C          2.8240   -9.5150    1.5600 C.2    90  CYS90       0.2625
     81  O          2.4200   -8.3890    1.3330 O.2    90  CYS90      -0.2714
     82  CB         5.3150   -9.1970    2.0140 C.3    90  CYS90       0.0997
     83  SG         5.4340   -9.5080    3.8000 S.3    90  CYS90      -0.0797
     84  N          2.1010  -10.4710    2.1520 N.am   91  LEU91      -0.1977
     85  CA         0.7780  -10.2460    2.7390 C.3    91  LEU91       0.1596
     86  C          0.8110   -9.2240    3.9000 C.2    91  LEU91       0.2287
     87  O         -0.2310   -8.6420    4.2710 O.2    91  LEU91      -0.2864
     88  CB         0.1950  -11.5480    3.3000 C.3    91  LEU91       0.0297
     89  CG         0.0950  -12.6740    2.3060 C.3    91  LEU91       0.0022
     90  CD1       -0.1120  -13.9860    3.0430 C.3    91  LEU91       0.0001
     91  CD2       -1.0330  -12.3180    1.3550 C.3    91  LEU91       0.0001
     92  N          4.7580   -5.1620   -4.9860 N.3    97  ARG97      -0.1245
     93  CA         5.6840   -6.1900   -5.4580 C.3    97  ARG97       0.1563
     94  C          7.0470   -5.5240   -5.7100 C.2    97  ARG97       0.2260
     95  O          7.0820   -4.3260   -5.9450 O.2    97  ARG97      -0.2867
     96  CB         5.2240   -6.8060   -6.7780 C.3    97  ARG97       0.0307
     97  CG         3.7810   -7.1820   -6.9190 C.3    97  ARG97       0.0489
     98  CD         3.5140   -8.6030   -6.4370 C.3    97  ARG97       0.2205
     99  NE         2.0750   -8.9240   -6.4970 N.pl3  97  ARG97      -0.0865
    100  CZ         1.2010   -8.7500   -5.5080 C.cat  97  ARG97       0.5346
    101  NH1       -0.0540   -9.0350   -5.7270 N.pl3  97  ARG97       0.1354
    102  NH2        1.5680   -8.2870   -4.3100 N.pl3  97  ARG97       0.1354
    103  N         11.7360  -21.4030   -7.1960 N.3   125  PHE125     -0.1241
    104  CA        10.5910  -20.8700   -6.4580 C.3   125  PHE125      0.1605
    105  C         10.4180  -21.4440   -5.0470 C.2   125  PHE125      0.2264
    106  O         10.2560  -20.6900   -4.0610 O.2   125  PHE125     -0.2867
    107  CB         9.2930  -21.0030   -7.2630 C.3   125  PHE125      0.0534
    108  CG         8.1700  -20.2080   -6.7000 C.ar  125  PHE125     -0.0203
    109  CD1        8.2470  -18.8050   -6.6260 C.ar  125  PHE125     -0.0042
    110  CD2        7.0130  -20.8390   -6.2180 C.ar  125  PHE125     -0.0042
    111  CE1        7.1850  -18.0610   -6.1000 C.ar  125  PHE125     -0.0003
    112  CE2        5.9530  -20.0880   -5.6800 C.ar  125  PHE125     -0.0003
    113  CZ         6.0500  -18.7110   -5.6120 C.ar  125  PHE125     -0.0000
    114  N         12.8060  -19.8790   -2.9010 N.3   128  ARG128     -0.1231
    115  CA        12.4890  -18.4700   -2.6510 C.3   128  ARG128      0.1694
    116  C         11.4720  -18.3040   -1.4750 C.2   128  ARG128      0.2591
    117  O         11.6050  -17.4320   -0.5840 O.2   128  ARG128     -0.2718
    118  CB        11.9120  -17.8360   -3.9310 C.3   128  ARG128      0.0321
    119  CG        11.4400  -16.3870   -3.8030 C.3   128  ARG128      0.0489
    120  CD        11.0290  -15.8460   -5.1840 C.3   128  ARG128      0.2205
    121  NE        12.1530  -15.9580   -6.1090 N.pl3 128  ARG128     -0.0865
    122  CZ        13.1190  -15.0490   -6.2310 C.cat 128  ARG128      0.5346
    123  NH1       13.0390  -13.8970   -5.5620 N.pl3 128  ARG128      0.1354
    124  NH2       14.1600  -15.2870   -7.0540 N.pl3 128  ARG128      0.1354
    125  N         10.4360  -19.1430   -1.5270 N.am  129  VAL129     -0.1980
    126  CA         9.3810  -19.1070   -0.5580 C.3   129  VAL129      0.1595
    127  C          9.9650  -19.3170    0.8080 C.2   129  VAL129      0.2287
    128  O          9.6490  -18.5290    1.7330 O.2   129  VAL129     -0.2864
    129  CB         8.2750  -20.1200   -0.8710 C.3   129  VAL129      0.0276
    130  CG1        7.2280  -20.1270    0.2640 C.3   129  VAL129      0.0022
    131  CG2        7.6510  -19.7640   -2.2280 C.3   129  VAL129      0.0022
    132  N         12.1350  -16.3120    1.9590 N.3   132  HIS132     -0.1226
    133  CA        11.1640  -15.2580    2.3300 C.3   132  HIS132      0.1752
    134  C         10.5460  -15.4860    3.7330 C.2   132  HIS132      0.2595
    135  O         10.4880  -14.5480    4.5570 O.2   132  HIS132     -0.2718
    136  CB        10.0520  -15.1680    1.2740 C.3   132  HIS132      0.0759
    137  CG         9.0220  -14.1190    1.5580 C.ar  132  HIS132      0.0818
    138  ND1        8.8540  -12.9960    0.7610 N.ar  132  HIS132     -0.2268
    139  CD2        8.0940  -14.0170    2.5500 C.ar  132  HIS132      0.1154
    140  CE1        7.8830  -12.2490    1.2540 C.ar  132  HIS132      0.1986
    141  NE2        7.4080  -12.8440    2.3370 N.ar  132  HIS132     -0.2212
    142  N         10.0550  -16.7030    3.9930 N.am  133  GLU133     -0.1979
    143  CA         9.4370  -16.9620    5.2830 C.3   133  GLU133      0.1602
    144  C         10.5220  -16.9340    6.3640 C.2   133  GLU133      0.2287
    145  O         10.3040  -16.3650    7.4350 O.2   133  GLU133     -0.2864
    146  CB         8.6480  -18.2780    5.2950 C.3   133  GLU133      0.0415
    147  CG         7.6060  -18.4460    4.1970 C.3   133  GLU133      0.1163
    148  CD         6.6400  -17.2770    4.1780 C.2   133  GLU133      0.3649
    149  OE1        6.4700  -16.6010    5.2420 O.co2 133  GLU133     -0.2457
    150  OE2        6.0750  -17.0090    3.1000 O.co2 133  GLU133     -0.2457
    151  N         11.2630  -13.4320    7.7320 N.3   136  HIS136     -0.1241
    152  CA        10.2850  -13.0530    8.8040 C.3   136  HIS136      0.1621
    153  C         10.6840  -13.5220   10.1910 C.2   136  HIS136      0.2264
    154  O         10.4650  -12.7930   11.1570 O.2   136  HIS136     -0.2867
    155  CB         8.8680  -13.5860    8.5470 C.3   136  HIS136      0.0745
    156  CG         8.1270  -12.8240    7.5020 C.ar  136  HIS136      0.0817
    157  ND1        7.7870  -11.4980    7.6570 N.ar  136  HIS136     -0.2268
    158  CD2        7.6730  -13.1880    6.2830 C.ar  136  HIS136      0.1154
    159  CE1        7.1290  -11.0830    6.5900 C.ar  136  HIS136      0.1986
    160  NE2        7.0510  -12.0860    5.7370 N.ar  136  HIS136     -0.2212
@<TRIPOS>BOND
     1    59    60   ar
     2    59    57   ar
     3    62    60   ar
     4    62    64   ar
     5    60    58   ar
     6    57    56   ar
     7    64    63   ar
     8    58    56   ar
     9    58    61   ar
    10    56    55    1
    11    63    61   ar
    12    55    52    1
    13    51    52    1
    14    49    50   ar
    15    49    47   ar
    16    50    48   ar
    17    52    53    1
    18   107   108    1
    19   107   104    1
    20   103   104    1
    21    48    46   ar
    22    47    45   ar
    23   124   122    1
    24    97    96    1
    25    97    98    1
    26    53    54    2
    27    53    65   am
    28    96    93    1
    29   108   109   ar
    30   108   110   ar
    31   109   111   ar
    32    99    98    1
    33    99   100    2
    34   104   105    1
    35   122   121    2
    36   122   123    1
    37   110   112   ar
    38   121   120    1
    39   111   113   ar
    40    95    94    2
    41    45    46   ar
    42    45    44    1
    43    65    66    1
    44   101   100    1
    45    94    93    1
    46   112   113   ar
    47   100   102    1
    48    93    92    1
    49   120   119    1
    50    42    43    2
    51    42    41    1
    52   105   106    2
    53    44    41    1
    54    66    67    1
    55    66    69    1
    56    68    67    2
    57    67    74   am
    58    41    40    1
    59   118   119    1
    60   118   115    1
    61    70    69    1
    62    70    71    1
    63    12    14   ar
    64    12    11   ar
    65    14    15   ar
    66    25    24    1
    67    74    75    1
    68    73    71   ar
    69   114   115    1
    70    71    72   ar
    71   115   116    1
    72    75    76    1
    73    11    10    1
    74    11    13   ar
    75    10     7    1
    76   131   129    1
    77    24    26    1
    78    24    21    1
    79     9     8    2
    80    15    13   ar
    81   125   116   am
    82   125   126    1
    83   116   117    2
    84    76    77    2
    85    76    78   am
    86     8     7    1
    87     8    16   am
    88     7     6    1
    89   129   126    1
    90   129   130    1
    91    21    20    1
    92    21    22    1
    93    20    18   am
    94   126   127    1
    95    19    18    2
    96    18    17    1
    97    78    79    1
    98    17    16    1
    99     4     3    2
   100     6     3   am
   101    22    23    2
   102    22    27   am
   103     3     2    1
   104   138   140   ar
   105   138   137   ar
   106   127   128    2
   107    79    80    1
   108    79    82    1
   109   140   141   ar
   110   136   137    1
   111   136   133    1
   112    27    28    1
   113    81    80    2
   114    91    89    1
   115   137   139   ar
   116    80    84   am
   117   132   133    1
   118    82    83    1
   119     2     1    1
   120     2     5    1
   121    84    85    1
   122    89    90    1
   123    89    88    1
   124   133   134    1
   125   141   139   ar
   126    28    29    1
   127    85    88    1
   128    85    86    1
   129   150   148   ar
   130    30    29    2
   131   134   142   am
   132   134   135    2
   133    86    87    2
   134   142   143    1
   135   148   147    1
   136   148   149   ar
   137   147   146    1
   138   143   146    1
   139   143   144    1
   140   160   158   ar
   141   160   159   ar
   142    39    37   am
   143   158   156   ar
   144   144   145    2
   145   159   157   ar
   146    38    37    2
   147    37    36    1
   148   156   157   ar
   149   156   155    1
   150   151   152    1
   151    36    35    1
   152   155   152    1
   153   152   153    1
   154    35    32    1
   155   153   154    2
   156    32    33    1
   157    32    31    1
   158    34    33    2
