@<TRIPOS>MOLECULE
tmp/5cvuD01.pdb
 218 217 0 0 0
SMALL
GASTEIGER

@<TRIPOS>ATOM
      1  N         77.7020  -21.6320   65.5770 N.3   159  TRP159     -0.1298
      2  CA        76.2960  -22.1570   65.5360 C.3   159  TRP159      0.1291
      3  C         76.2350  -23.5690   65.9740 C.3   159  TRP159      0.2013
      4  O         75.3890  -23.9560   66.8730 O.3   159  TRP159     -0.2188
      5  CB        75.6480  -21.9560   64.1970 C.3   159  TRP159      0.0497
      6  CG        75.9250  -20.6170   63.6030 C.ar  159  TRP159     -0.0001
      7  CD1       76.5760  -20.3440   62.4570 C.ar  159  TRP159      0.0946
      8  CD2       75.5330  -19.3250   64.1530 C.ar  159  TRP159      0.0152
      9  NE1       76.6830  -18.9800   62.2660 N.ar  159  TRP159     -0.2442
     10  CE2       76.0530  -18.3420   63.3040 C.ar  159  TRP159      0.0810
     11  CE3       74.8490  -18.9380   65.3200 C.ar  159  TRP159      0.0012
     12  CZ2       75.8900  -16.9630   63.5290 C.ar  159  TRP159      0.0191
     13  CZ3       74.7100  -17.5360   65.5710 C.ar  159  TRP159      0.0001
     14  CH2       75.1840  -16.6000   64.6640 C.ar  159  TRP159      0.0015
     15  N         72.0480  -16.0510   73.7990 N.3   172  PHE172     -0.1227
     16  CA        72.2770  -15.4500   72.5270 C.3   172  PHE172      0.1736
     17  C         70.9430  -15.0860   71.8690 C.2   172  PHE172      0.2595
     18  O         70.7270  -14.0240   71.3280 O.2   172  PHE172     -0.2718
     19  CB        73.1630  -16.3940   71.5960 C.3   172  PHE172      0.0547
     20  CG        73.3810  -15.8450   70.2350 C.ar  172  PHE172     -0.0202
     21  CD1       72.4300  -16.0570   69.2010 C.ar  172  PHE172     -0.0042
     22  CD2       74.4930  -15.0290   69.9640 C.ar  172  PHE172     -0.0042
     23  CE1       72.6220  -15.5470   67.9420 C.ar  172  PHE172     -0.0003
     24  CE2       74.6850  -14.5130   68.6940 C.ar  172  PHE172     -0.0003
     25  CZ        73.7360  -14.7590   67.6780 C.ar  172  PHE172     -0.0000
     26  N         69.9880  -16.0610   71.8900 N.am  173  ASN173     -0.1974
     27  CA        68.7810  -15.8510   71.1550 C.3   173  ASN173      0.1688
     28  C         67.9800  -14.6960   71.7760 C.2   173  ASN173      0.2292
     29  O         67.3720  -13.9190   71.0320 O.2   173  ASN173     -0.2864
     30  CB        67.8630  -17.1100   71.1840 C.3   173  ASN173      0.1181
     31  CG        68.4500  -18.2630   70.3740 C.2   173  ASN173      0.2629
     32  OD1       68.1800  -19.4710   70.6400 O.2   173  ASN173     -0.2716
     33  ND2       69.2130  -17.8990   69.4010 N.am  173  ASN173     -0.0877
     34  N         69.7280  -11.2970   70.9050 N.3   176  MET176     -0.1230
     35  CA        69.3640  -10.8630   69.5590 C.3   176  MET176      0.1702
     36  C         67.9030  -10.4070   69.4520 C.2   176  MET176      0.2593
     37  O         67.6260   -9.3710   68.8370 O.2   176  MET176     -0.2718
     38  CB        69.5020  -12.0500   68.6060 C.3   176  MET176      0.0401
     39  CG        70.9510  -12.4020   68.2880 C.3   176  MET176      0.0596
     40  SD        71.7980  -11.0820   67.3470 S.3   176  MET176     -0.1393
     41  CE        72.8960  -10.7200   68.6130 C.3   176  MET176      0.0692
     42  N         67.0000  -11.2020   70.0220 N.am  177  SER177     -0.1952
     43  CA        65.5590  -10.8670   70.1120 C.3   177  SER177      0.1924
     44  C         65.3040   -9.4500   70.6460 C.2   177  SER177      0.2314
     45  O         64.5930   -8.6300   70.0520 O.2   177  SER177     -0.2863
     46  CB        64.8740  -11.8760   70.9890 C.3   177  SER177      0.2116
     47  OG        63.5050  -11.5950   70.9620 O.3   177  SER177     -0.2180
     48  N         66.8510   -6.7020   68.3310 N.3   180  SER180     -0.1217
     49  CA        66.0960   -6.5710   67.0890 C.3   180  SER180      0.1889
     50  C         64.7050   -6.0080   67.2640 C.2   180  SER180      0.2288
     51  O         64.2290   -5.3130   66.3390 O.2   180  SER180     -0.2866
     52  CB        66.0220   -7.9150   66.2880 C.3   180  SER180      0.2089
     53  OG        67.3330   -8.2870   66.0360 O.3   180  SER180     -0.2183
     54  N         61.6290  -14.8090   57.0910 N.3   202  ASP202     -0.1239
     55  CA        62.7370  -14.2260   57.8240 C.3   202  ASP202      0.1674
     56  C         63.7670  -15.3060   57.9490 C.2   202  ASP202      0.2266
     57  O         63.6780  -16.2500   58.7510 O.2   202  ASP202     -0.2867
     58  CB        62.3120  -13.6770   59.1920 C.3   202  ASP202      0.1410
     59  CG        63.4660  -12.8780   59.8900 C.2   202  ASP202      0.3668
     60  OD1       64.6570  -12.9540   59.4350 O.co2 202  ASP202     -0.2456
     61  OD2       63.2300  -12.2720   60.9390 O.co2 202  ASP202     -0.2456
     62  N         67.2010  -16.8470   59.0260 N.3   204  GLY204     -0.1210
     63  CA        68.0260  -16.6950   60.2450 C.3   204  GLY204      0.1956
     64  C         67.2480  -15.7760   61.2120 C.2   204  GLY204      0.2612
     65  O         67.8330  -14.9520   61.8840 O.2   204  GLY204     -0.2717
     66  N         65.9380  -15.9210   61.2680 N.am  205  GLY205     -0.1942
     67  CA        65.0900  -15.0020   62.0870 C.3   205  GLY205      0.2014
     68  C         65.1550  -15.2670   63.5800 C.2   205  GLY205      0.2639
     69  O         64.4180  -14.6350   64.3700 O.2   205  GLY205     -0.2714
     70  N         66.0160  -16.1550   64.0200 N.am  206  GLY206     -0.1954
     71  CA        66.1820  -16.5140   65.4240 C.3   206  GLY206      0.1869
     72  C         64.9110  -17.0680   66.0580 C.2   206  GLY206      0.2309
     73  O         64.2290  -17.9210   65.4830 O.2   206  GLY206     -0.2863
     74  N         61.1750  -10.6710   65.0410 N.3   210  VAL210     -0.1245
     75  CA        60.9230   -9.7740   63.9260 C.3   210  VAL210      0.1561
     76  C         59.7250  -10.2040   63.0740 C.2   210  VAL210      0.2260
     77  O         58.8520   -9.3590   62.6550 O.2   210  VAL210     -0.2867
     78  CB        62.1790   -9.6100   63.0080 C.3   210  VAL210      0.0252
     79  CG1       61.8130   -8.8240   61.7330 C.3   210  VAL210      0.0019
     80  CG2       63.2650   -8.9210   63.8570 C.3   210  VAL210      0.0019
     81  N         62.5790  -18.7060   59.7320 N.3   226  PHE226     -0.1227
     82  CA        63.4160  -19.8500   59.3500 C.3   226  PHE226      0.1736
     83  C         64.7610  -19.7430   60.0660 C.2   226  PHE226      0.2595
     84  O         65.3810  -18.6640   60.0270 O.2   226  PHE226     -0.2718
     85  CB        63.6530  -19.7700   57.8560 C.3   226  PHE226      0.0547
     86  CG        64.4790  -20.8980   57.2830 C.ar  226  PHE226     -0.0202
     87  CD1       63.9780  -22.2030   57.2620 C.ar  226  PHE226     -0.0042
     88  CD2       65.7210  -20.6460   56.7130 C.ar  226  PHE226     -0.0042
     89  CE1       64.7160  -23.2360   56.6910 C.ar  226  PHE226     -0.0003
     90  CE2       66.4990  -21.6740   56.1390 C.ar  226  PHE226     -0.0003
     91  CZ        65.9760  -22.9900   56.1200 C.ar  226  PHE226     -0.0000
     92  N         65.2080  -20.7850   60.7320 N.am  227  ASP227     -0.1960
     93  CA        66.5230  -20.8110   61.4130 C.3   227  ASP227      0.1840
     94  C         67.0060  -22.2450   61.6680 C.2   227  ASP227      0.2621
     95  O         66.3620  -23.2370   61.2140 O.2   227  ASP227     -0.2715
     96  CB        66.4080  -19.9670   62.7370 C.3   227  ASP227      0.1450
     97  CG        67.7450  -19.3740   63.1780 C.2   227  ASP227      0.3671
     98  OD1       68.6280  -20.1400   63.6080 O.co2 227  ASP227     -0.2456
     99  OD2       67.8930  -18.1100   63.1020 O.co2 227  ASP227     -0.2456
    100  N         68.0770  -22.4190   62.4020 N.am  228  LEU228     -0.1977
    101  CA        68.5520  -23.7650   62.6940 C.3   228  LEU228      0.1596
    102  C         67.5800  -24.4550   63.6390 C.2   228  LEU228      0.2287
    103  O         66.8990  -23.8080   64.4280 O.2   228  LEU228     -0.2864
    104  CB        69.9640  -23.7600   63.2820 C.3   228  LEU228      0.0297
    105  CG        70.9850  -23.1910   62.3190 C.3   228  LEU228      0.0022
    106  CD1       72.2540  -22.7630   63.0620 C.3   228  LEU228      0.0001
    107  CD2       71.3650  -24.2880   61.3150 C.3   228  LEU228      0.0001
    108  N         68.0070  -26.0450   66.5230 N.3   230  HIS230     -0.1226
    109  CA        68.2430  -25.7870   67.9350 C.3   230  HIS230      0.1752
    110  C         67.7640  -24.3850   68.3950 C.2   230  HIS230      0.2595
    111  O         67.6110  -24.1310   69.6070 O.2   230  HIS230     -0.2718
    112  CB        69.6870  -26.0550   68.3240 C.3   230  HIS230      0.0759
    113  CG        70.6960  -25.1840   67.6450 C.ar  230  HIS230      0.0818
    114  ND1       70.9530  -23.8720   68.0270 N.ar  230  HIS230     -0.2268
    115  CD2       71.5590  -25.4540   66.6300 C.ar  230  HIS230      0.1154
    116  CE1       71.9190  -23.3770   67.2590 C.ar  230  HIS230      0.1986
    117  NE2       72.3010  -24.3110   66.4100 N.ar  230  HIS230     -0.2212
    118  N         67.5160  -23.5180   67.4080 N.am  231  VAL231     -0.1980
    119  CA        66.9470  -22.1810   67.6560 C.3   231  VAL231      0.1595
    120  C         65.4170  -22.2750   67.5190 C.2   231  VAL231      0.2287
    121  O         64.6900  -21.7980   68.3820 O.2   231  VAL231     -0.2864
    122  CB        67.5310  -21.1440   66.6790 C.3   231  VAL231      0.0276
    123  CG1       66.8080  -19.7840   66.7460 C.3   231  VAL231      0.0022
    124  CG2       69.0300  -20.9970   66.9130 C.3   231  VAL231      0.0022
    125  N         65.9340  -25.4530   59.4740 N.3   246  GLY246     -0.1210
    126  CA        66.6680  -25.8960   58.2960 C.3   246  GLY246      0.1956
    127  C         68.0400  -25.2560   58.2160 C.2   246  GLY246      0.2612
    128  O         68.5440  -24.7040   59.1990 O.2   246  GLY246     -0.2717
    129  N         68.6240  -25.3350   57.0300 N.am  247  ASP247     -0.1959
    130  CA        69.9330  -24.7710   56.7650 C.3   247  ASP247      0.1840
    131  C         69.8010  -23.9020   55.5300 C.2   247  ASP247      0.2622
    132  O         69.5350  -24.3680   54.3960 O.2   247  ASP247     -0.2715
    133  CB        71.0300  -25.8570   56.6120 C.3   247  ASP247      0.1450
    134  CG        72.4040  -25.2790   56.2530 C.2   247  ASP247      0.3671
    135  OD1       72.5870  -24.1150   55.8380 O.co2 247  ASP247     -0.2456
    136  OD2       73.3800  -26.0900   56.2890 O.co2 247  ASP247     -0.2456
    137  N         69.9770  -22.5730   55.6740 N.am  248  MET248     -0.1963
    138  CA        69.7170  -21.6470   54.5970 C.3   248  MET248      0.1736
    139  C         70.6540  -21.8480   53.3480 C.2   248  MET248      0.2616
    140  O         70.3660  -21.3340   52.2750 O.2   248  MET248     -0.2715
    141  CB        69.8850  -20.1510   55.0650 C.3   248  MET248      0.0427
    142  CG        71.3020  -19.8900   55.5210 C.3   248  MET248      0.0599
    143  SD        71.2180  -18.3380   56.5520 S.3   248  MET248     -0.1393
    144  CE        72.9670  -18.2330   56.9780 C.3   248  MET248      0.0692
    145  N         71.7840  -22.5310   53.5680 N.am  249  PHE249     -0.1974
    146  CA        72.8360  -22.7490   52.5360 C.3   249  PHE249      0.1639
    147  C         72.3710  -23.8470   51.6070 C.2   249  PHE249      0.2290
    148  O         72.8330  -23.8780   50.4380 O.2   249  PHE249     -0.2864
    149  CB        74.2140  -23.0480   53.1270 C.3   249  PHE249      0.0560
    150  CG        74.8450  -21.8090   53.7540 C.ar  249  PHE249     -0.0200
    151  CD1       74.9770  -20.6590   52.9680 C.ar  249  PHE249     -0.0042
    152  CD2       75.1580  -21.7520   55.1180 C.ar  249  PHE249     -0.0042
    153  CE1       75.4900  -19.4350   53.4760 C.ar  249  PHE249     -0.0003
    154  CE2       75.6820  -20.5290   55.6040 C.ar  249  PHE249     -0.0003
    155  CZ        75.8210  -19.4220   54.7930 C.ar  249  PHE249     -0.0000
    156  N         68.2900  -10.1020   58.5440 N.3   261  LYS261     -0.1231
    157  CA        68.9360   -9.0960   59.4520 C.3   261  LYS261      0.1693
    158  C         70.1290   -9.6770   60.1250 C.2   261  LYS261      0.2592
    159  O         70.0630  -10.6790   60.8010 O.2   261  LYS261     -0.2718
    160  CB        67.9090   -8.6280   60.5140 C.3   261  LYS261      0.0285
    161  CG        68.5110   -7.6670   61.5180 C.3   261  LYS261      0.0035
    162  CD        67.3440   -7.1880   62.4060 C.3   261  LYS261      0.0206
    163  CE        67.8680   -6.1810   63.4600 C.3   261  LYS261      0.1093
    164  NZ        69.0820   -6.6420   64.1390 N.3   261  LYS261     -0.1314
    165  N         71.2590   -8.9630   60.0320 N.am  262  TRP262     -0.1962
    166  CA        72.4540   -9.4190   60.6520 C.3   262  TRP262      0.1771
    167  C         72.8390  -10.8650   60.2790 C.2   262  TRP262      0.2619
    168  O         73.3540  -11.6450   61.1080 O.2   262  TRP262     -0.2715
    169  CB        72.3490   -9.2780   62.1740 C.3   262  TRP262      0.0590
    170  CG        73.0120   -8.0240   62.6160 C.ar  262  TRP262      0.0006
    171  CD1       73.7100   -7.0830   61.8510 C.ar  262  TRP262      0.0946
    172  CD2       73.1440   -7.6410   63.9740 C.ar  262  TRP262      0.0152
    173  NE1       74.2550   -6.1080   62.7200 N.ar  262  TRP262     -0.2442
    174  CE2       73.9380   -6.4590   64.0140 C.ar  262  TRP262      0.0810
    175  CE3       72.7200   -8.2240   65.1620 C.ar  262  TRP262      0.0012
    176  CZ2       74.2480   -5.7990   65.2330 C.ar  262  TRP262      0.0191
    177  CZ3       73.0250   -7.5860   66.3850 C.ar  262  TRP262      0.0001
    178  CH2       73.7960   -6.3670   66.3970 C.ar  262  TRP262      0.0015
    179  N         72.5610  -11.2060   59.0030 N.am  263  ILE263     -0.1977
    180  CA        72.9330  -12.5620   58.4870 C.3   263  ILE263      0.1596
    181  C         74.2180  -12.4360   57.6480 C.2   263  ILE263      0.2287
    182  O         75.2410  -13.1340   57.9220 O.2   263  ILE263     -0.2864
    183  CB        71.7860  -13.1420   57.6800 C.3   263  ILE263      0.0276
    184  CG1       70.5200  -13.4150   58.5820 C.3   263  ILE263      0.0022
    185  CG2       72.2340  -14.5030   57.1600 C.3   263  ILE263      0.0022
    186  CD1       70.7770  -13.9960   59.9480 C.3   263  ILE263      0.0001
    187  N         76.5150  -10.1780   57.5560 N.3   265  HIS265     -0.1226
    188  CA        77.8020   -9.8710   58.2060 C.3   265  HIS265      0.1752
    189  C         78.4410  -11.0820   58.9120 C.2   265  HIS265      0.2596
    190  O         79.5780  -10.9250   59.3630 O.2   265  HIS265     -0.2718
    191  CB        77.6790   -8.6170   59.1490 C.3   265  HIS265      0.0759
    192  CG        77.0860   -8.9160   60.4990 C.ar  265  HIS265      0.0818
    193  ND1       77.3440   -8.1120   61.5910 N.ar  265  HIS265     -0.2268
    194  CD2       76.2990   -9.9340   60.9600 C.ar  265  HIS265      0.1154
    195  CE1       76.7250   -8.6080   62.6550 C.ar  265  HIS265      0.1986
    196  NE2       76.0710   -9.7020   62.3100 N.ar  265  HIS265     -0.2212
    197  N         77.7450  -12.2470   59.0420 N.am  266  ASP266     -0.1960
    198  CA        78.2580  -13.4520   59.7190 C.3   266  ASP266      0.1840
    199  C         79.1120  -14.3310   58.7680 C.2   266  ASP266      0.2622
    200  O         79.7640  -15.2080   59.2470 O.2   266  ASP266     -0.2715
    201  CB        77.1320  -14.3870   60.2300 C.3   266  ASP266      0.1450
    202  CG        76.3640  -13.7820   61.3840 C.2   266  ASP266      0.3671
    203  OD1       76.8970  -12.8590   62.0460 O.co2 266  ASP266     -0.2456
    204  OD2       75.2940  -14.2680   61.7360 O.co2 266  ASP266     -0.2456
    205  N         79.0870  -13.9790   57.5090 N.am  267  TRP267     -0.1974
    206  CA        79.6200  -14.8510   56.4420 C.3   267  TRP267      0.1640
    207  C         80.4940  -14.1540   55.4150 C.2   267  TRP267      0.2290
    208  O         80.3430  -12.9840   55.0470 O.2   267  TRP267     -0.2864
    209  CB        78.4080  -15.4530   55.7030 C.3   267  TRP267      0.0576
    210  CG        77.5030  -16.2090   56.6160 C.ar  267  TRP267      0.0006
    211  CD1       76.2870  -15.8010   57.0920 C.ar  267  TRP267      0.0946
    212  CD2       77.7670  -17.4920   57.2320 C.ar  267  TRP267      0.0152
    213  NE1       75.7940  -16.7420   57.9480 N.ar  267  TRP267     -0.2442
    214  CE2       76.6420  -17.8070   58.0620 C.ar  267  TRP267      0.0810
    215  CE3       78.8310  -18.4080   57.1530 C.ar  267  TRP267      0.0012
    216  CZ2       76.5640  -18.9560   58.8040 C.ar  267  TRP267      0.0191
    217  CZ3       78.7510  -19.6030   57.8750 C.ar  267  TRP267      0.0001
    218  CH2       77.6070  -19.8780   58.7080 C.ar  267  TRP267      0.0015
@<TRIPOS>BOND
     1   148   147    2
     2   147   146    1
     3   140   139    2
     4   146   149    1
     5   146   145    1
     6   151   153   ar
     7   151   150   ar
     8   149   150    1
     9   139   145   am
    10   139   138    1
    11   153   155   ar
    12   150   152   ar
    13   132   131    2
    14   138   141    1
    15   138   137    1
    16   155   154   ar
    17   208   207    2
    18   141   142    1
    19   152   154   ar
    20   207   206    1
    21   142   143    1
    22   131   137   am
    23   131   130    1
    24   209   206    1
    25   209   210    1
    26   135   134   ar
    27    91    90   ar
    28    91    89   ar
    29    90    88   ar
    30   134   136   ar
    31   134   133    1
    32   206   205    1
    33   143   144    1
    34   133   130    1
    35   210   211   ar
    36   210   212   ar
    37    89    87   ar
    38    88    86   ar
    39   130   129    1
    40   129   127   am
    41    54    55    1
    42   211   213   ar
    43   215   212   ar
    44   215   217   ar
    45   185   183    1
    46   212   214   ar
    47    87    86   ar
    48    86    85    1
    49   205   199   am
    50   187   188    1
    51   181   182    2
    52   181   180    1
    53   183   180    1
    54   183   184    1
    55    55    56    1
    56    55    58    1
    57    85    82    1
    58   217   218   ar
    59   213   214   ar
    60    56    57    2
    61   214   216   ar
    62   188   189    1
    63   188   191    1
    64   127   126    1
    65   127   128    2
    66   126   125    1
    67   180   179    1
    68   156   157    1
    69   184   186    1
    70   218   216   ar
    71   199   200    2
    72   199   198    1
    73   189   197   am
    74   189   190    2
    75   179   167   am
    76    62    63    1
    77   197   198    1
    78   191   192    1
    79    58    59    1
    80    82    81    1
    81    82    83    1
    82    60    59   ar
    83   157   158    1
    84   157   160    1
    85   198   201    1
    86    59    61   ar
    87    84    83    2
    88   165   158   am
    89   165   166    1
    90    83    92   am
    91   158   159    2
    92   201   202    1
    93    63    64    1
    94   167   166    1
    95   167   168    2
    96   192   194   ar
    97   192   193   ar
    98   160   161    1
    99   166   169    1
   100    92    93    1
   101   194   196   ar
   102    64    66   am
   103    64    65    2
   104    95    94    2
   105    66    67    1
   106   107   105    1
   107   202   204   ar
   108   202   203   ar
   109    93    94    1
   110    93    96    1
   111   161   162    1
   112   193   195   ar
   113    94   100   am
   114    79    78    1
   115   171   170   ar
   116   171   173   ar
   117    67    68    1
   118   169   170    1
   119     9     7   ar
   120     9    10   ar
   121   196   195   ar
   122   105   106    1
   123   105   104    1
   124   100   101    1
   125   162   163    1
   126     7     6   ar
   127   170   172   ar
   128    77    76    2
   129   101   104    1
   130   101   102    1
   131   173   174   ar
   132    96    97    1
   133    78    80    1
   134    78    75    1
   135    76    75    1
   136    99    97   ar
   137    97    98   ar
   138    10    12   ar
   139    10     8   ar
   140   163   164    1
   141    12    14   ar
   142    68    70   am
   143    68    69    2
   144     6     8   ar
   145     6     5    1
   146   102   103    2
   147    75    74    1
   148   172   174   ar
   149   172   175   ar
   150   174   176   ar
   151    70    71    1
   152     8    11   ar
   153     5     2    1
   154    14    13   ar
   155   175   177   ar
   156   176   178   ar
   157    11    13   ar
   158    71    72    1
   159    73    72    2
   160     2     1    1
   161     2     3    1
   162     3     4    1
   163    53    52    1
   164    52    49    1
   165    51    50    2
   166   177   178   ar
   167   117   115   ar
   168   117   116   ar
   169   108   109    1
   170   115   113   ar
   171   122   123    1
   172   122   124    1
   173   122   119    1
   174    49    50    1
   175    49    48    1
   176   116   114   ar
   177    40    39    1
   178    40    41    1
   179   118   119    1
   180   118   110   am
   181   120   119    1
   182   120   121    2
   183   113   114   ar
   184   113   112    1
   185    25    23   ar
   186    25    24   ar
   187   109   112    1
   188   109   110    1
   189    23    21   ar
   190    39    38    1
   191   110   111    2
   192    38    35    1
   193    24    22   ar
   194    37    36    2
   195    21    20   ar
   196    33    31   am
   197    36    35    1
   198    36    42   am
   199    35    34    1
   200    22    20   ar
   201    42    43    1
   202    45    44    2
   203    43    44    1
   204    43    46    1
   205    20    19    1
   206    31    32    2
   207    31    30    1
   208    47    46    1
   209    29    28    2
   210    27    30    1
   211    27    28    1
   212    27    26    1
   213    18    17    2
   214    19    16    1
   215    17    26   am
   216    17    16    1
   217    16    15    1
