@<TRIPOS>MOLECULE
tmp/5cvuD00.pdb
 148 145 0 0 0
SMALL
GASTEIGER

@<TRIPOS>ATOM
      1  N         71.1280   -8.0660   75.4490 N.3   123  PHE123     -0.1241
      2  CA        72.2350   -7.9620   74.4690 C.3   123  PHE123      0.1605
      3  C         73.5800   -7.7430   75.1460 C.2   123  PHE123      0.2264
      4  O         74.5890   -8.4240   74.8150 O.2   123  PHE123     -0.2867
      5  CB        71.9430   -6.9540   73.3550 C.3   123  PHE123      0.0534
      6  CG        72.9750   -6.9680   72.3070 C.ar  123  PHE123     -0.0203
      7  CD1       72.9010   -7.9200   71.2720 C.ar  123  PHE123     -0.0042
      8  CD2       74.0980   -6.1520   72.3950 C.ar  123  PHE123     -0.0042
      9  CE1       73.9040   -7.9400   70.3130 C.ar  123  PHE123     -0.0003
     10  CE2       75.1170   -6.2170   71.4320 C.ar  123  PHE123     -0.0003
     11  CZ        75.0170   -7.1080   70.3860 C.ar  123  PHE123     -0.0000
     12  N         74.6930  -11.0530   76.5510 N.3   126  LEU126     -0.1231
     13  CA        75.2840  -11.8340   75.4300 C.3   126  LEU126      0.1693
     14  C         76.6960  -11.4110   75.1480 C.2   126  LEU126      0.2591
     15  O         77.6290  -12.2180   75.1980 O.2   126  LEU126     -0.2718
     16  CB        74.4030  -11.6770   74.1980 C.3   126  LEU126      0.0284
     17  CG        74.8950  -12.2120   72.8260 C.3   126  LEU126      0.0019
     18  CD1       75.3700  -13.6520   73.1340 C.3   126  LEU126      0.0001
     19  CD2       73.6390  -12.0820   71.9900 C.3   126  LEU126      0.0001
     20  N         76.8860  -10.1190   74.8940 N.am  127  ALA127     -0.1980
     21  CA        78.2110   -9.6300   74.4870 C.3   127  ALA127      0.1597
     22  C         79.2780   -9.8940   75.5190 C.2   127  ALA127      0.2287
     23  O         80.4390  -10.0680   75.1430 O.2   127  ALA127     -0.2864
     24  CB        78.1590   -8.1400   74.1770 C.3   127  ALA127      0.0319
     25  N         81.7270  -15.9500   74.9100 N.3   132  LEU132     -0.1245
     26  CA        82.0560  -15.0340   73.8050 C.3   132  LEU132      0.1561
     27  C         83.3270  -14.2800   74.0870 C.2   132  LEU132      0.2260
     28  O         83.9210  -13.6440   73.1960 O.2   132  LEU132     -0.2867
     29  CB        80.8660  -14.1520   73.4680 C.3   132  LEU132      0.0270
     30  CG        79.6750  -14.9060   72.8400 C.3   132  LEU132      0.0019
     31  CD1       78.7230  -13.8730   72.3460 C.3   132  LEU132      0.0001
     32  CD2       80.1810  -15.7160   71.6320 C.3   132  LEU132      0.0001
     33  N         80.6000  -21.3890   65.7330 N.3   158  ILE158     -0.1231
     34  CA        79.7150  -20.8360   66.7560 C.3   158  ILE158      0.1692
     35  C         78.2890  -21.3850   66.7610 C.2   158  ILE158      0.2588
     36  O         77.8050  -21.7170   67.8910 O.2   158  ILE158     -0.2718
     37  CB        79.7630  -19.2740   66.6200 C.3   158  ILE158      0.0266
     38  CG1       78.9190  -18.5750   67.6980 C.3   158  ILE158      0.0019
     39  CG2       79.2010  -18.7930   65.2710 C.3   158  ILE158      0.0020
     40  CD1       79.2370  -17.0420   67.8230 C.3   158  ILE158      0.0001
     41  N         77.7020  -21.6320   65.5770 N.am  159  TRP159     -0.2029
     42  CA        76.2960  -22.1570   65.5360 C.3   159  TRP159      0.1326
     43  C         76.2350  -23.5690   65.9740 C.3   159  TRP159      0.2039
     44  O         75.3890  -23.9560   66.8730 O.3   159  TRP159     -0.2185
     45  CB        75.6480  -21.9560   64.1970 C.3   159  TRP159      0.0523
     46  CG        75.9250  -20.6170   63.6030 C.ar  159  TRP159      0.0002
     47  CD1       76.5760  -20.3440   62.4570 C.ar  159  TRP159      0.0946
     48  CD2       75.5330  -19.3250   64.1530 C.ar  159  TRP159      0.0152
     49  NE1       76.6830  -18.9800   62.2660 N.ar  159  TRP159     -0.2442
     50  CE2       76.0530  -18.3420   63.3040 C.ar  159  TRP159      0.0810
     51  CE3       74.8490  -18.9380   65.3200 C.ar  159  TRP159      0.0012
     52  CZ2       75.8900  -16.9630   63.5290 C.ar  159  TRP159      0.0191
     53  CZ3       74.7100  -17.5360   65.5710 C.ar  159  TRP159      0.0001
     54  CH2       75.1840  -16.6000   64.6640 C.ar  159  TRP159      0.0015
     55  N         72.0480  -16.0510   73.7990 N.3   172  PHE172     -0.1241
     56  CA        72.2770  -15.4500   72.5270 C.3   172  PHE172      0.1605
     57  C         70.9430  -15.0860   71.8690 C.2   172  PHE172      0.2264
     58  O         70.7270  -14.0240   71.3280 O.2   172  PHE172     -0.2867
     59  CB        73.1630  -16.3940   71.5960 C.3   172  PHE172      0.0534
     60  CG        73.3810  -15.8450   70.2350 C.ar  172  PHE172     -0.0203
     61  CD1       72.4300  -16.0570   69.2010 C.ar  172  PHE172     -0.0042
     62  CD2       74.4930  -15.0290   69.9640 C.ar  172  PHE172     -0.0042
     63  CE1       72.6220  -15.5470   67.9420 C.ar  172  PHE172     -0.0003
     64  CE2       74.6850  -14.5130   68.6940 C.ar  172  PHE172     -0.0003
     65  CZ        73.7360  -14.7590   67.6780 C.ar  172  PHE172     -0.0000
     66  N         69.7280  -11.2970   70.9050 N.3   176  MET176     -0.1245
     67  CA        69.3640  -10.8630   69.5590 C.3   176  MET176      0.1570
     68  C         67.9030  -10.4070   69.4520 C.2   176  MET176      0.2261
     69  O         67.6260   -9.3710   68.8370 O.2   176  MET176     -0.2867
     70  CB        69.5020  -12.0500   68.6060 C.3   176  MET176      0.0387
     71  CG        70.9510  -12.4020   68.2880 C.3   176  MET176      0.0595
     72  SD        71.7980  -11.0820   67.3470 S.3   176  MET176     -0.1393
     73  CE        72.8960  -10.7200   68.6130 C.3   176  MET176      0.0692
     74  N         71.2590   -8.9630   60.0320 N.3   262  TRP262     -0.1241
     75  CA        72.4540   -9.4190   60.6520 C.3   262  TRP262      0.1605
     76  C         72.8390  -10.8650   60.2790 C.2   262  TRP262      0.2264
     77  O         73.3540  -11.6450   61.1080 O.2   262  TRP262     -0.2867
     78  CB        72.3490   -9.2780   62.1740 C.3   262  TRP262      0.0550
     79  CG        73.0120   -8.0240   62.6160 C.ar  262  TRP262      0.0003
     80  CD1       73.7100   -7.0830   61.8510 C.ar  262  TRP262      0.0946
     81  CD2       73.1440   -7.6410   63.9740 C.ar  262  TRP262      0.0152
     82  NE1       74.2550   -6.1080   62.7200 N.ar  262  TRP262     -0.2442
     83  CE2       73.9380   -6.4590   64.0140 C.ar  262  TRP262      0.0810
     84  CE3       72.7200   -8.2240   65.1620 C.ar  262  TRP262      0.0012
     85  CZ2       74.2480   -5.7990   65.2330 C.ar  262  TRP262      0.0191
     86  CZ3       73.0250   -7.5860   66.3850 C.ar  262  TRP262      0.0001
     87  CH2       73.7960   -6.3670   66.3970 C.ar  262  TRP262      0.0015
     88  N         76.5150  -10.1780   57.5560 N.3   265  HIS265     -0.1226
     89  CA        77.8020   -9.8710   58.2060 C.3   265  HIS265      0.1752
     90  C         78.4410  -11.0820   58.9120 C.2   265  HIS265      0.2596
     91  O         79.5780  -10.9250   59.3630 O.2   265  HIS265     -0.2718
     92  CB        77.6790   -8.6170   59.1490 C.3   265  HIS265      0.0759
     93  CG        77.0860   -8.9160   60.4990 C.ar  265  HIS265      0.0818
     94  ND1       77.3440   -8.1120   61.5910 N.ar  265  HIS265     -0.2268
     95  CD2       76.2990   -9.9340   60.9600 C.ar  265  HIS265      0.1154
     96  CE1       76.7250   -8.6080   62.6550 C.ar  265  HIS265      0.1986
     97  NE2       76.0710   -9.7020   62.3100 N.ar  265  HIS265     -0.2212
     98  N         77.7450  -12.2470   59.0420 N.am  266  ASP266     -0.1974
     99  CA        78.2580  -13.4520   59.7190 C.3   266  ASP266      0.1709
    100  C         79.1120  -14.3310   58.7680 C.2   266  ASP266      0.2293
    101  O         79.7640  -15.2080   59.2470 O.2   266  ASP266     -0.2864
    102  CB        77.1320  -14.3870   60.2300 C.3   266  ASP266      0.1436
    103  CG        76.3640  -13.7820   61.3840 C.2   266  ASP266      0.3671
    104  OD1       76.8970  -12.8590   62.0460 O.co2 266  ASP266     -0.2456
    105  OD2       75.2940  -14.2680   61.7360 O.co2 266  ASP266     -0.2456
    106  N         81.7990   -4.2600   65.8690 N.3   312  THR312     -0.1218
    107  CA        81.0080   -5.4000   65.3640 C.3   312  THR312      0.1862
    108  C         81.8840   -6.0510   64.2750 C.2   312  THR312      0.2287
    109  O         81.9410   -7.2820   64.2770 O.2   312  THR312     -0.2866
    110  CB        79.6750   -4.9510   64.8380 C.3   312  THR312      0.1770
    111  OG1       78.9730   -4.2880   65.9370 O.3   312  THR312     -0.2211
    112  CG2       78.8640   -6.1360   64.4560 C.3   312  THR312      0.0375
    113  N         84.1880   -8.2690   66.2510 N.3   315  LEU315     -0.1231
    114  CA        83.4140   -9.4250   66.7470 C.3   315  LEU315      0.1693
    115  C         83.3190  -10.4560   65.6340 C.2   315  LEU315      0.2588
    116  O         83.4560  -11.6400   65.8990 O.2   315  LEU315     -0.2718
    117  CB        81.9740   -9.0420   67.1720 C.3   315  LEU315      0.0284
    118  CG        82.0910   -8.1240   68.4470 C.3   315  LEU315      0.0019
    119  CD1       80.6870   -7.6820   68.7910 C.3   315  LEU315      0.0001
    120  CD2       82.6480   -8.9210   69.6020 C.3   315  LEU315      0.0001
    121  N         83.0290   -9.9880   64.4120 N.am  316  MET316     -0.2033
    122  CA        82.8680  -10.9300   63.2820 C.3   316  MET316      0.1291
    123  C         84.1880  -11.6480   63.0620 C.3   316  MET316      0.2036
    124  O         84.1880  -12.9000   62.7590 O.3   316  MET316     -0.2185
    125  CB        82.3340  -10.3180   62.0040 C.3   316  MET316      0.0360
    126  CG        80.9280   -9.6830   62.0650 C.3   316  MET316      0.0594
    127  SD        79.5950  -10.7660   62.6660 S.3   316  MET316     -0.1393
    128  CE        79.6760  -10.6160   64.4410 C.3   316  MET316      0.0692
    129  N         84.5320  -14.4010   65.6480 N.3   319  TYR319     -0.1227
    130  CA        83.4870  -15.4680   65.7650 C.3   319  TYR319      0.1736
    131  C         83.2340  -16.2310   64.4840 C.2   319  TYR319      0.2595
    132  O         82.7790  -17.4020   64.5670 O.2   319  TYR319     -0.2718
    133  CB        82.1650  -14.8320   66.2460 C.3   319  TYR319      0.0548
    134  CG        82.3190  -14.1610   67.5790 C.ar  319  TYR319     -0.0200
    135  CD1       83.2830  -14.5690   68.4810 C.ar  319  TYR319     -0.0009
    136  CD2       81.4560  -13.1070   67.9600 C.ar  319  TYR319     -0.0009
    137  CE1       83.4700  -13.9460   69.7310 C.ar  319  TYR319      0.0417
    138  CE2       81.6330  -12.4930   69.2030 C.ar  319  TYR319      0.0417
    139  CZ        82.6510  -12.8990   70.0760 C.ar  319  TYR319      0.1957
    140  OH        82.8530  -12.2370   71.3010 O.3   319  TYR319     -0.2866
    141  N         83.4170  -15.6150   63.3320 N.am  320  ASN320     -0.1974
    142  CA        82.6870  -16.0780   62.1290 C.3   320  ASN320      0.1688
    143  C         83.6020  -16.3790   60.9600 C.2   320  ASN320      0.2292
    144  O         84.7080  -15.8750   60.8800 O.2   320  ASN320     -0.2864
    145  CB        81.6380  -14.9950   61.7600 C.3   320  ASN320      0.1181
    146  CG        80.4150  -15.0190   62.6640 C.2   320  ASN320      0.2629
    147  OD1       79.9060  -13.9110   63.0610 O.2   320  ASN320     -0.2716
    148  ND2       79.8960  -16.2180   62.9740 N.am  320  ASN320     -0.0877
@<TRIPOS>BOND
     1    88    89    1
     2    89    90    1
     3    89    92    1
     4   100   101    2
     5   100    99    1
     6    90    98   am
     7    90    91    2
     8    98    99    1
     9    92    93    1
    10    99   102    1
    11    74    75    1
    12   102   103    1
    13    76    75    1
    14    76    77    2
    15    93    95   ar
    16    93    94   ar
    17    75    78    1
    18   144   143    2
    19   143   142    1
    20    95    97   ar
    21   103   105   ar
    22   103   104   ar
    23    94    96   ar
    24   145   142    1
    25   145   146    1
    26    80    79   ar
    27    80    82   ar
    28   125   126    1
    29   125   122    1
    30   126   127    1
    31   142   141    1
    32    78    79    1
    33    49    47   ar
    34    49    50   ar
    35    97    96   ar
    36    47    46   ar
    37    79    81   ar
    38   146   148   am
    39   146   147    2
    40   127   128    1
    41    82    83   ar
    42   124   123    1
    43   123   122    1
    44   122   121    1
    45    50    52   ar
    46    50    48   ar
    47   141   131   am
    48    52    54   ar
    49    46    48   ar
    50    46    45    1
    51    81    83   ar
    52    81    84   ar
    53    83    85   ar
    54    48    51   ar
    55    45    42    1
    56   108   109    2
    57   108   107    1
    58   121   115   am
    59   112   110    1
    60   131   132    2
    61   131   130    1
    62    54    53   ar
    63   110   107    1
    64   110   111    1
    65    84    86   ar
    66    85    87   ar
    67    39    37    1
    68    51    53   ar
    69   107   106    1
    70    42    41    1
    71    42    43    1
    72    41    35   am
    73   115   116    2
    74   115   114    1
    75   129   130    1
    76    33    34    1
    77   130   133    1
    78    43    44    1
    79   133   134    1
    80   113   114    1
    81    86    87   ar
    82    37    34    1
    83    37    38    1
    84   114   117    1
    85    34    35    1
    86    35    36    2
    87   117   118    1
    88    72    71    1
    89    72    73    1
    90   134   136   ar
    91   134   135   ar
    92    65    63   ar
    93    65    64   ar
    94    38    40    1
    95    63    61   ar
    96   136   138   ar
    97    71    70    1
    98   118   119    1
    99   118   120    1
   100   135   137   ar
   101    70    67    1
   102    64    62   ar
   103    69    68    2
   104    61    60   ar
   105   138   139   ar
   106    68    67    1
   107    67    66    1
   108   137   139   ar
   109    62    60   ar
   110   139   140    1
   111    60    59    1
   112     9    11   ar
   113     9     7   ar
   114    11    10   ar
   115     7     6   ar
   116    58    57    2
   117    10     8   ar
   118    59    56    1
   119    32    30    1
   120    57    56    1
   121    19    17    1
   122     6     8   ar
   123     6     5    1
   124    31    30    1
   125    56    55    1
   126    17    18    1
   127    17    16    1
   128    30    29    1
   129    28    27    2
   130     5     2    1
   131    29    26    1
   132    26    27    1
   133    26    25    1
   134    24    21    1
   135    16    13    1
   136     2     3    1
   137     2     1    1
   138    21    20    1
   139    21    22    1
   140     4     3    2
   141    20    14   am
   142    23    22    2
   143    14    15    2
   144    14    13    1
   145    13    12    1
