@<TRIPOS>MOLECULE
tmp/5cw2B00.pdb
 183 181 0 0 0
SMALL
GASTEIGER

@<TRIPOS>ATOM
      1  N         27.1070  -23.1350   12.3970 N.3    33  PHE33      -0.1228
      2  CA        27.3170  -24.5800   12.4270 C.3    33  PHE33       0.1721
      3  C         26.4040  -25.3460   11.4830 C.2    33  PHE33       0.2437
      4  O         25.2090  -25.0890   11.4660 O.2    33  PHE33      -0.2733
      5  CB        27.0780  -25.1260   13.8440 C.3    33  PHE33       0.0547
      6  CG        27.2160  -26.6280   13.9450 C.ar   33  PHE33      -0.0202
      7  CD1       28.4490  -27.2250   14.1340 C.ar   33  PHE33      -0.0042
      8  CD2       26.1210  -27.4400   13.8460 C.ar   33  PHE33      -0.0042
      9  CE1       28.5700  -28.5900   14.2250 C.ar   33  PHE33      -0.0003
     10  CE2       26.2540  -28.8100   13.9440 C.ar   33  PHE33      -0.0003
     11  CZ        27.4780  -29.3740   14.1330 C.ar   33  PHE33      -0.0000
     12  N         26.9580  -26.2900   10.6890 N.am   34  PRO34      -0.2729
     13  CA        28.3570  -26.5390   10.3120 C.3    34  PRO34       0.1401
     14  C         28.6690  -25.7420    9.0690 C.2    34  PRO34       0.2269
     15  O         28.3840  -26.1890    7.9670 O.2    34  PRO34      -0.2865
     16  CB        28.4000  -28.0520   10.0410 C.3    34  PRO34       0.0296
     17  CG        27.0310  -28.3810    9.5820 C.3    34  PRO34       0.0237
     18  CD        26.0820  -27.3820   10.2290 C.3    34  PRO34       0.0939
     19  N         23.3900  -18.2080   13.1520 N.3   101  ASP101     -0.1225
     20  CA        23.3760  -19.4310   13.9480 C.3   101  ASP101      0.1805
     21  C         24.2470  -19.2830   15.2130 C.2   101  ASP101      0.2597
     22  O         24.0330  -18.3870   16.0000 O.2   101  ASP101     -0.2718
     23  CB        23.8330  -20.6210   13.0840 C.3   101  ASP101      0.1424
     24  CG        23.4930  -21.9630   13.6870 C.2   101  ASP101      0.3668
     25  OD1       22.3220  -22.1750   14.0190 O.co2 101  ASP101     -0.2456
     26  OD2       24.3970  -22.8030   13.8290 O.co2 101  ASP101     -0.2456
     27  N         25.1990  -20.1820   15.4270 N.am  102  TRP102     -0.1976
     28  CA        26.1760  -20.0020   16.4850 C.3   102  TRP102      0.1640
     29  C         26.9180  -18.6650   16.3510 C.2   102  TRP102      0.2290
     30  O         27.1620  -17.9850   17.3320 O.2   102  TRP102     -0.2864
     31  CB        27.1640  -21.1590   16.4910 C.3   102  TRP102      0.0576
     32  CG        26.9000  -22.1370   17.5780 C.ar  102  TRP102      0.0006
     33  CD1       26.3890  -23.3730   17.4510 C.ar  102  TRP102      0.0946
     34  CD2       27.1110  -21.9320   18.9710 C.ar  102  TRP102      0.0152
     35  NE1       26.2660  -23.9670   18.6760 N.ar  102  TRP102     -0.2442
     36  CE2       26.7060  -23.0940   19.6350 C.ar  102  TRP102      0.0810
     37  CE3       27.6080  -20.8760   19.7270 C.ar  102  TRP102      0.0012
     38  CZ2       26.7780  -23.2420   21.0080 C.ar  102  TRP102      0.0191
     39  CZ3       27.6850  -21.0240   21.0840 C.ar  102  TRP102      0.0001
     40  CH2       27.2710  -22.1990   21.7140 C.ar  102  TRP102      0.0015
     41  N         24.9550  -16.1830   18.0860 N.3   105  LEU105     -0.1245
     42  CA        25.1610  -16.2660   19.5050 C.3   105  LEU105      0.1561
     43  C         26.4610  -15.5720   19.9040 C.2   105  LEU105      0.2260
     44  O         26.5580  -14.9400   20.9540 O.2   105  LEU105     -0.2867
     45  CB        25.1910  -17.7180   19.9210 C.3   105  LEU105      0.0270
     46  CG        24.5740  -18.0140   21.2640 C.3   105  LEU105      0.0019
     47  CD1       23.2270  -17.3140   21.4500 C.3   105  LEU105      0.0001
     48  CD2       24.3940  -19.4800   21.3210 C.3   105  LEU105      0.0001
     49  N         19.2290  -17.2570   15.1370 N.3   126  VAL126     -0.1245
     50  CA        19.1910  -17.3790   16.5930 C.3   126  VAL126      0.1561
     51  C         19.0500  -16.0010   17.2840 C.2   126  VAL126      0.2260
     52  O         19.9010  -15.1400   17.1220 O.2   126  VAL126     -0.2867
     53  CB        20.4460  -18.1100   17.1130 C.3   126  VAL126      0.0252
     54  CG1       20.3750  -18.2710   18.6040 C.3   126  VAL126      0.0019
     55  CG2       20.5690  -19.4910   16.4930 C.3   126  VAL126      0.0019
     56  N         17.4610  -28.1900   28.9800 N.3   140  PHE140     -0.1241
     57  CA        17.1320  -29.0120   27.8210 C.3   140  PHE140      0.1605
     58  C         16.6390  -30.4160   28.2160 C.2   140  PHE140      0.2264
     59  O         15.7200  -30.9520   27.6110 O.2   140  PHE140     -0.2867
     60  CB        18.3420  -29.0720   26.8770 C.3   140  PHE140      0.0534
     61  CG        18.7070  -27.7290   26.2600 C.ar  140  PHE140     -0.0203
     62  CD1       18.0710  -26.5770   26.6420 C.ar  140  PHE140     -0.0042
     63  CD2       19.6730  -27.6250   25.3100 C.ar  140  PHE140     -0.0042
     64  CE1       18.4000  -25.3690   26.1050 C.ar  140  PHE140     -0.0003
     65  CE2       19.9900  -26.4030   24.7680 C.ar  140  PHE140     -0.0003
     66  CZ        19.3460  -25.2870   25.1700 C.ar  140  PHE140     -0.0000
     67  N         19.2000  -33.2360   19.7240 N.3   151  TYR151     -0.1227
     68  CA        20.5120  -33.1560   19.1180 C.3   151  TYR151      0.1736
     69  C         21.5450  -32.4500   19.9650 C.2   151  TYR151      0.2595
     70  O         22.6860  -32.8640   19.9740 O.2   151  TYR151     -0.2718
     71  CB        20.4050  -32.4750   17.7620 C.3   151  TYR151      0.0548
     72  CG        20.2390  -30.9800   17.7750 C.ar  151  TYR151     -0.0200
     73  CD1       19.0680  -30.3920   18.1920 C.ar  151  TYR151     -0.0009
     74  CD2       21.2480  -30.1590   17.3130 C.ar  151  TYR151     -0.0009
     75  CE1       18.9240  -29.0270   18.1720 C.ar  151  TYR151      0.0417
     76  CE2       21.1100  -28.8210   17.3010 C.ar  151  TYR151      0.0417
     77  CZ        19.9570  -28.2580   17.7210 C.ar  151  TYR151      0.1957
     78  OH        19.8710  -26.9030   17.6670 O.3   151  TYR151     -0.2866
     79  N         21.1700  -31.4010   20.6850 N.am  152  ILE152     -0.1980
     80  CA        22.1560  -30.6510   21.4670 C.3   152  ILE152      0.1595
     81  C         22.6700  -31.5200   22.6240 C.2   152  ILE152      0.2287
     82  O         23.8260  -31.4120   23.0280 O.2   152  ILE152     -0.2864
     83  CB        21.5820  -29.3180   22.0290 C.3   152  ILE152      0.0276
     84  CG1       21.4130  -28.2850   20.9320 C.3   152  ILE152      0.0022
     85  CG2       22.5240  -28.7020   23.0260 C.3   152  ILE152      0.0022
     86  CD1       20.6640  -27.0520   21.3620 C.3   152  ILE152      0.0001
     87  N         21.8240  -31.9890    6.1120 N.3   176  MET176     -0.1245
     88  CA        21.7860  -30.6990    6.8090 C.3   176  MET176      0.1570
     89  C         21.0340  -29.6830    6.0090 C.2   176  MET176      0.2261
     90  O         20.0460  -29.1200    6.4470 O.2   176  MET176     -0.2867
     91  CB        23.1800  -30.1410    7.0660 C.3   176  MET176      0.0387
     92  CG        23.9610  -30.8670    8.1160 C.3   176  MET176      0.0595
     93  SD        23.7900  -30.1260    9.7350 S.3   176  MET176     -0.1393
     94  CE        22.5210  -31.1210   10.3860 C.3   176  MET176      0.0692
     95  N         16.7760  -30.2070    7.1190 N.3   180  LEU180     -0.1245
     96  CA        16.1640  -29.4230    8.2070 C.3   180  LEU180      0.1561
     97  C         14.7870  -28.9470    7.8210 C.2   180  LEU180      0.2260
     98  O         14.6040  -28.3890    6.7650 O.2   180  LEU180     -0.2867
     99  CB        16.9660  -28.2000    8.5940 C.3   180  LEU180      0.0270
    100  CG        17.6760  -28.4870    9.9030 C.3   180  LEU180      0.0019
    101  CD1       18.7050  -29.5910    9.7220 C.3   180  LEU180      0.0001
    102  CD2       18.2810  -27.2200   10.3650 C.3   180  LEU180      0.0001
    103  N         21.8280  -38.2440   14.7380 N.3   198  PHE198     -0.1241
    104  CA        21.2190  -37.0260   14.2840 C.3   198  PHE198      0.1605
    105  C         20.9550  -37.0580   12.7970 C.2   198  PHE198      0.2264
    106  O         19.8230  -36.9520   12.3470 O.2   198  PHE198     -0.2867
    107  CB        22.1350  -35.8710   14.6340 C.3   198  PHE198      0.0534
    108  CG        21.5920  -34.5540   14.3090 C.ar  198  PHE198     -0.0203
    109  CD1       20.3220  -34.2120   14.6400 C.ar  198  PHE198     -0.0042
    110  CD2       22.3710  -33.6310   13.6940 C.ar  198  PHE198     -0.0042
    111  CE1       19.8300  -32.9670   14.3330 C.ar  198  PHE198     -0.0003
    112  CE2       21.8920  -32.3950   13.4010 C.ar  198  PHE198     -0.0003
    113  CZ        20.6210  -32.0570   13.7130 C.ar  198  PHE198     -0.0000
    114  N         29.1760  -26.6030   21.0030 N.3   236  TYR236     -0.1241
    115  CA        28.0310  -27.0950   21.7660 C.3   236  TYR236      0.1605
    116  C         28.3950  -27.6820   23.0960 C.2   236  TYR236      0.2264
    117  O         27.6030  -27.6980   24.0130 O.2   236  TYR236     -0.2867
    118  CB        27.3010  -28.1740   20.9920 C.3   236  TYR236      0.0534
    119  CG        26.5290  -27.7090   19.7910 C.ar  236  TYR236     -0.0201
    120  CD1       25.2550  -27.1750   19.9250 C.ar  236  TYR236     -0.0009
    121  CD2       27.0490  -27.8490   18.5220 C.ar  236  TYR236     -0.0009
    122  CE1       24.5230  -26.7860   18.8240 C.ar  236  TYR236      0.0417
    123  CE2       26.3280  -27.4630   17.4240 C.ar  236  TYR236      0.0417
    124  CZ        25.0740  -26.9220   17.5730 C.ar  236  TYR236      0.1957
    125  OH        24.3750  -26.5350   16.4590 O.3   236  TYR236     -0.2866
    126  N         28.3100  -25.0800   26.1390 N.3   239  MET239     -0.1245
    127  CA        27.1190  -24.3130   26.5050 C.3   239  MET239      0.1570
    128  C         27.0150  -24.0660   28.0170 C.2   239  MET239      0.2261
    129  O         26.8390  -22.9260   28.4590 O.2   239  MET239     -0.2867
    130  CB        25.8920  -25.0260   25.9810 C.3   239  MET239      0.0387
    131  CG        25.9340  -25.0420   24.4950 C.3   239  MET239      0.0595
    132  SD        24.3930  -25.4730   23.7420 S.3   239  MET239     -0.1393
    133  CE        23.5830  -23.8970   23.7530 C.3   239  MET239      0.0692
    134  N         14.7810  -24.0030   15.0600 N.3   268  VAL268     -0.1245
    135  CA        15.4590  -23.6430   16.2980 C.3   268  VAL268      0.1561
    136  C         14.7030  -22.5650   17.0740 C.2   268  VAL268      0.2260
    137  O         14.8790  -22.4350   18.2850 O.2   268  VAL268     -0.2867
    138  CB        16.9110  -23.1920   16.0330 C.3   268  VAL268      0.0252
    139  CG1       17.6970  -24.3240   15.4230 C.3   268  VAL268      0.0019
    140  CG2       16.9540  -21.9740   15.1430 C.3   268  VAL268      0.0019
    141  N         12.7410  -23.6770   20.2810 N.3   271  PHE271     -0.1227
    142  CA        13.2760  -23.6940   21.6450 C.3   271  PHE271      0.1736
    143  C         14.2540  -22.5370   21.8720 C.2   271  PHE271      0.2595
    144  O         14.6900  -22.3010   22.9980 O.2   271  PHE271     -0.2718
    145  CB        13.9480  -25.0450   21.9570 C.3   271  PHE271      0.0547
    146  CG        15.1400  -25.3440   21.0920 C.ar  271  PHE271     -0.0202
    147  CD1       16.3960  -24.9460   21.4750 C.ar  271  PHE271     -0.0042
    148  CD2       15.0040  -26.0280   19.8980 C.ar  271  PHE271     -0.0042
    149  CE1       17.4860  -25.2020   20.6760 C.ar  271  PHE271     -0.0003
    150  CE2       16.1040  -26.2830   19.1080 C.ar  271  PHE271     -0.0003
    151  CZ        17.3340  -25.8720   19.5010 C.ar  271  PHE271     -0.0000
    152  N         14.5700  -21.7920   20.8170 N.am  272  MET272     -0.1979
    153  CA        15.3340  -20.5690   20.9870 C.3   272  MET272      0.1605
    154  C         14.4760  -19.3540   20.6620 C.2   272  MET272      0.2287
    155  O         14.7210  -18.5860   19.7430 O.2   272  MET272     -0.2864
    156  CB        16.5890  -20.6390   20.1540 C.3   272  MET272      0.0413
    157  CG        17.4690  -21.7540   20.6910 C.3   272  MET272      0.0598
    158  SD        18.6690  -21.2480   21.9240 S.3   272  MET272     -0.1393
    159  CE        19.5090  -20.1140   20.8780 C.3   272  MET272      0.0692
    160  N         16.2410  -22.6530    7.7540 N.3   295  HIS295     -0.1226
    161  CA        17.4250  -22.3540    8.5710 C.3   295  HIS295      0.1752
    162  C         18.5210  -21.5380    7.9000 C.2   295  HIS295      0.2596
    163  O         19.0070  -20.5760    8.4740 O.2   295  HIS295     -0.2718
    164  CB        18.0490  -23.6490    9.0850 C.3   295  HIS295      0.0759
    165  CG        19.1650  -23.4310   10.0520 C.ar  295  HIS295      0.0818
    166  ND1       18.9640  -22.9660   11.3390 N.ar  295  HIS295     -0.2268
    167  CD2       20.5020  -23.5970    9.9290 C.ar  295  HIS295      0.1154
    168  CE1       20.1200  -22.8550   11.9480 C.ar  295  HIS295      0.1986
    169  NE2       21.0730  -23.2270   11.1150 N.ar  295  HIS295     -0.2212
    170  N         18.8890  -21.9090    6.6880 N.am  296  TRP296     -0.1976
    171  CA        20.0990  -21.4220    6.0660 C.3   296  TRP296      0.1640
    172  C         19.8020  -20.1210    5.3470 C.2   296  TRP296      0.2290
    173  O         20.0630  -19.9510    4.1630 O.2   296  TRP296     -0.2864
    174  CB        20.6490  -22.4980    5.1210 C.3   296  TRP296      0.0576
    175  CG        20.4720  -23.8430    5.7070 C.ar  296  TRP296      0.0006
    176  CD1       19.4210  -24.6630    5.5330 C.ar  296  TRP296      0.0946
    177  CD2       21.3510  -24.4990    6.6130 C.ar  296  TRP296      0.0152
    178  NE1       19.5760  -25.8060    6.2690 N.ar  296  TRP296     -0.2442
    179  CE2       20.7590  -25.7310    6.9440 C.ar  296  TRP296      0.0810
    180  CE3       22.5800  -24.1710    7.1750 C.ar  296  TRP296      0.0012
    181  CZ2       21.3540  -26.6380    7.8050 C.ar  296  TRP296      0.0191
    182  CZ3       23.1720  -25.0730    8.0350 C.ar  296  TRP296      0.0001
    183  CH2       22.5590  -26.2910    8.3410 C.ar  296  TRP296      0.0015
@<TRIPOS>BOND
     1   173   172    2
     2   174   175    1
     3   174   171    1
     4   172   171    1
     5   176   175   ar
     6   176   178   ar
     7   175   177   ar
     8    89    90    2
     9    89    88    1
    10   171   170    1
    11    87    88    1
    12   178   179   ar
    13   177   179   ar
    14   177   180   ar
    15   170   162   am
    16    98    97    2
    17    88    91    1
    18   179   181   ar
    19    91    92    1
    20    95    96    1
    21   180   182   ar
    22   160   161    1
    23   181   183   ar
    24    97    96    1
    25   162   163    2
    26   162   161    1
    27    15    14    2
    28   182   183   ar
    29    92    93    1
    30    96    99    1
    31   161   164    1
    32    99   100    1
    33    14    13    1
    34   164   165    1
    35    17    16    1
    36    17    18    1
    37   101   100    1
    38    93    94    1
    39   100   102    1
    40   167   165   ar
    41   167   169   ar
    42    16    13    1
    43   165   166   ar
    44    18    12    1
    45    13    12    1
    46    12     3   am
    47   169   168   ar
    48   166   168   ar
    49     4     3    2
    50     3     2    1
    51   106   105    2
    52     1     2    1
    53     2     5    1
    54   105   104    1
    55    23    24    1
    56    23    20    1
    57    19    20    1
    58   112   110   ar
    59   112   113   ar
    60    24    26   ar
    61    24    25   ar
    62   110   108   ar
    63   113   111   ar
    64     5     6    1
    65     8    10   ar
    66     8     6   ar
    67    10    11   ar
    68     6     7   ar
    69    20    21    1
    70    11     9   ar
    71     7     9   ar
    72   104   107    1
    73   104   103    1
    74   108   107    1
    75   108   109   ar
    76   111   109   ar
    77   134   135    1
    78    49    50    1
    79   140   138    1
    80    21    27   am
    81    21    22    2
    82   139   138    1
    83    27    28    1
    84   138   135    1
    85   135   136    1
    86    29    28    1
    87    29    30    2
    88   125   124    1
    89    28    31    1
    90    31    32    1
    91    55    53    1
    92    50    53    1
    93    50    51    1
    94   136   137    2
    95    53    54    1
    96    52    51    2
    97    76    74   ar
    98    76    77   ar
    99    74    72   ar
   100   123   124   ar
   101   123   121   ar
   102    33    32   ar
   103    33    35   ar
   104   124   122   ar
   105    32    34   ar
   106    78    77    1
   107    77    75   ar
   108    71    72    1
   109    71    68    1
   110    72    73   ar
   111    41    42    1
   112    75    73   ar
   113   121   119   ar
   114    35    36   ar
   115   122   120   ar
   116    34    36   ar
   117    34    37   ar
   118   150   151   ar
   119   150   148   ar
   120    68    67    1
   121    68    69    1
   122   151   149   ar
   123    42    43    1
   124    42    45    1
   125    36    38   ar
   126    37    39   ar
   127   155   154    2
   128   119   120   ar
   129   119   118    1
   130   148   146   ar
   131    43    44    2
   132    45    46    1
   133    69    70    2
   134    69    79   am
   135   156   157    1
   136   156   153    1
   137   141   142    1
   138   154   153    1
   139   149   147   ar
   140    79    80    1
   141   157   158    1
   142   152   153    1
   143   152   143   am
   144   159   158    1
   145    84    86    1
   146    84    83    1
   147   118   115    1
   148   114   115    1
   149    38    40   ar
   150    39    40   ar
   151   146   147   ar
   152   146   145    1
   153    46    48    1
   154    46    47    1
   155    80    83    1
   156    80    81    1
   157   142   143    1
   158   142   145    1
   159   115   116    1
   160   143   144    2
   161    83    85    1
   162    81    82    2
   163   116   117    2
   164   132   133    1
   165   132   131    1
   166   131   130    1
   167    65    66   ar
   168    65    63   ar
   169    66    64   ar
   170    63    61   ar
   171   130   127    1
   172    64    62   ar
   173   126   127    1
   174    61    62   ar
   175    61    60    1
   176   127   128    1
   177    60    57    1
   178    59    58    2
   179    57    58    1
   180    57    56    1
   181   128   129    2
