@<TRIPOS>MOLECULE
tmp/5cw8A00.pdb
 214 201 0 0 0
SMALL
GASTEIGER

@<TRIPOS>ATOM
      1  N        -33.6420    7.1900  150.6010 N.3    15  MET15      -0.1245
      2  CA       -33.4600    6.7960  149.2090 C.3    15  MET15       0.1570
      3  C        -34.6260    7.2330  148.3230 C.2    15  MET15       0.2261
      4  O        -34.4150    7.7380  147.2180 O.2    15  MET15      -0.2867
      5  CB       -33.2630    5.2820  149.1110 C.3    15  MET15       0.0387
      6  CG       -31.9090    4.8090  149.6060 C.3    15  MET15       0.0595
      7  SD       -30.5630    5.3800  148.5500 S.3    15  MET15      -0.1393
      8  CE       -30.9470    4.5030  147.0350 C.3    15  MET15       0.0692
      9  N        -34.3710   10.0960  145.5350 N.3    19  SER19      -0.1217
     10  CA       -34.6380    9.6350  144.1800 C.3    19  SER19       0.1889
     11  C        -35.7070   10.4900  143.5160 C.2    19  SER19       0.2288
     12  O        -35.6520   10.7320  142.3110 O.2    19  SER19      -0.2866
     13  CB       -35.0630    8.1640  144.1810 C.3    19  SER19       0.2089
     14  OG       -33.9830    7.3260  144.5500 O.3    19  SER19      -0.2183
     15  N        -26.1980    5.2550  150.6540 N.3    57  LEU57      -0.1245
     16  CA       -25.2740    4.8280  149.6100 C.3    57  LEU57       0.1561
     17  C        -24.4940    3.5840  150.0270 C.2    57  LEU57       0.2260
     18  O        -24.3420    2.6380  149.2490 O.2    57  LEU57      -0.2867
     19  CB       -24.3020    5.9580  149.2690 C.3    57  LEU57       0.0270
     20  CG       -23.3160    5.6570  148.1410 C.3    57  LEU57       0.0019
     21  CD1      -24.0470    5.5240  146.8140 C.3    57  LEU57       0.0001
     22  CD2      -22.2410    6.7260  148.0700 C.3    57  LEU57       0.0001
     23  N        -26.6550    0.5430  149.9580 N.3    60  GLU60      -0.1231
     24  CA       -26.8940    0.1700  148.5710 C.3    60  GLU60       0.1699
     25  C        -25.6890   -0.5590  147.9860 C.2    60  GLU60       0.2592
     26  O        -25.8480   -1.5120  147.2310 O.2    60  GLU60      -0.2718
     27  CB       -27.2340    1.4020  147.7320 C.3    60  GLU60       0.0402
     28  CG       -28.5330    1.2680  146.9490 C.3    60  GLU60       0.1161
     29  CD       -29.7130    0.9050  147.8340 C.2    60  GLU60       0.3649
     30  OE1      -30.5240    0.0520  147.4180 O.co2  60  GLU60      -0.2457
     31  OE2      -29.8330    1.4720  148.9420 O.co2  60  GLU60      -0.2457
     32  N        -24.4850   -0.1190  148.3430 N.am   61  PHE61      -0.1976
     33  CA       -23.2700   -0.7860  147.8800 C.3    61  PHE61       0.1639
     34  C        -23.1560   -2.1910  148.4600 C.2    61  PHE61       0.2290
     35  O        -22.8790   -3.1490  147.7350 O.2    61  PHE61      -0.2864
     36  CB       -22.0260    0.0260  148.2450 C.3    61  PHE61       0.0560
     37  CG       -21.7500    1.1670  147.3110 C.ar   61  PHE61      -0.0200
     38  CD1      -22.3810    1.2400  146.0820 C.ar   61  PHE61      -0.0042
     39  CD2      -20.8550    2.1660  147.6610 C.ar   61  PHE61      -0.0042
     40  CE1      -22.1290    2.2880  145.2190 C.ar   61  PHE61      -0.0003
     41  CE2      -20.5990    3.2170  146.8020 C.ar   61  PHE61      -0.0003
     42  CZ       -21.2360    3.2780  145.5790 C.ar   61  PHE61      -0.0000
     43  N        -25.5200   -4.3270  146.6600 N.3    64  ILE64      -0.1245
     44  CA       -25.0300   -4.6230  145.3170 C.3    64  ILE64       0.1561
     45  C        -24.0030   -5.7510  145.4060 C.2    64  ILE64       0.2260
     46  O        -23.9150   -6.5990  144.5140 O.2    64  ILE64      -0.2867
     47  CB       -24.4300   -3.3660  144.6410 C.3    64  ILE64       0.0252
     48  CG1      -25.5380   -2.4100  144.1890 C.3    64  ILE64       0.0019
     49  CG2      -23.5490   -3.7470  143.4570 C.3    64  ILE64       0.0019
     50  CD1      -26.4230   -2.9660  143.0900 C.3    64  ILE64       0.0001
     51  N        -22.0250   -0.3770  138.0530 N.3    82  LEU82      -0.1245
     52  CA       -22.1950    0.8330  138.8550 C.3    82  LEU82       0.1561
     53  C        -22.4580    2.0650  137.9860 C.2    82  LEU82       0.2260
     54  O        -23.1900    2.9740  138.3790 O.2    82  LEU82      -0.2867
     55  CB       -20.9650    1.0630  139.7340 C.3    82  LEU82       0.0270
     56  CG       -20.7450    0.0300  140.8400 C.3    82  LEU82       0.0019
     57  CD1      -19.4830    0.3450  141.6210 C.3    82  LEU82       0.0001
     58  CD2      -21.9490   -0.0230  141.7680 C.3    82  LEU82       0.0001
     59  N        -25.9930    1.9280  136.7280 N.3    85  ALA85      -0.1231
     60  CA       -26.8180    2.3230  137.8620 C.3    85  ALA85       0.1694
     61  C        -26.8280    3.8410  138.0400 C.2    85  ALA85       0.2591
     62  O        -27.8820    4.4390  138.2640 O.2    85  ALA85      -0.2718
     63  CB       -26.3320    1.6450  139.1280 C.3    85  ALA85       0.0304
     64  N        -25.6520    4.4560  137.9380 N.am   86  MET86      -0.1979
     65  CA       -25.5330    5.9060  138.0400 C.3    86  MET86       0.1605
     66  C        -26.3910    6.6030  136.9970 C.2    86  MET86       0.2287
     67  O        -27.1740    7.4950  137.3230 O.2    86  MET86      -0.2864
     68  CB       -24.0800    6.3540  137.8790 C.3    86  MET86       0.0413
     69  CG       -23.9390    7.8670  137.7340 C.3    86  MET86       0.0598
     70  SD       -22.2660    8.4170  137.3510 S.3    86  MET86      -0.1393
     71  CE       -22.0290    7.6850  135.7350 C.3    86  MET86       0.0692
     72  N        -28.8630    5.5370  135.4590 N.3    88  ARG88      -0.1231
     73  CA       -30.2680    5.1800  135.5990 C.3    88  ARG88       0.1694
     74  C        -30.9510    5.9630  136.7210 C.2    88  ARG88       0.2592
     75  O        -32.1670    5.8890  136.8820 O.2    88  ARG88      -0.2718
     76  CB       -30.4080    3.6760  135.8510 C.3    88  ARG88       0.0321
     77  CG       -31.8750    3.2880  135.8160 C.3    88  ARG88       0.0489
     78  CD       -32.0100    1.7940  136.0030 C.3    88  ARG88       0.2205
     79  NE       -31.3040    1.3890  137.1990 N.pl3  88  ARG88      -0.0865
     80  CZ       -30.5770    0.2750  137.1800 C.cat  88  ARG88       0.5346
     81  NH1      -30.5140   -0.4550  136.0670 N.pl3  88  ARG88       0.1354
     82  NH2      -29.8920   -0.0950  138.2620 N.pl3  88  ARG88       0.1354
     83  N        -30.1700    6.7100  137.4960 N.am   89  ASN89      -0.1974
     84  CA       -30.7100    7.4540  138.6340 C.3    89  ASN89       0.1688
     85  C        -30.0530    8.8220  138.7960 C.2    89  ASN89       0.2292
     86  O        -29.2890    9.0310  139.7370 O.2    89  ASN89      -0.2864
     87  CB       -30.5350    6.6510  139.9240 C.3    89  ASN89       0.1181
     88  CG       -31.1900    5.2900  139.8560 C.2    89  ASN89       0.2629
     89  OD1      -32.3780    5.1450  140.1420 O.2    89  ASN89      -0.2716
     90  ND2      -30.4170    4.2800  139.4690 N.am   89  ASN89      -0.0877
     91  N        -30.8000   10.8600  142.2340 N.3    92  LEU92      -0.1231
     92  CA       -30.1420   10.1670  143.3340 C.3    92  LEU92       0.1693
     93  C        -28.6350   10.3990  143.2810 C.2    92  LEU92       0.2592
     94  O        -27.9840   10.6090  144.3070 O.2    92  LEU92      -0.2718
     95  CB       -30.4570    8.6750  143.2810 C.3    92  LEU92       0.0284
     96  CG       -29.8030    7.7880  144.3370 C.3    92  LEU92       0.0019
     97  CD1      -30.2880    8.1660  145.7280 C.3    92  LEU92       0.0001
     98  CD2      -30.0850    6.3260  144.0320 C.3    92  LEU92       0.0001
     99  N        -28.0900   10.3690  142.0690 N.am   93  THR93      -0.1953
    100  CA       -26.6740   10.6250  141.8480 C.3    93  THR93       0.1897
    101  C        -26.3200   12.0560  142.2400 C.2    93  THR93       0.2313
    102  O        -25.2570   12.3080  142.8120 O.2    93  THR93      -0.2863
    103  CB       -26.2820   10.3780  140.3780 C.3    93  THR93       0.1794
    104  OG1      -26.5490    9.0120  140.0350 O.3    93  THR93      -0.2208
    105  CG2      -24.8050   10.6740  140.1580 C.3    93  THR93       0.0378
    106  N        -26.2310   12.0980  146.0820 N.3    96  MET96      -0.1230
    107  CA       -25.0090   11.4680  146.5920 C.3    96  MET96       0.1702
    108  C        -23.7720   12.3280  146.3630 C.2    96  MET96       0.2593
    109  O        -22.9570   12.5060  147.2720 O.2    96  MET96      -0.2718
    110  CB       -24.7930   10.0960  145.9500 C.3    96  MET96       0.0401
    111  CG       -25.8540    9.0800  146.3110 C.3    96  MET96       0.0596
    112  SD       -26.0960    8.9290  148.0870 S.3    96  MET96      -0.1393
    113  CE       -27.4020    7.7320  148.1520 C.3    96  MET96       0.0692
    114  N        -23.6260   12.8460  145.1480 N.am   97  THR97      -0.1953
    115  CA       -22.4630   13.6620  144.8030 C.3    97  THR97       0.1897
    116  C        -22.4130   14.9200  145.6560 C.2    97  THR97       0.2313
    117  O        -21.3520   15.3170  146.1430 O.2    97  THR97      -0.2863
    118  CB       -22.4700   14.0630  143.3180 C.3    97  THR97       0.1794
    119  OG1      -22.5150   12.8840  142.5070 O.3    97  THR97      -0.2208
    120  CG2      -21.2280   14.8700  142.9760 C.3    97  THR97       0.0378
    121  N        -21.2840   14.0630  149.0640 N.3   100  TYR100     -0.1241
    122  CA       -19.8400   13.8720  149.1450 C.3   100  TYR100      0.1605
    123  C        -19.0960   15.1960  149.0720 C.2   100  TYR100      0.2264
    124  O        -18.0090   15.3350  149.6290 O.2   100  TYR100     -0.2867
    125  CB       -19.3530   12.9400  148.0380 C.3   100  TYR100      0.0534
    126  CG       -19.1650   11.5260  148.5170 C.ar  100  TYR100     -0.0201
    127  CD1      -17.9240   11.0800  148.9490 C.ar  100  TYR100     -0.0009
    128  CD2      -20.2340   10.6420  148.5610 C.ar  100  TYR100     -0.0009
    129  CE1      -17.7480    9.7900  149.3980 C.ar  100  TYR100      0.0417
    130  CE2      -20.0690    9.3500  149.0090 C.ar  100  TYR100      0.0417
    131  CZ       -18.8240    8.9300  149.4260 C.ar  100  TYR100      0.1957
    132  OH       -18.6550    7.6420  149.8740 O.3   100  TYR100     -0.2866
    133  N        -18.0850    3.6100  153.4300 N.3   114  VAL114     -0.1231
    134  CA       -18.4070    3.4960  152.0160 C.3   114  VAL114      0.1692
    135  C        -17.1380    3.1640  151.2420 C.2   114  VAL114      0.2591
    136  O        -17.1380    2.2390  150.4240 O.2   114  VAL114     -0.2718
    137  CB       -19.0790    4.7660  151.4720 C.3   114  VAL114      0.0266
    138  CG1      -19.2990    4.6380  149.9760 C.3   114  VAL114      0.0020
    139  CG2      -20.4040    4.9870  152.1670 C.3   114  VAL114      0.0020
    140  N        -16.0610    3.9020  151.5200 N.am  115  GLU115     -0.1979
    141  CA       -14.7820    3.6800  150.8460 C.3   115  GLU115      0.1602
    142  C        -14.4150    2.2070  150.8770 C.2   115  GLU115      0.2287
    143  O        -14.3990    1.5440  149.8280 O.2   115  GLU115     -0.2864
    144  CB       -13.6640    4.5020  151.4890 C.3   115  GLU115      0.0415
    145  CG       -13.5060    5.9050  150.9350 C.3   115  GLU115      0.1163
    146  CD       -12.1900    6.5420  151.3480 C.2   115  GLU115      0.3649
    147  OE1      -11.1550    5.8410  151.3090 O.co2 115  GLU115     -0.2457
    148  OE2      -12.1910    7.7360  151.7190 O.co2 115  GLU115     -0.2457
    149  N        -16.6870    0.0960  148.5710 N.3   118  ILE118     -0.1245
    150  CA       -16.6290    0.1740  147.1170 C.3   118  ILE118      0.1561
    151  C        -15.2350   -0.2550  146.6590 C.2   118  ILE118      0.2260
    152  O        -15.1020   -1.0340  145.7110 O.2   118  ILE118     -0.2867
    153  CB       -17.0320    1.5840  146.5990 C.3   118  ILE118      0.0252
    154  CG1      -17.1350    1.5680  145.0750 C.3   118  ILE118      0.0019
    155  CG2      -16.0380    2.6310  147.0720 C.3   118  ILE118      0.0019
    156  CD1      -18.1910    2.5070  144.5700 C.3   118  ILE118      0.0001
    157  N        -14.1340   -3.2400  144.2210 N.3   122  PHE122     -0.1241
    158  CA       -13.2750   -3.1140  143.0570 C.3   122  PHE122      0.1605
    159  C        -12.1070   -4.0870  143.1870 C.2   122  PHE122      0.2264
    160  O        -11.7920   -4.8240  142.2480 O.2   122  PHE122     -0.2867
    161  CB       -12.7770   -1.6780  142.8980 C.3   122  PHE122      0.0534
    162  CG       -13.8330   -0.7130  142.4330 C.ar  122  PHE122     -0.0203
    163  CD1      -14.8730   -1.1380  141.6260 C.ar  122  PHE122     -0.0042
    164  CD2      -13.7810    0.6250  142.8020 C.ar  122  PHE122     -0.0042
    165  CE1      -15.8410   -0.2450  141.1950 C.ar  122  PHE122     -0.0003
    166  CE2      -14.7480    1.5210  142.3750 C.ar  122  PHE122     -0.0003
    167  CZ       -15.7760    1.0860  141.5710 C.ar  122  PHE122     -0.0000
    168  N         -8.9850    2.7820  144.7850 N.3   140  ARG140     -0.1245
    169  CA        -9.0720    4.1520  145.2850 C.3   140  ARG140      0.1563
    170  C         -8.8750    5.1840  144.1670 C.2   140  ARG140      0.2260
    171  O         -9.5540    6.2170  144.1360 O.2   140  ARG140     -0.2867
    172  CB        -8.0460    4.3770  146.3980 C.3   140  ARG140      0.0307
    173  CG        -8.1420    5.7390  147.0690 C.3   140  ARG140      0.0489
    174  CD        -8.9960    5.6970  148.3320 C.3   140  ARG140      0.2205
    175  NE       -10.3730    5.2720  148.0830 N.pl3 140  ARG140     -0.0865
    176  CZ       -11.3680    6.0950  147.7620 C.cat 140  ARG140      0.5346
    177  NH1      -11.1470    7.3960  147.6390 N.pl3 140  ARG140      0.1354
    178  NH2      -12.5880    5.6150  147.5610 N.pl3 140  ARG140      0.1354
    179  N        -12.0860    5.3490  142.2220 N.3   143  SER143     -0.1217
    180  CA       -13.0730    6.1100  142.9780 C.3   143  SER143      0.1889
    181  C        -12.8020    7.6130  142.9130 C.2   143  SER143      0.2288
    182  O        -13.7290    8.4260  142.9150 O.2   143  SER143     -0.2866
    183  CB       -13.0900    5.6470  144.4330 C.3   143  SER143      0.2089
    184  OG       -13.1560    4.2330  144.5190 O.3   143  SER143     -0.2183
    185  N        -13.7400    8.9000  139.4860 N.3   146  TRP146     -0.1227
    186  CA       -15.1950    8.9230  139.5480 C.3   146  TRP146      0.1737
    187  C        -15.7180   10.1800  140.2370 C.2   146  TRP146      0.2595
    188  O        -16.6130   10.8560  139.7270 O.2   146  TRP146     -0.2718
    189  CB       -15.7160    7.6870  140.2850 C.3   146  TRP146      0.0564
    190  CG       -17.0480    7.2250  139.7880 C.ar  146  TRP146      0.0003
    191  CD1      -18.1460    7.9970  139.5470 C.ar  146  TRP146      0.0946
    192  CD2      -17.4240    5.8820  139.4710 C.ar  146  TRP146      0.0152
    193  NE1      -19.1820    7.2190  139.0930 N.ar  146  TRP146     -0.2442
    194  CE2      -18.7660    5.9150  139.0390 C.ar  146  TRP146      0.0810
    195  CE3      -16.7570    4.6540  139.5060 C.ar  146  TRP146      0.0012
    196  CZ2      -19.4510    4.7690  138.6470 C.ar  146  TRP146      0.0191
    197  CZ3      -17.4380    3.5170  139.1180 C.ar  146  TRP146      0.0001
    198  CH2      -18.7710    3.5820  138.6930 C.ar  146  TRP146      0.0015
    199  N        -15.1540   10.4880  141.4000 N.am  147  LEU147     -0.1980
    200  CA       -15.6410   11.6020  142.2020 C.3   147  LEU147      0.1596
    201  C        -15.3150   12.9530  141.5730 C.2   147  LEU147      0.2287
    202  O        -16.1470   13.8590  141.5800 O.2   147  LEU147     -0.2864
    203  CB       -15.0640   11.5370  143.6170 C.3   147  LEU147      0.0297
    204  CG       -15.5450   12.6620  144.5340 C.3   147  LEU147      0.0022
    205  CD1      -17.0720   12.6760  144.6200 C.3   147  LEU147      0.0001
    206  CD2      -14.9180   12.5330  145.9130 C.3   147  LEU147      0.0001
    207  N        -17.4870   13.4180  138.6250 N.3   150  LEU150     -0.1245
    208  CA       -18.8250   13.6880  139.1470 C.3   150  LEU150      0.1561
    209  C        -18.9380   15.1280  139.6280 C.2   150  LEU150      0.2260
    210  O        -20.0120   15.7210  139.5670 O.2   150  LEU150     -0.2867
    211  CB       -19.1830   12.7340  140.2870 C.3   150  LEU150      0.0270
    212  CG       -19.8060   11.4010  139.8800 C.3   150  LEU150      0.0019
    213  CD1      -20.0030   10.5300  141.1040 C.3   150  LEU150      0.0001
    214  CD2      -21.1220   11.6220  139.1550 C.3   150  LEU150      0.0001
@<TRIPOS>BOND
     1    72    73    1
     2    73    76    1
     3    73    74    1
     4    71    70    1
     5    77    76    1
     6    77    78    1
     7    78    79    1
     8    81    80    1
     9    74    75    2
    10    74    83   am
    11    59    60    1
    12    66    67    2
    13    66    65    1
    14    80    79    2
    15    80    82    1
    16    70    69    1
    17    83    84    1
    18    69    68    1
    19    60    61    1
    20    60    63    1
    21    68    65    1
    22    64    65    1
    23    64    61   am
    24    53    54    2
    25    53    52    1
    26    61    62    2
    27    51    52    1
    28   207   208    1
    29    84    85    1
    30    84    87    1
    31   196   198   ar
    32   196   194   ar
    33   198   197   ar
    34    85    86    2
    35    52    55    1
    36   194   193   ar
    37   194   192   ar
    38   193   191   ar
    39   197   195   ar
    40   208   209    1
    41   208   211    1
    42   214   212    1
    43    90    88   am
    44   192   195   ar
    45   192   190   ar
    46   185   186    1
    47   191   190   ar
    48   186   187    1
    49   186   189    1
    50   210   209    2
    51   188   187    2
    52    55    56    1
    53   190   189    1
    54    88    87    1
    55    88    89    2
    56   212   211    1
    57   212   213    1
    58   104   103    1
    59   105   103    1
    60   187   199   am
    61   103   100    1
    62    56    57    1
    63    56    58    1
    64   165   167   ar
    65   165   163   ar
    66   199   200    1
    67   167   166   ar
    68   201   202    2
    69   201   200    1
    70   163   162   ar
    71   100    99    1
    72   100   101    1
    73    99    93   am
    74   200   203    1
    75   179   180    1
    76    91    92    1
    77   101   102    2
    78   160   159    2
    79    12    11    2
    80   166   164   ar
    81   162   164   ar
    82   162   161    1
    83   119   118    1
    84   161   158    1
    85   181   182    2
    86   181   180    1
    87   120   118    1
    88   180   183    1
    89   158   159    1
    90   158   157    1
    91    50    48    1
    92    93    92    1
    93    93    94    2
    94    95    92    1
    95    95    96    1
    96   118   115    1
    97    49    47    1
    98    11    10    1
    99   203   204    1
   100    98    96    1
   101   171   170    2
   102   170   169    1
   103    10    13    1
   104    10     9    1
   105    13    14    1
   106    48    47    1
   107    96    97    1
   108   183   184    1
   109    46    45    2
   110   204   205    1
   111   204   206    1
   112   156   154    1
   113    47    44    1
   114   168   169    1
   115   115   114    1
   116   115   116    1
   117   154   153    1
   118   114   108   am
   119    40    42   ar
   120    40    38   ar
   121   169   172    1
   122    44    45    1
   123    44    43    1
   124    42    41   ar
   125   116   117    2
   126   152   151    2
   127   110   111    1
   128   110   107    1
   129    38    37   ar
   130   106   107    1
   131   111   112    1
   132   108   107    1
   133   108   109    2
   134   172   173    1
   135   153   155    1
   136   153   150    1
   137   151   150    1
   138    41    39   ar
   139    21    20    1
   140    28    27    1
   141    28    29    1
   142     8     7    1
   143   173   174    1
   144   150   149    1
   145     4     3    2
   146    26    25    2
   147    37    39   ar
   148    37    36    1
   149    30    29   ar
   150   178   176    1
   151   177   176    1
   152    27    24    1
   153    35    34    2
   154   176   175    2
   155    29    31   ar
   156    33    36    1
   157    33    32    1
   158    33    34    1
   159    25    32   am
   160    25    24    1
   161   125   126    1
   162   125   122    1
   163    22    20    1
   164   175   174    1
   165   112   113    1
   166    20    19    1
   167     3     2    1
   168   126   128   ar
   169   126   127   ar
   170     7     6    1
   171   128   130   ar
   172    24    23    1
   173   127   129   ar
   174   130   131   ar
   175   121   122    1
   176   123   122    1
   177   123   124    2
   178     5     2    1
   179     5     6    1
   180     2     1    1
   181    18    17    2
   182    19    16    1
   183   129   131   ar
   184   131   132    1
   185    16    17    1
   186    16    15    1
   187   143   142    2
   188   138   137    1
   189   136   135    2
   190   141   142    1
   191   141   144    1
   192   141   140    1
   193   145   146    1
   194   145   144    1
   195   135   140   am
   196   135   134    1
   197   147   146   ar
   198   146   148   ar
   199   137   134    1
   200   137   139    1
   201   134   133    1
