@<TRIPOS>MOLECULE
tmp/5cwaA01.pdb
 116 115 0 0 0
SMALL
GASTEIGER

@<TRIPOS>ATOM
      1  N         51.7600  -61.3640   11.2860 N.3    52  LEU52      -0.1231
      2  CA        51.6480  -61.0900    9.8540 C.3    52  LEU52       0.1693
      3  C         50.4070  -61.8070    9.3040 C.2    52  LEU52       0.2592
      4  O         50.2600  -63.0160    9.4650 O.2    52  LEU52      -0.2718
      5  CB        52.8610  -61.6560    9.1340 C.3    52  LEU52       0.0284
      6  CG        54.2550  -61.2260    9.5950 C.3    52  LEU52       0.0019
      7  CD1       55.3380  -61.9070    8.7600 C.3    52  LEU52       0.0001
      8  CD2       54.4090  -59.7190    9.5450 C.3    52  LEU52       0.0001
      9  N         49.5150  -61.0730    8.6610 N.am   53  GLU53      -0.1966
     10  CA        48.3490  -61.7060    8.0480 C.3    53  GLU53       0.1733
     11  C         48.2160  -61.1870    6.6180 C.2    53  GLU53       0.2617
     12  O         48.7920  -60.1350    6.2820 O.2    53  GLU53      -0.2715
     13  CB        47.0890  -61.3460    8.8220 C.3    53  GLU53       0.0429
     14  CG        46.8770  -61.9840   10.1860 C.3    53  GLU53       0.1163
     15  CD        45.4680  -61.6720   10.7200 C.2    53  GLU53       0.3649
     16  OE1       45.2530  -60.5870   11.3000 O.co2  53  GLU53      -0.2457
     17  OE2       44.5550  -62.4980   10.5180 O.co2  53  GLU53      -0.2457
     18  N         47.4220  -61.8860    5.8020 N.am   54  SER54      -0.1950
     19  CA        47.2500  -61.5330    4.3960 C.3    54  SER54       0.1924
     20  C         45.8510  -61.7290    3.8340 C.2    54  SER54       0.2314
     21  O         45.3460  -62.8370    3.8250 O.2    54  SER54      -0.2863
     22  CB        48.1830  -62.3930    3.5550 C.3    54  SER54       0.2116
     23  OG        48.3330  -61.7880    2.2980 O.3    54  SER54      -0.2180
     24  N         47.5970  -68.8000    5.5370 N.3    64  TRP64      -0.1241
     25  CA        48.5710  -68.6710    6.6100 C.3    64  TRP64       0.1605
     26  C         48.5940  -67.3000    7.2210 C.2    64  TRP64       0.2264
     27  O         48.4550  -66.2910    6.5390 O.2    64  TRP64      -0.2867
     28  CB        49.9790  -68.9930    6.0880 C.3    64  TRP64       0.0550
     29  CG        50.1470  -70.4110    5.6360 C.ar   64  TRP64       0.0003
     30  CD1       50.1650  -70.8580    4.3440 C.ar   64  TRP64       0.0946
     31  CD2       50.3030  -71.5690    6.4650 C.ar   64  TRP64       0.0152
     32  NE1       50.3230  -72.2180    4.3270 N.ar   64  TRP64      -0.2442
     33  CE2       50.4300  -72.6770    5.6130 C.ar   64  TRP64       0.0810
     34  CE3       50.3790  -71.7690    7.8490 C.ar   64  TRP64       0.0012
     35  CZ2       50.5980  -73.9770    6.0900 C.ar   64  TRP64       0.0191
     36  CZ3       50.5480  -73.0640    8.3200 C.ar   64  TRP64       0.0001
     37  CH2       50.6640  -74.1480    7.4500 C.ar   64  TRP64       0.0015
     38  N         51.3370  -65.6970   10.4870 N.3    66  PHE66      -0.1241
     39  CA        52.5690  -66.0470   11.1850 C.3    66  PHE66       0.1605
     40  C         52.6990  -65.1560   12.3720 C.2    66  PHE66       0.2264
     41  O         52.5170  -63.9390   12.2610 O.2    66  PHE66      -0.2867
     42  CB        53.7540  -65.8170   10.2830 C.3    66  PHE66       0.0534
     43  CG        53.6190  -66.4970    9.0030 C.ar   66  PHE66      -0.0203
     44  CD1       53.7070  -67.8680    8.9500 C.ar   66  PHE66      -0.0042
     45  CD2       53.2870  -65.7840    7.8540 C.ar   66  PHE66      -0.0042
     46  CE1       53.5390  -68.5220    7.7510 C.ar   66  PHE66      -0.0003
     47  CE2       53.0850  -66.4390    6.6610 C.ar   66  PHE66      -0.0003
     48  CZ        53.2190  -67.8080    6.6030 C.ar   66  PHE66      -0.0000
     49  N         49.0120  -57.3460    2.8030 N.3   278  TYR278     -0.1227
     50  CA        50.0460  -57.3830    3.8530 C.3   278  TYR278      0.1736
     51  C         49.6500  -56.6530    5.1470 C.2   278  TYR278      0.2595
     52  O         49.7460  -55.4260    5.2510 O.2   278  TYR278     -0.2718
     53  CB        51.3390  -56.7700    3.2940 C.3   278  TYR278      0.0548
     54  CG        51.9260  -57.5520    2.1780 C.ar  278  TYR278     -0.0200
     55  CD1       52.7340  -58.6130    2.4520 C.ar  278  TYR278     -0.0009
     56  CD2       51.6420  -57.2620    0.8370 C.ar  278  TYR278     -0.0009
     57  CE1       53.2650  -59.3760    1.4550 C.ar  278  TYR278      0.0417
     58  CE2       52.1600  -58.0500   -0.1900 C.ar  278  TYR278      0.0417
     59  CZ        52.9750  -59.1010    0.1460 C.ar  278  TYR278      0.1957
     60  OH        53.5850  -59.9060   -0.7770 O.3   278  TYR278     -0.2866
     61  N         49.1750  -57.3890    6.1400 N.am  279  MET279     -0.1965
     62  CA        48.8570  -56.7800    7.4440 C.3   279  MET279      0.1736
     63  C         50.0250  -57.0890    8.3430 C.2   279  MET279      0.2616
     64  O         50.5150  -58.2100    8.3550 O.2   279  MET279     -0.2715
     65  CB        47.6190  -57.4080    8.1030 C.3   279  MET279      0.0427
     66  CG        46.3750  -57.6030    7.2470 C.3   279  MET279      0.0599
     67  SD        45.5910  -56.0550    6.8960 S.3   279  MET279     -0.1393
     68  CE        45.1830  -55.4170    8.5160 C.3   279  MET279      0.0692
     69  N         50.4530  -56.1380    9.1450 N.am  280  TYR280     -0.1974
     70  CA        51.4890  -56.4830   10.0950 C.3   280  TYR280      0.1639
     71  C         51.3770  -55.6800   11.3470 C.2   280  TYR280      0.2290
     72  O         50.9710  -54.5230   11.3380 O.2   280  TYR280     -0.2864
     73  CB        52.8860  -56.3180    9.4740 C.3   280  TYR280      0.0560
     74  CG        53.0630  -55.0260    8.6660 C.ar  280  TYR280     -0.0198
     75  CD1       53.3070  -53.8140    9.2760 C.ar  280  TYR280     -0.0009
     76  CD2       52.9740  -55.0400    7.2870 C.ar  280  TYR280     -0.0009
     77  CE1       53.4450  -52.6510    8.5330 C.ar  280  TYR280      0.0417
     78  CE2       53.1300  -53.8900    6.5400 C.ar  280  TYR280      0.0417
     79  CZ        53.3700  -52.7010    7.1550 C.ar  280  TYR280      0.1957
     80  OH        53.5010  -51.5660    6.3520 O.3   280  TYR280     -0.2866
     81  N         58.4530  -53.7580    5.1380 N.3   437  VAL437     -0.1231
     82  CA        58.3250  -54.6560    6.2970 C.3   437  VAL437      0.1692
     83  C         58.1110  -56.0700    5.7830 C.2   437  VAL437      0.2593
     84  O         57.3230  -56.2870    4.8750 O.2   437  VAL437     -0.2718
     85  CB        57.1530  -54.2840    7.2230 C.3   437  VAL437      0.0266
     86  CG1       57.0910  -55.2440    8.4090 C.3   437  VAL437      0.0020
     87  CG2       57.2630  -52.8630    7.7470 C.3   437  VAL437      0.0020
     88  N         58.7710  -57.0440    6.3800 N.am  438  GLY438     -0.1942
     89  CA        58.7600  -58.3730    5.8370 C.3   438  GLY438      0.2014
     90  C         59.7810  -59.2840    6.4700 C.2   438  GLY438      0.2638
     91  O         60.2900  -59.0070    7.5610 O.2   438  GLY438     -0.2714
     92  N         60.0550  -60.3870    5.7780 N.am  439  TYR439     -0.1973
     93  CA        60.9710  -61.3850    6.2520 C.3   439  TYR439      0.1639
     94  C         61.8540  -62.0070    5.1680 C.2   439  TYR439      0.2290
     95  O         61.5240  -61.9980    3.9620 O.2   439  TYR439     -0.2864
     96  CB        60.2060  -62.5240    6.8940 C.3   439  TYR439      0.0560
     97  CG        59.3800  -63.3710    5.9380 C.ar  439  TYR439     -0.0198
     98  CD1       59.9550  -64.3810    5.1740 C.ar  439  TYR439     -0.0009
     99  CD2       58.0210  -63.1490    5.8100 C.ar  439  TYR439     -0.0009
    100  CE1       59.1860  -65.1460    4.3200 C.ar  439  TYR439      0.0417
    101  CE2       57.2400  -63.8940    4.9610 C.ar  439  TYR439      0.0417
    102  CZ        57.8120  -64.8890    4.2240 C.ar  439  TYR439      0.1957
    103  OH        56.9910  -65.6170    3.4090 O.3   439  TYR439     -0.2866
    104  N         59.5880  -62.2200    1.5730 N.3   447  ASP447     -0.1239
    105  CA        58.4230  -61.4720    1.2190 C.3   447  ASP447      0.1674
    106  C         58.4290  -60.1400    1.9310 C.2   447  ASP447      0.2266
    107  O         58.3920  -60.1030    3.1580 O.2   447  ASP447     -0.2867
    108  CB        57.1920  -62.2790    1.6280 C.3   447  ASP447      0.1410
    109  CG        55.9570  -61.9690    0.7700 C.2   447  ASP447      0.3668
    110  OD1       55.9650  -61.0240   -0.0410 O.co2 447  ASP447     -0.2456
    111  OD2       54.9850  -62.7290    0.8990 O.co2 447  ASP447     -0.2456
    112  N         56.5740  -56.2100    2.1620 N.3   449  ALA449     -0.1245
    113  CA        55.5550  -55.2680    1.8000 C.3   449  ALA449      0.1562
    114  C         56.1360  -53.8610    1.7380 C.2   449  ALA449      0.2260
    115  O         56.9730  -53.4940    2.5410 O.2   449  ALA449     -0.2867
    116  CB        54.4540  -55.3090    2.8580 C.3   449  ALA449      0.0290
@<TRIPOS>BOND
     1    60    59    1
     2    58    59   ar
     3    58    56   ar
     4   110   109   ar
     5    59    57   ar
     6   109   111   ar
     7   109   108    1
     8    56    54   ar
     9   105   104    1
    10   105   108    1
    11   105   106    1
    12    57    55   ar
    13   114   113    1
    14   114   115    2
    15   113   112    1
    16   113   116    1
    17   106   107    2
    18    54    55   ar
    19    54    53    1
    20    23    22    1
    21    49    50    1
    22    53    50    1
    23   103   102    1
    24    22    19    1
    25    21    20    2
    26    20    19    1
    27    50    51    1
    28    95    94    2
    29   102   100   ar
    30   102   101   ar
    31   100    98   ar
    32    32    30   ar
    33    32    33   ar
    34    30    29   ar
    35    19    18    1
    36    84    83    2
    37   101    99   ar
    38    81    82    1
    39    51    52    2
    40    51    61   am
    41    94    93    1
    42    98    97   ar
    43    24    25    1
    44    33    35   ar
    45    33    31   ar
    46    29    28    1
    47    29    31   ar
    48    92    93    1
    49    92    90   am
    50    83    82    1
    51    83    88   am
    52    18    11   am
    53    99    97   ar
    54    89    88    1
    55    89    90    1
    56    97    96    1
    57    28    25    1
    58    35    37   ar
    59    61    62    1
    60    93    96    1
    61    12    11    2
    62    82    85    1
    63    80    79    1
    64    31    34   ar
    65    90    91    2
    66    27    26    2
    67    78    79   ar
    68    78    76   ar
    69    48    47   ar
    70    48    46   ar
    71    25    26    1
    72    11    10    1
    73    47    45   ar
    74    67    66    1
    75    67    68    1
    76    79    77   ar
    77    85    87    1
    78    85    86    1
    79    66    65    1
    80    76    74   ar
    81    62    65    1
    82    62    63    1
    83    37    36   ar
    84    46    44   ar
    85    34    36   ar
    86    45    43   ar
    87    10     9    1
    88    10    13    1
    89    63    64    2
    90    63    69   am
    91    77    75   ar
    92     9     3   am
    93    74    75   ar
    94    74    73    1
    95     7     6    1
    96    13    14    1
    97    44    43   ar
    98    43    42    1
    99     5     6    1
   100     5     2    1
   101    69    70    1
   102     3     4    2
   103     3     2    1
   104    73    70    1
   105     8     6    1
   106     2     1    1
   107    70    71    1
   108    14    15    1
   109    42    39    1
   110    38    39    1
   111    17    15   ar
   112    15    16   ar
   113    39    40    1
   114    72    71    2
   115    41    40    2
