@<TRIPOS>MOLECULE
tmp/5cwaA00.pdb
 147 140 0 0 0
SMALL
GASTEIGER

@<TRIPOS>ATOM
      1  N         56.9560  -39.4230   -6.5640 N.3   250  VAL250     -0.1245
      2  CA        55.9830  -39.6840   -5.4920 C.3   250  VAL250      0.1561
      3  C         56.4060  -38.9100   -4.2360 C.2   250  VAL250      0.2260
      4  O         57.1660  -39.4250   -3.4100 O.2   250  VAL250     -0.2867
      5  CB        55.8410  -41.2130   -5.2320 C.3   250  VAL250      0.0252
      6  CG1       54.7400  -41.5020   -4.2070 C.3   250  VAL250      0.0019
      7  CG2       55.5320  -41.9600   -6.5420 C.3   250  VAL250      0.0019
      8  N         48.9740  -52.4200    0.6460 N.3   300  PRO300     -0.2102
      9  CA        48.4120  -53.0320   -0.5760 C.3   300  PRO300      0.1504
     10  C         49.4030  -53.6250   -1.5600 C.2   300  PRO300      0.2575
     11  O         48.9720  -54.1940   -2.5640 O.2   300  PRO300     -0.2718
     12  CB        47.7090  -51.8590   -1.2640 C.3   300  PRO300      0.0282
     13  CG        48.5360  -50.6640   -0.8580 C.3   300  PRO300      0.0208
     14  CD        49.0040  -50.9500    0.5540 C.3   300  PRO300      0.0893
     15  N         50.7000  -53.4840   -1.3140 N.am  301  GLU301     -0.1980
     16  CA        51.6670  -53.8450   -2.3600 C.3   301  GLU301      0.1602
     17  C         52.9670  -54.3460   -1.8120 C.2   301  GLU301      0.2287
     18  O         53.5600  -53.7030   -0.9450 O.2   301  GLU301     -0.2864
     19  CB        51.9540  -52.6280   -3.2680 C.3   301  GLU301      0.0415
     20  CG        52.6290  -53.0040   -4.5980 C.3   301  GLU301      0.1163
     21  CD        53.0460  -51.8090   -5.4810 C.2   301  GLU301      0.3649
     22  OE1       52.9990  -50.6350   -5.0200 O.co2 301  GLU301     -0.2457
     23  OE2       53.4420  -52.0730   -6.6510 O.co2 301  GLU301     -0.2457
     24  N         51.9760  -51.7420   -9.4110 N.3   316  ILE316     -0.1231
     25  CA        50.5950  -51.3170   -9.2920 C.3   316  ILE316      0.1692
     26  C         50.5370  -49.8070   -9.5500 C.2   316  ILE316      0.2592
     27  O         51.1940  -49.0120   -8.8610 O.2   316  ILE316     -0.2718
     28  CB        50.0190  -51.5850   -7.8710 C.3   316  ILE316      0.0266
     29  CG1       49.9680  -53.0740   -7.5430 C.3   316  ILE316      0.0019
     30  CG2       48.5990  -51.0570   -7.7490 C.3   316  ILE316      0.0020
     31  CD1       49.4940  -53.3700   -6.1210 C.3   316  ILE316      0.0001
     32  N         49.7180  -49.4220  -10.5160 N.am  317  ALA317     -0.1966
     33  CA        49.5160  -48.0190  -10.8410 C.3   317  ALA317      0.1728
     34  C         48.2960  -47.8850  -11.7300 C.2   317  ALA317      0.2617
     35  O         48.0510  -48.7020  -12.6040 O.2   317  ALA317     -0.2715
     36  CB        50.7310  -47.4390  -11.5300 C.3   317  ALA317      0.0334
     37  N         47.5400  -46.8310  -11.5030 N.am  318  GLY318     -0.1940
     38  CA        46.2960  -46.6170  -12.1980 C.3   318  GLY318      0.2014
     39  C         45.2540  -46.8750  -11.1440 C.2   318  GLY318      0.2639
     40  O         45.3150  -47.9070  -10.4630 O.2   318  GLY318     -0.2714
     41  N         44.3420  -45.9150  -10.9800 N.am  319  THR319     -0.1950
     42  CA        43.2800  -46.0470  -10.0080 C.3   319  THR319      0.1897
     43  C         41.9310  -45.5110  -10.4540 C.2   319  THR319      0.2313
     44  O         41.8200  -44.5320  -11.1910 O.2   319  THR319     -0.2863
     45  CB        43.6480  -45.3790   -8.6880 C.3   319  THR319      0.1794
     46  OG1       44.9550  -45.8110   -8.3040 O.3   319  THR319     -0.2208
     47  CG2       42.6440  -45.7750   -7.5990 C.3   319  THR319      0.0378
     48  N         42.8770  -50.9950   -9.3160 N.3   382  HIS382     -0.1241
     49  CA        44.1320  -50.5690   -9.9640 C.3   382  HIS382      0.1621
     50  C         44.4650  -51.4070  -11.1720 C.2   382  HIS382      0.2264
     51  O         43.9220  -52.5070  -11.3550 O.2   382  HIS382     -0.2867
     52  CB        45.3330  -50.7260   -9.0240 C.3   382  HIS382      0.0745
     53  CG        45.2530  -49.9310   -7.7640 C.ar  382  HIS382      0.0817
     54  ND1       45.2020  -48.5530   -7.7510 N.ar  382  HIS382     -0.2268
     55  CD2       45.2660  -50.3230   -6.4640 C.ar  382  HIS382      0.1154
     56  CE1       45.1720  -48.1300   -6.4950 C.ar  382  HIS382      0.1986
     57  NE2       45.2010  -49.1830   -5.6970 N.ar  382  HIS382     -0.2212
     58  N         56.8770  -47.3350   -7.1150 N.3   409  THR409     -0.1203
     59  CA        55.5610  -46.7980   -6.7960 C.3   409  THR409      0.1994
     60  C         55.6270  -45.8570   -5.6350 C.2   409  THR409      0.2617
     61  O         54.6960  -45.0810   -5.4460 O.2   409  THR409     -0.2717
     62  CB        54.5170  -47.8980   -6.4860 C.3   409  THR409      0.1784
     63  OG1       55.0580  -48.8260   -5.5630 O.3   409  THR409     -0.2211
     64  CG2       54.1420  -48.6480   -7.7440 C.3   409  THR409      0.0376
     65  N         56.7320  -45.8990   -4.8910 N.am  410  LEU410     -0.1979
     66  CA        57.0170  -44.9220   -3.8070 C.3   410  LEU410      0.1596
     67  C         58.1870  -43.9270   -4.0050 C.2   410  LEU410      0.2287
     68  O         58.6840  -43.3380   -3.0250 O.2   410  LEU410     -0.2864
     69  CB        57.2920  -45.7140   -2.5000 C.3   410  LEU410      0.0297
     70  CG        56.0680  -45.8770   -1.6170 C.3   410  LEU410      0.0022
     71  CD1       55.6770  -44.5300   -1.0860 C.3   410  LEU410      0.0001
     72  CD2       54.9100  -46.4890   -2.4160 C.3   410  LEU410      0.0001
     73  N         58.6160  -44.8830    6.0980 N.3   433  TYR433     -0.1241
     74  CA        57.7440  -44.6250    4.9660 C.3   433  TYR433      0.1605
     75  C         58.4500  -44.9010    3.6180 C.2   433  TYR433      0.2264
     76  O         59.5320  -44.3910    3.3820 O.2   433  TYR433     -0.2867
     77  CB        57.2450  -43.1890    4.9960 C.3   433  TYR433      0.0534
     78  CG        56.3530  -42.8900    3.8140 C.ar  433  TYR433     -0.0201
     79  CD1       55.0720  -43.4290    3.7190 C.ar  433  TYR433     -0.0009
     80  CD2       56.7880  -42.0970    2.7870 C.ar  433  TYR433     -0.0009
     81  CE1       54.2670  -43.1570    2.6370 C.ar  433  TYR433      0.0417
     82  CE2       55.9980  -41.8260    1.7080 C.ar  433  TYR433      0.0417
     83  CZ        54.7410  -42.3790    1.6100 C.ar  433  TYR433      0.1957
     84  OH        53.9380  -42.0950    0.5020 O.3   433  TYR433     -0.2866
     85  N         53.6370  -48.5960    3.5790 N.3   452  ILE452     -0.1231
     86  CA        52.6510  -47.5260    3.4350 C.3   452  ILE452      0.1692
     87  C         51.3670  -47.9050    4.2360 C.2   452  ILE452      0.2591
     88  O         51.1850  -49.0690    4.6040 O.2   452  ILE452     -0.2718
     89  CB        52.2690  -47.2950    1.9610 C.3   452  ILE452      0.0266
     90  CG1       51.9990  -48.6080    1.2240 C.3   452  ILE452      0.0019
     91  CG2       53.3770  -46.5670    1.2430 C.3   452  ILE452      0.0020
     92  CD1       51.5270  -48.4270   -0.2130 C.3   452  ILE452      0.0001
     93  N         50.4800  -46.9320    4.4690 N.am  453  ARG453     -0.1980
     94  CA        49.2510  -47.1380    5.2400 C.3   453  ARG453      0.1597
     95  C         49.6670  -47.7650    6.5550 C.2   453  ARG453      0.2287
     96  O         49.1760  -48.8140    6.9880 O.2   453  ARG453     -0.2864
     97  CB        48.2480  -48.0000    4.4700 C.3   453  ARG453      0.0334
     98  CG        46.7770  -47.8350    4.9020 C.3   453  ARG453      0.0492
     99  CD        45.7900  -48.2910    3.8010 C.3   453  ARG453      0.2205
    100  NE        45.9190  -49.7230    3.5080 N.pl3 453  ARG453     -0.0865
    101  CZ        45.2210  -50.4140    2.6010 C.cat 453  ARG453      0.5346
    102  NH1       44.2980  -49.8330    1.8440 N.pl3 453  ARG453      0.1354
    103  NH2       45.4560  -51.7200    2.4710 N.pl3 453  ARG453      0.1354
    104  N         52.5530  -41.2610    7.5930 N.3   465  GLN465     -0.1231
    105  CA        52.9960  -40.5810    6.3910 C.3   465  GLN465      0.1698
    106  C         52.3020  -41.1470    5.1590 C.2   465  GLN465      0.2592
    107  O         52.1550  -42.3640    5.0040 O.2   465  GLN465     -0.2718
    108  CB        54.5090  -40.7520    6.2640 C.3   465  GLN465      0.0381
    109  CG        55.1230  -39.8420    5.2060 C.3   465  GLN465      0.0905
    110  CD        56.5570  -39.3970    5.4950 C.2   465  GLN465      0.2608
    111  OE1       57.1090  -39.5980    6.5890 O.2   465  GLN465     -0.2717
    112  NE2       57.1710  -38.7980    4.4820 N.am  465  GLN465     -0.0878
    113  N         51.9240  -40.2680    4.2540 N.am  466  ALA466     -0.1966
    114  CA        51.2230  -40.6570    3.0580 C.3   466  ALA466      0.1728
    115  C         51.5970  -39.7250    1.9080 C.2   466  ALA466      0.2617
    116  O         51.9740  -38.5680    2.1290 O.2   466  ALA466     -0.2715
    117  CB        49.7240  -40.6040    3.3110 C.3   466  ALA466      0.0334
    118  N         51.4650  -40.2400    0.6890 N.am  467  GLY467     -0.1940
    119  CA        51.7980  -39.5010   -0.5090 C.3   467  GLY467      0.2014
    120  C         51.0770  -40.0860   -1.7080 C.2   467  GLY467      0.2639
    121  O         50.1380  -40.8580   -1.5660 O.2   467  GLY467     -0.2714
    122  N         51.5220  -39.7110   -2.9000 N.am  468  GLY468     -0.1939
    123  CA        50.8790  -40.1250   -4.1500 C.3   468  GLY468      0.2014
    124  C         51.6770  -39.6550   -5.3540 C.2   468  GLY468      0.2639
    125  O         52.4350  -38.6710   -5.2880 O.2   468  GLY468     -0.2714
    126  N         51.4900  -40.3520   -6.4650 N.am  469  GLY469     -0.1954
    127  CA        52.3350  -40.1650   -7.6320 C.3   469  GLY469      0.1869
    128  C         51.9600  -38.8880   -8.3300 C.2   469  GLY469      0.2309
    129  O         50.7740  -38.5930   -8.4940 O.2   469  GLY469     -0.2863
    130  N         44.1240  -36.3700   -1.9870 N.3   482  GLU482     -0.1245
    131  CA        44.2920  -37.8040   -2.1340 C.3   482  GLU482      0.1567
    132  C         45.3280  -38.3170   -1.1020 C.2   482  GLU482      0.2260
    133  O         45.0820  -39.3170   -0.4220 O.2   482  GLU482     -0.2867
    134  CB        44.6620  -38.1970   -3.5720 C.3   482  GLU482      0.0388
    135  CG        44.9700  -39.6860   -3.6740 C.3   482  GLU482      0.1160
    136  CD        45.7440  -40.0560   -4.9140 C.2   482  GLU482      0.3649
    137  OE1       45.1080  -40.0140   -5.9890 O.co2 482  GLU482     -0.2457
    138  OE2       46.9640  -40.3900   -4.8040 O.co2 482  GLU482     -0.2457
    139  N         44.6160  -40.8240    2.2230 N.3   486  LYS486     -0.1245
    140  CA        45.3540  -42.0610    2.4660 C.3   486  LYS486      0.1561
    141  C         45.7740  -42.1060    3.9020 C.2   486  LYS486      0.2260
    142  O         45.5820  -43.1030    4.5750 O.2   486  LYS486     -0.2867
    143  CB        46.5680  -42.1390    1.5670 C.3   486  LYS486      0.0271
    144  CG        46.1860  -42.3870    0.1190 C.3   486  LYS486      0.0035
    145  CD        47.3730  -42.1940   -0.7920 C.3   486  LYS486      0.0206
    146  CE        47.0700  -42.5870   -2.2290 C.3   486  LYS486      0.1093
    147  NZ        48.3120  -42.5970   -3.0730 N.3   486  LYS486     -0.1314
@<TRIPOS>BOND
     1    35    34    2
     2    38    37    1
     3    38    39    1
     4    34    37   am
     5    34    33    1
     6    36    33    1
     7    51    50    2
     8    44    43    2
     9    50    49    1
    10    39    41   am
    11    39    40    2
    12    41    42    1
    13    33    32    1
    14    32    26   am
    15    43    42    1
    16    42    45    1
    17    49    48    1
    18    49    52    1
    19    26    25    1
    20    26    27    2
    21    24    25    1
    22    25    28    1
    23    52    53    1
    24    45    46    1
    25    45    47    1
    26   129   128    2
    27   128   127    1
    28    28    30    1
    29    28    29    1
    30    53    54   ar
    31    53    55   ar
    32    54    56   ar
    33    64    62    1
    34   127   126    1
    35    29    31    1
    36    58    59    1
    37    59    62    1
    38    59    60    1
    39    23    21   ar
    40     1     2    1
    41     7     5    1
    42    56    57   ar
    43    62    63    1
    44   126   124   am
    45    55    57   ar
    46   137   136   ar
    47    60    61    2
    48    60    65   am
    49     2     5    1
    50     2     3    1
    51    21    22   ar
    52    21    20    1
    53   124   125    2
    54   124   123    1
    55     5     6    1
    56   136   138   ar
    57   136   135    1
    58    65    66    1
    59    20    19    1
    60     3     4    2
    61   123   122    1
    62    67    66    1
    63    67    68    2
    64    66    69    1
    65   135   134    1
    66   134   131    1
    67    19    16    1
    68   147   146    1
    69   122   120   am
    70    11    10    2
    71    69    70    1
    72    72    70    1
    73    16    17    1
    74    16    15    1
    75   146   145    1
    76   131   130    1
    77   131   132    1
    78    17    18    2
    79   120   121    2
    80   120   119    1
    81    70    71    1
    82    10    15   am
    83    10     9    1
    84    12    13    1
    85    12     9    1
    86   132   133    2
    87    13    14    1
    88   145   144    1
    89     9     8    1
    90   119   118    1
    91    92    90    1
    92   144   143    1
    93    84    83    1
    94    14     8    1
    95   118   115   am
    96    90    89    1
    97    91    89    1
    98   143   140    1
    99    83    82   ar
   100    83    81   ar
   101    82    80   ar
   102   102   101    1
   103   115   116    2
   104   115   114    1
   105    89    86    1
   106   139   140    1
   107   140   141    1
   108   103   101    1
   109   101   100    2
   110    81    79   ar
   111    80    78   ar
   112   114   117    1
   113   114   113    1
   114    76    75    2
   115    86    85    1
   116    86    87    1
   117   100    99    1
   118    75    74    1
   119    79    78   ar
   120    99    98    1
   121    78    77    1
   122   141   142    2
   123    87    93   am
   124    87    88    2
   125   113   106   am
   126    93    94    1
   127    97    98    1
   128    97    94    1
   129   112   110   am
   130    74    77    1
   131    74    73    1
   132   107   106    2
   133   106   105    1
   134   109   110    1
   135   109   108    1
   136    94    95    1
   137   110   111    2
   138   108   105    1
   139   105   104    1
   140    95    96    2
