@<TRIPOS>MOLECULE
tmp/5cweA00.pdb
 140 133 0 0 0
SMALL
GASTEIGER

@<TRIPOS>ATOM
      1  N         -3.7200    8.4550   12.6460 N.3    75  ASP75      -0.1239
      2  CA        -3.5150    7.3870   13.6390 C.3    75  ASP75       0.1674
      3  C         -2.2770    6.5410   13.3520 C.2    75  ASP75       0.2266
      4  O         -1.5190    6.2500   14.2700 O.2    75  ASP75      -0.2867
      5  CB        -4.7660    6.5060   13.8240 C.3    75  ASP75       0.1410
      6  CG        -5.1440    5.7210   12.5740 C.2    75  ASP75       0.3668
      7  OD1       -5.4460    4.4960   12.6890 O.co2  75  ASP75      -0.2456
      8  OD2       -5.1350    6.3360   11.4890 O.co2  75  ASP75      -0.2456
      9  N         -0.7470   -0.4720   14.8180 N.3    82  TYR82      -0.1241
     10  CA        -1.4680   -1.2010   15.8570 C.3    82  TYR82       0.1605
     11  C         -2.5180   -2.1170   15.2000 C.2    82  TYR82       0.2264
     12  O         -2.7210   -2.0810   13.9630 O.2    82  TYR82      -0.2867
     13  CB        -2.1390   -0.2370   16.8450 C.3    82  TYR82       0.0534
     14  CG        -3.3140    0.5700   16.2870 C.ar   82  TYR82      -0.0201
     15  CD1       -3.1120    1.6430   15.4290 C.ar   82  TYR82      -0.0009
     16  CD2       -4.6210    0.2830   16.6590 C.ar   82  TYR82      -0.0009
     17  CE1       -4.1780    2.3710   14.9340 C.ar   82  TYR82       0.0417
     18  CE2       -5.6920    1.0040   16.1630 C.ar   82  TYR82       0.0417
     19  CZ        -5.4700    2.0390   15.3100 C.ar   82  TYR82       0.1957
     20  OH        -6.5430    2.7700   14.8450 O.3    82  TYR82      -0.2866
     21  N         -5.6570   -2.6440   14.5530 N.3    84  LEU84      -0.1245
     22  CA        -6.7460   -2.3730   13.6110 C.3    84  LEU84       0.1561
     23  C         -6.2670   -1.7120   12.3280 C.2    84  LEU84       0.2260
     24  O         -7.0990   -1.3260   11.5150 O.2    84  LEU84      -0.2867
     25  CB        -7.8790   -1.5440   14.2780 C.3    84  LEU84       0.0270
     26  CG        -8.7560   -2.2910   15.2980 C.3    84  LEU84       0.0019
     27  CD1       -9.6790   -1.3590   16.0490 C.3    84  LEU84       0.0001
     28  CD2       -9.5900   -3.3800   14.6390 C.3    84  LEU84       0.0001
     29  N        -10.6910   11.5110   19.3800 N.3   167  ILE167     -0.1231
     30  CA       -10.1270   10.6860   18.2880 C.3   167  ILE167      0.1692
     31  C        -11.1100    9.5760   17.8040 C.2   167  ILE167      0.2591
     32  O        -10.9780    9.0480   16.6980 O.2   167  ILE167     -0.2718
     33  CB        -8.7270   10.0770   18.6540 C.3   167  ILE167      0.0266
     34  CG1       -8.8380    8.7630   19.4130 C.3   167  ILE167      0.0019
     35  CG2       -7.8320   11.0480   19.4260 C.3   167  ILE167      0.0020
     36  CD1       -8.5910    7.5520   18.5300 C.3   167  ILE167      0.0001
     37  N        -12.0520    9.2130   18.6770 N.am  168  VAL168     -0.1980
     38  CA       -13.0720    8.2040   18.4170 C.3   168  VAL168      0.1595
     39  C        -14.3080    8.8670   17.7400 C.2   168  VAL168      0.2287
     40  O        -14.9930    8.2320   16.9300 O.2   168  VAL168     -0.2864
     41  CB       -13.3590    7.4390   19.7490 C.3   168  VAL168      0.0276
     42  CG1      -14.8140    7.2260   20.0080 C.3   168  VAL168      0.0022
     43  CG2      -12.5970    6.1230   19.8050 C.3   168  VAL168      0.0022
     44  N         -4.3360   13.6840   18.6540 N.3   180  TYR180     -0.1241
     45  CA        -3.4000   12.6010   18.3960 C.3   180  TYR180      0.1605
     46  C         -2.0010   12.9210   18.8920 C.2   180  TYR180      0.2264
     47  O         -1.3400   12.0450   19.4360 O.2   180  TYR180     -0.2867
     48  CB        -3.3280   12.2420   16.9120 C.3   180  TYR180      0.0534
     49  CG        -4.4230   11.3440   16.4310 C.ar  180  TYR180     -0.0201
     50  CD1       -4.4750   10.0010   16.8260 C.ar  180  TYR180     -0.0009
     51  CD2       -5.3950   11.8050   15.5440 C.ar  180  TYR180     -0.0009
     52  CE1       -5.4890    9.1550   16.3700 C.ar  180  TYR180      0.0417
     53  CE2       -6.3980   10.9610   15.0780 C.ar  180  TYR180      0.0417
     54  CZ        -6.4440    9.6450   15.4980 C.ar  180  TYR180      0.1957
     55  OH        -7.4560    8.8370   15.0410 O.3   180  TYR180     -0.2866
     56  N         -1.8770    2.6580   23.0650 N.3   228  PHE228     -0.1227
     57  CA        -3.0150    3.3990   22.4750 C.3   228  PHE228      0.1736
     58  C         -4.2860    2.5720   22.3700 C.2   228  PHE228      0.2595
     59  O         -5.2670    2.8710   23.0510 O.2   228  PHE228     -0.2718
     60  CB        -2.6400    3.9040   21.1000 C.3   228  PHE228      0.0547
     61  CG        -3.7970    4.4080   20.2750 C.ar  228  PHE228     -0.0202
     62  CD1       -4.4500    5.5800   20.6080 C.ar  228  PHE228     -0.0042
     63  CD2       -4.1760    3.7400   19.1090 C.ar  228  PHE228     -0.0042
     64  CE1       -5.4860    6.0640   19.8080 C.ar  228  PHE228     -0.0003
     65  CE2       -5.2050    4.2110   18.3110 C.ar  228  PHE228     -0.0003
     66  CZ        -5.8660    5.3720   18.6600 C.ar  228  PHE228     -0.0000
     67  N         -4.2450    1.5060   21.5570 N.am  229  ILE229     -0.1980
     68  CA        -5.4580    0.7260   21.2510 C.3   229  ILE229      0.1595
     69  C         -6.1160    0.1390   22.4870 C.2   229  ILE229      0.2287
     70  O         -7.3490    0.1280   22.5500 O.2   229  ILE229     -0.2864
     71  CB        -5.2610   -0.3500   20.1350 C.3   229  ILE229      0.0276
     72  CG1       -6.5800   -1.0470   19.7360 C.3   229  ILE229      0.0022
     73  CG2       -4.2680   -1.4370   20.5230 C.3   229  ILE229      0.0022
     74  CD1       -7.6450   -0.1130   19.2780 C.3   229  ILE229      0.0001
     75  N         -7.6440    2.9900   24.7350 N.3   232  VAL232     -0.1231
     76  CA        -8.7580    3.6180   24.0280 C.3   232  VAL232      0.1692
     77  C         -9.9260    2.6730   23.7390 C.2   232  VAL232      0.2591
     78  O        -11.0580    3.0030   24.0670 O.2   232  VAL232     -0.2718
     79  CB        -8.3030    4.2960   22.7240 C.3   232  VAL232      0.0266
     80  CG1       -9.5030    4.8100   21.9360 C.3   232  VAL232      0.0020
     81  CG2       -7.3500    5.4470   23.0600 C.3   232  VAL232      0.0020
     82  N         -9.6630    1.5260   23.1380 N.am  233  ALA233     -0.1980
     83  CA       -10.7450    0.5650   22.8660 C.3   233  ALA233      0.1597
     84  C        -11.4070    0.0910   24.1530 C.2   233  ALA233      0.2287
     85  O        -12.6200   -0.0680   24.2030 O.2   233  ALA233     -0.2864
     86  CB       -10.2470   -0.6110   22.0560 C.3   233  ALA233      0.0319
     87  N        -16.0390    2.0230   24.0200 N.3   237  THR237     -0.1218
     88  CA       -16.9290    0.8720   23.8610 C.3   237  THR237      0.1862
     89  C        -17.6650    0.4530   25.1490 C.2   237  THR237      0.2287
     90  O        -18.9000    0.3570   25.1170 O.2   237  THR237     -0.2866
     91  CB       -16.1020   -0.2880   23.3150 C.3   237  THR237      0.1770
     92  OG1      -14.9530   -0.5010   24.1790 O.3   237  THR237     -0.2211
     93  CG2      -15.6190    0.0140   21.8980 C.3   237  THR237      0.0375
     94  N        -20.4400   -0.1680   18.9930 N.3   280  VAL280     -0.1245
     95  CA       -19.6910    0.0440   17.7580 C.3   280  VAL280      0.1561
     96  C        -20.6740   -0.0810   16.6260 C.2   280  VAL280      0.2260
     97  O        -21.0970   -1.1540   16.2980 O.2   280  VAL280     -0.2867
     98  CB       -18.5210   -0.9250   17.6060 C.3   280  VAL280      0.0252
     99  CG1      -17.7870   -0.6930   16.2780 C.3   280  VAL280      0.0019
    100  CG2      -17.5870   -0.7740   18.8080 C.3   280  VAL280      0.0019
    101  N        -17.9880   -0.8040   11.7940 N.3   283  ALA283     -0.1231
    102  CA       -16.6800   -1.3220   12.0480 C.3   283  ALA283      0.1694
    103  C        -15.6570   -0.4270   11.3470 C.2   283  ALA283      0.2593
    104  O        -15.9930    0.3440   10.4820 O.2   283  ALA283     -0.2718
    105  CB       -16.5960   -2.7450   11.5540 C.3   283  ALA283      0.0304
    106  N        -14.4170   -0.5850   11.7480 N.am  284  THR284     -0.1939
    107  CA       -13.3150    0.2710   11.4170 C.3   284  THR284      0.2028
    108  C        -12.7370   -0.0010   10.0110 C.2   284  THR284      0.2642
    109  O        -13.1410   -0.9050    9.3420 O.2   284  THR284     -0.2714
    110  CB       -12.1910    0.1470   12.5210 C.3   284  THR284      0.1808
    111  OG1      -11.4120   -1.0460   12.3380 O.3   284  THR284     -0.2208
    112  CG2      -12.7880    0.1720   13.9360 C.3   284  THR284      0.0379
    113  N        -11.7350    0.7860    9.6240 N.am  285  TYR285     -0.1973
    114  CA       -11.3030    0.9810    8.2350 C.3   285  TYR285      0.1639
    115  C        -10.9870   -0.2860    7.4940 C.2   285  TYR285      0.2290
    116  O        -10.2140   -1.0920    7.9630 O.2   285  TYR285     -0.2864
    117  CB       -10.0450    1.8550    8.2100 C.3   285  TYR285      0.0560
    118  CG        -9.5140    2.1820    6.8160 C.ar  285  TYR285     -0.0198
    119  CD1      -10.3260    2.8330    5.8870 C.ar  285  TYR285     -0.0009
    120  CD2       -8.1830    1.8670    6.4370 C.ar  285  TYR285     -0.0009
    121  CE1       -9.8670    3.1370    4.6170 C.ar  285  TYR285      0.0417
    122  CE2       -7.7080    2.1830    5.1600 C.ar  285  TYR285      0.0417
    123  CZ        -8.5640    2.8190    4.2600 C.ar  285  TYR285      0.1957
    124  OH        -8.1590    3.1540    2.9890 O.3   285  TYR285     -0.2866
    125  N        -18.2170    5.6920   14.2650 N.3   382  LEU382     -0.1231
    126  CA       -17.6850    4.6490   15.1460 C.3   382  LEU382      0.1693
    127  C        -18.5670    4.3460   16.3850 C.2   382  LEU382      0.2591
    128  O        -18.8480    3.1810   16.6600 O.2   382  LEU382     -0.2718
    129  CB       -16.2540    4.9470   15.5610 C.3   382  LEU382      0.0284
    130  CG       -15.5520    3.8440   16.3780 C.3   382  LEU382      0.0019
    131  CD1      -15.4510    2.5150   15.6140 C.3   382  LEU382      0.0001
    132  CD2      -14.1680    4.2840   16.8360 C.3   382  LEU382      0.0001
    133  N        -19.0470    5.3600   17.0980 N.am  383  ILE383     -0.1980
    134  CA       -19.6490    5.1390   18.4310 C.3   383  ILE383      0.1595
    135  C        -21.1330    5.4050   18.4670 C.2   383  ILE383      0.2287
    136  O        -21.5660    6.4510   18.0650 O.2   383  ILE383     -0.2864
    137  CB       -18.9610    6.0510   19.5020 C.3   383  ILE383      0.0276
    138  CG1      -17.4900    5.6850   19.6370 C.3   383  ILE383      0.0022
    139  CG2      -19.6120    5.9640   20.8710 C.3   383  ILE383      0.0022
    140  CD1      -17.1930    4.2280   19.9390 C.3   383  ILE383      0.0001
@<TRIPOS>BOND
     1   124   123    1
     2   123   121   ar
     3   123   122   ar
     4   121   119   ar
     5   122   120   ar
     6   119   118   ar
     7   120   118   ar
     8   118   117    1
     9   115   116    2
    10   115   114    1
    11   117   114    1
    12   114   113    1
    13   109   108    2
    14   113   108   am
    15   108   107    1
    16   104   103    2
    17   103   106   am
    18   103   102    1
    19   107   106    1
    20   107   110    1
    21     8     6   ar
    22    24    23    2
    23   105   102    1
    24   101   102    1
    25    23    22    1
    26   111   110    1
    27   110   112    1
    28     6     7   ar
    29     6     5    1
    30     1     2    1
    31     3     2    1
    32     3     4    2
    33    22    25    1
    34    22    21    1
    35     2     5    1
    36    12    11    2
    37   125   126    1
    38    25    26    1
    39    28    26    1
    40     9    10    1
    41    20    19    1
    42    17    19   ar
    43    17    15   ar
    44    55    54    1
    45    53    54   ar
    46    53    51   ar
    47   126   129    1
    48   126   127    1
    49    11    10    1
    50    26    27    1
    51    19    18   ar
    52    15    14   ar
    53    54    52   ar
    54    51    49   ar
    55   129   130    1
    56   131   130    1
    57    10    13    1
    58    18    16   ar
    59    99    98    1
    60    14    16   ar
    61    14    13    1
    62    97    96    2
    63    52    50   ar
    64   130   132    1
    65   127   128    2
    66   127   133   am
    67    49    50   ar
    68    49    48    1
    69    96    95    1
    70    32    31    2
    71    48    45    1
    72    40    39    2
    73   133   134    1
    74    98    95    1
    75    98   100    1
    76    39    38    1
    77    95    94    1
    78    31    30    1
    79    31    37   am
    80   136   135    2
    81    30    33    1
    82    30    29    1
    83    65    66   ar
    84    65    63   ar
    85    45    44    1
    86    45    46    1
    87    38    37    1
    88    38    41    1
    89   134   135    1
    90   134   137    1
    91    36    34    1
    92    33    34    1
    93    33    35    1
    94    66    64   ar
    95    46    47    2
    96    63    61   ar
    97    74    72    1
    98   137   138    1
    99   137   139    1
   100   138   140    1
   101    72    71    1
   102    41    43    1
   103    41    42    1
   104    64    62   ar
   105    71    73    1
   106    71    68    1
   107    61    62   ar
   108    61    60    1
   109    60    57    1
   110    68    67    1
   111    68    69    1
   112    67    58   am
   113    93    91    1
   114    80    79    1
   115    86    83    1
   116    58    57    1
   117    58    59    2
   118    57    56    1
   119    69    70    2
   120    79    81    1
   121    79    76    1
   122    83    82    1
   123    83    84    1
   124    82    77   am
   125    91    88    1
   126    91    92    1
   127    77    76    1
   128    77    78    2
   129    88    87    1
   130    88    89    1
   131    76    75    1
   132    84    85    2
   133    90    89    2
