@<TRIPOS>MOLECULE
tmp/5cwxA00.pdb
 111 109 0 0 0
SMALL
GASTEIGER

@<TRIPOS>ATOM
      1  N          0.9290  -17.7240   -0.6460 N.3    45  VAL45      -0.1231
      2  CA         1.6900  -18.9780   -0.8250 C.3    45  VAL45       0.1692
      3  C          2.5780  -19.3020    0.3900 C.2    45  VAL45       0.2592
      4  O          3.1550  -20.3880    0.5270 O.2    45  VAL45      -0.2718
      5  CB         2.5270  -18.9700   -2.1150 C.3    45  VAL45       0.0266
      6  CG1        1.6310  -18.6070   -3.3300 C.3    45  VAL45       0.0020
      7  CG2        3.6620  -17.9830   -1.9650 C.3    45  VAL45       0.0020
      8  N          2.6820  -18.3680    1.3080 N.am   46  GLY46      -0.1957
      9  CA         3.5010  -18.6370    2.4930 C.3    46  GLY46       0.1869
     10  C          2.9680  -17.7290    3.5320 C.2    46  GLY46       0.2309
     11  O          2.4590  -16.6450    3.2020 O.2    46  GLY46      -0.2863
     12  N          9.7700  -12.0340   -8.9140 N.3    87  TRP87      -0.1227
     13  CA         8.7000  -11.2570   -8.2470 C.3    87  TRP87       0.1737
     14  C          8.3590  -11.7950   -6.8160 C.2    87  TRP87       0.2595
     15  O          8.2100  -13.0080   -6.6340 O.2    87  TRP87      -0.2718
     16  CB         7.4300  -11.2100   -9.1270 C.3    87  TRP87       0.0564
     17  CG         7.6620  -10.3030  -10.3300 C.ar   87  TRP87       0.0003
     18  CD1        7.8940  -10.6820  -11.6220 C.ar   87  TRP87       0.0946
     19  CD2        7.7750   -8.8530  -10.3070 C.ar   87  TRP87       0.0152
     20  NE1        8.1130   -9.5530  -12.4150 N.ar   87  TRP87      -0.2442
     21  CE2        8.0390   -8.4300  -11.6360 C.ar   87  TRP87       0.0810
     22  CE3        7.6640   -7.8790   -9.2880 C.ar   87  TRP87       0.0012
     23  CZ2        8.2010   -7.0750  -11.9820 C.ar   87  TRP87       0.0191
     24  CZ3        7.7890   -6.5260   -9.6500 C.ar   87  TRP87       0.0001
     25  CH2        8.0680   -6.1560  -10.9880 C.ar   87  TRP87       0.0015
     26  N          8.2330  -10.8950   -5.8350 N.am   88  GLU88      -0.1965
     27  CA         7.7290  -11.2340   -4.4660 C.3    88  GLU88       0.1733
     28  C          6.7080  -10.2020   -4.0160 C.2    88  GLU88       0.2617
     29  O          6.8410   -9.0090   -4.3460 O.2    88  GLU88      -0.2715
     30  CB         8.8440  -11.2780   -3.4320 C.3    88  GLU88       0.0429
     31  CG         9.7890  -12.4630   -3.6330 C.3    88  GLU88       0.1163
     32  CD        10.8910  -12.6080   -2.5930 C.2    88  GLU88       0.3649
     33  OE1       10.7360  -12.1720   -1.4020 O.co2  88  GLU88      -0.2457
     34  OE2       11.9530  -13.2090   -2.9630 O.co2  88  GLU88      -0.2457
     35  N          5.6740  -10.6640   -3.3000 N.am   89  GLY89      -0.1940
     36  CA         4.7750   -9.7970   -2.5340 C.3    89  GLY89       0.2014
     37  C          4.6590  -10.3850   -1.1420 C.2    89  GLY89       0.2639
     38  O          5.3100  -11.3610   -0.8290 O.2    89  GLY89      -0.2714
     39  N          3.8440   -9.7780   -0.2930 N.am   90  CYS90      -0.1953
     40  CA         3.7410  -10.2320    1.0620 C.3    90  CYS90       0.1843
     41  C          2.4110   -9.7730    1.6440 C.2    90  CYS90       0.2625
     42  O          2.0500   -8.5460    1.6190 O.2    90  CYS90      -0.2714
     43  CB         4.9370   -9.7140    1.8570 C.3    90  CYS90       0.0997
     44  SG         4.9480  -10.1480    3.6240 S.3    90  CYS90      -0.0797
     45  N          1.6910  -10.7250    2.2500 N.am   91  LEU91      -0.1977
     46  CA         0.3950  -10.3510    2.8860 C.3    91  LEU91       0.1596
     47  C          0.4830   -9.2430    3.9490 C.2    91  LEU91       0.2287
     48  O         -0.5110   -8.5780    4.1740 O.2    91  LEU91      -0.2864
     49  CB        -0.4480  -11.5720    3.3590 C.3    91  LEU91       0.0297
     50  CG        -0.3930  -12.8280    2.5170 C.3    91  LEU91       0.0022
     51  CD1       -0.8170  -14.0900    3.2970 C.3    91  LEU91       0.0001
     52  CD2       -1.2630  -12.6020    1.2950 C.3    91  LEU91       0.0001
     53  N          4.3580   -5.2630   -4.9120 N.3    97  ARG97      -0.1245
     54  CA         5.3720   -6.2640   -5.1350 C.3    97  ARG97       0.1563
     55  C          6.6990   -5.6400   -5.6340 C.2    97  ARG97       0.2260
     56  O          6.7960   -4.4420   -5.8220 O.2    97  ARG97      -0.2867
     57  CB         4.8480   -7.3600   -6.0500 C.3    97  ARG97       0.0307
     58  CG         4.2530   -6.8550   -7.3160 C.3    97  ARG97       0.0489
     59  CD         3.7160   -8.0090   -8.1200 C.3    97  ARG97       0.2205
     60  NE         4.2910   -7.8960   -9.4560 N.pl3  97  ARG97      -0.0865
     61  CZ         3.6530   -7.4090  -10.5070 C.cat  97  ARG97       0.5346
     62  NH1        2.3910   -7.0390  -10.3690 N.pl3  97  ARG97       0.1354
     63  NH2        4.2640   -7.3230  -11.6940 N.pl3  97  ARG97       0.1354
     64  N         11.3040  -21.1770   -7.2250 N.3   125  PHE125     -0.1241
     65  CA        10.2090  -20.5760   -6.4920 C.3   125  PHE125      0.1605
     66  C         10.0060  -21.2120   -5.0820 C.2   125  PHE125      0.2264
     67  O          9.6940  -20.5070   -4.1440 O.2   125  PHE125     -0.2867
     68  CB         8.9030  -20.6360   -7.2780 C.3   125  PHE125      0.0534
     69  CG         7.8150  -19.7740   -6.6490 C.ar  125  PHE125     -0.0203
     70  CD1        8.0050  -18.4030   -6.4760 C.ar  125  PHE125     -0.0042
     71  CD2        6.6270  -20.3390   -6.1730 C.ar  125  PHE125     -0.0042
     72  CE1        7.0110  -17.6020   -5.8690 C.ar  125  PHE125     -0.0003
     73  CE2        5.6420  -19.5440   -5.5780 C.ar  125  PHE125     -0.0003
     74  CZ         5.8280  -18.1830   -5.3960 C.ar  125  PHE125     -0.0000
     75  N         12.6340  -19.8550   -2.9600 N.3   128  ARG128     -0.1231
     76  CA        12.3990  -18.4260   -2.7110 C.3   128  ARG128      0.1694
     77  C         11.3220  -18.2220   -1.6520 C.2   128  ARG128      0.2591
     78  O         11.4210  -17.3150   -0.7980 O.2   128  ARG128     -0.2718
     79  CB        11.9850  -17.6930   -4.0280 C.3   128  ARG128      0.0321
     80  CG        11.2300  -16.3650   -3.8120 C.3   128  ARG128      0.0489
     81  CD        10.8450  -15.7200   -5.1730 C.3   128  ARG128      0.2205
     82  NE        11.9380  -15.8270   -6.1810 N.pl3 128  ARG128     -0.0865
     83  CZ        12.9370  -14.9450   -6.3570 C.cat 128  ARG128      0.5346
     84  NH1       13.0060  -13.8010   -5.6560 N.pl3 128  ARG128      0.1354
     85  NH2       13.8860  -15.2000   -7.2840 N.pl3 128  ARG128      0.1354
     86  N         10.2810  -19.0330   -1.7420 N.am  129  VAL129     -0.1980
     87  CA         9.2250  -18.9810   -0.7300 C.3   129  VAL129      0.1595
     88  C          9.7740  -19.1800    0.7090 C.2   129  VAL129      0.2287
     89  O          9.5510  -18.3430    1.5990 O.2   129  VAL129     -0.2864
     90  CB         8.0620  -19.9200   -1.0890 C.3   129  VAL129      0.0276
     91  CG1        7.0200  -19.8200    0.0120 C.3   129  VAL129      0.0022
     92  CG2        7.4120  -19.4220   -2.4120 C.3   129  VAL129      0.0022
     93  N         11.9100  -16.3020    1.8820 N.3   132  HIS132     -0.1226
     94  CA        11.0630  -15.1290    2.2010 C.3   132  HIS132      0.1752
     95  C         10.4210  -15.3210    3.5800 C.2   132  HIS132      0.2595
     96  O         10.4470  -14.4160    4.4050 O.2   132  HIS132     -0.2718
     97  CB         9.9500  -14.9970    1.1290 C.3   132  HIS132      0.0759
     98  CG         8.9520  -13.9140    1.4070 C.ar  132  HIS132      0.0818
     99  ND1        8.8840  -12.7550    0.6650 N.ar  132  HIS132     -0.2268
    100  CD2        7.9460  -13.8380    2.3210 C.ar  132  HIS132      0.1154
    101  CE1        7.9120  -11.9900    1.1510 C.ar  132  HIS132      0.1986
    102  NE2        7.3210  -12.6280    2.1510 N.ar  132  HIS132     -0.2212
    103  N          9.8290  -16.5060    3.7970 N.am  133  GLU133     -0.1979
    104  CA         9.1640  -16.7960    5.0690 C.3   133  GLU133      0.1602
    105  C         10.1600  -16.8350    6.1810 C.2   133  GLU133      0.2287
    106  O          9.9200  -16.2130    7.2070 O.2   133  GLU133     -0.2864
    107  CB         8.2970  -18.0500    4.9960 C.3   133  GLU133      0.0415
    108  CG         7.0750  -17.9280    4.0910 C.3   133  GLU133      0.1163
    109  CD         6.3220  -16.6180    4.2870 C.2   133  GLU133      0.3649
    110  OE1        6.0780  -16.1710    5.4410 O.co2 133  GLU133     -0.2457
    111  OE2        5.9950  -15.9800    3.2860 O.co2 133  GLU133     -0.2457
@<TRIPOS>BOND
     1    20    21   ar
     2    20    18   ar
     3    23    21   ar
     4    23    25   ar
     5    63    61    1
     6    21    19   ar
     7    18    17   ar
     8    25    24   ar
     9    61    62    1
    10    61    60    2
    11    17    19   ar
    12    17    16    1
    13    19    22   ar
    14    24    22   ar
    15    60    59    1
    16    16    13    1
    17    12    13    1
    18    13    14    1
    19    59    58    1
    20    58    57    1
    21    85    83    1
    22    68    69    1
    23    68    65    1
    24    64    65    1
    25    14    15    2
    26    14    26   am
    27    69    70   ar
    28    69    71   ar
    29    65    66    1
    30    70    72   ar
    31    83    82    2
    32    83    84    1
    33    82    81    1
    34    71    73   ar
    35    57    54    1
    36    72    74   ar
    37    26    27    1
    38    56    55    2
    39    55    54    1
    40    73    74   ar
    41    81    80    1
    42    54    53    1
    43    66    67    2
    44    27    28    1
    45    27    30    1
    46    29    28    2
    47    79    80    1
    48    79    76    1
    49    28    35   am
    50    31    30    1
    51    31    32    1
    52     6     5    1
    53    35    36    1
    54    34    32   ar
    55    75    76    1
    56    76    77    1
    57    32    33   ar
    58    36    37    1
    59    92    90    1
    60     5     7    1
    61     5     2    1
    62    86    77   am
    63    86    87    1
    64    77    78    2
    65    37    38    2
    66    37    39   am
    67    90    87    1
    68    90    91    1
    69     2     1    1
    70     2     3    1
    71    87    88    1
    72    39    40    1
    73     3     4    2
    74     3     8   am
    75    99   101   ar
    76    99    98   ar
    77    88    89    2
    78    40    41    1
    79    40    43    1
    80    97    98    1
    81    97    94    1
    82   101   102   ar
    83    52    50    1
    84     8     9    1
    85    98   100   ar
    86    42    41    2
    87    41    45   am
    88    43    44    1
    89    93    94    1
    90   102   100   ar
    91    94    95    1
    92    45    46    1
    93     9    10    1
    94    50    51    1
    95    50    49    1
    96    46    49    1
    97    46    47    1
    98    11    10    2
    99   111   109   ar
   100    95   103   am
   101    95    96    2
   102   103   104    1
   103    47    48    2
   104   108   109    1
   105   108   107    1
   106   109   110   ar
   107   107   104    1
   108   104   105    1
   109   105   106    2
