@<TRIPOS>MOLECULE
tmp/5cwyA00.pdb
 142 140 0 0 0
SMALL
GASTEIGER

@<TRIPOS>ATOM
      1  N          1.1590  -17.8530   -0.5480 N.3    45  VAL45      -0.1231
      2  CA         1.9470  -19.0300   -0.8870 C.3    45  VAL45       0.1692
      3  C          2.8340  -19.4190    0.3090 C.2    45  VAL45       0.2592
      4  O          3.3340  -20.5200    0.3570 O.2    45  VAL45      -0.2718
      5  CB         2.8010  -18.8410   -2.2000 C.3    45  VAL45       0.0266
      6  CG1        1.9030  -18.4720   -3.4000 C.3    45  VAL45       0.0020
      7  CG2        3.9170  -17.8070   -2.0230 C.3    45  VAL45       0.0020
      8  N          3.0210  -18.5230    1.2750 N.am   46  GLY46      -0.1957
      9  CA         3.7690  -18.8350    2.5070 C.3    46  GLY46       0.1869
     10  C          3.2410  -17.9040    3.5690 C.2    46  GLY46       0.2309
     11  O          2.7200  -16.8400    3.2450 O.2    46  GLY46      -0.2863
     12  N          3.7700  -13.0560   11.3050 N.3    51  GLN51      -0.1245
     13  CA         2.7910  -12.2360   10.5710 C.3    51  GLN51       0.1566
     14  C          1.3940  -12.3140   11.1460 C.2    51  GLN51       0.2260
     15  O          0.5130  -11.4790   10.7540 O.2    51  GLN51      -0.2867
     16  CB         2.7490  -12.5950    9.1000 C.3    51  GLN51       0.0367
     17  CG         4.0730  -12.4450    8.3620 C.3    51  GLN51       0.0905
     18  CD         3.8530  -12.9250    6.9420 C.2    51  GLN51       0.2608
     19  OE1        4.1200  -14.0830    6.6420 O.2    51  GLN51      -0.2717
     20  NE2        3.2290  -12.0830    6.0940 N.am   51  GLN51      -0.0878
     21  N         -2.8880  -15.8530   -8.6320 N.3    65  ARG65      -0.1231
     22  CA        -1.9680  -15.4620   -7.5430 C.3    65  ARG65       0.1694
     23  C         -0.5030  -15.2560   -7.9980 C.2    65  ARG65       0.2592
     24  O         -0.1170  -14.1520   -8.3950 O.2    65  ARG65      -0.2718
     25  CB        -2.0170  -16.4720   -6.3780 C.3    65  ARG65       0.0321
     26  CG        -1.9350  -15.8190   -4.9970 C.3    65  ARG65       0.0489
     27  CD        -1.3550  -14.3880   -4.9860 C.3    65  ARG65       0.2205
     28  NE        -2.1150  -13.5320   -4.0700 N.pl3  65  ARG65      -0.0865
     29  CZ        -1.6930  -13.1040   -2.8790 C.cat  65  ARG65       0.5346
     30  NH1       -0.4670  -13.4060   -2.4390 N.pl3  65  ARG65       0.1354
     31  NH2       -2.5000  -12.3430   -2.1390 N.pl3  65  ARG65       0.1354
     32  N          0.3160  -16.3030   -7.8910 N.am   66  TYR66      -0.1976
     33  CA         1.6100  -16.3210   -8.5830 C.3    66  TYR66       0.1639
     34  C          1.5380  -17.2750   -9.7750 C.2    66  TYR66       0.2290
     35  O          2.1700  -18.3440   -9.7600 O.2    66  TYR66      -0.2864
     36  CB         2.7990  -16.5370   -7.6210 C.3    66  TYR66       0.0560
     37  CG         3.2020  -15.1930   -7.0700 C.ar   66  TYR66      -0.0198
     38  CD1        3.9580  -14.2960   -7.8590 C.ar   66  TYR66      -0.0009
     39  CD2        2.7450  -14.7590   -5.8130 C.ar   66  TYR66      -0.0009
     40  CE1        4.2860  -13.0320   -7.3940 C.ar   66  TYR66       0.0417
     41  CE2        3.0650  -13.4900   -5.3390 C.ar   66  TYR66       0.0417
     42  CZ         3.8360  -12.6370   -6.1320 C.ar   66  TYR66       0.1957
     43  OH         4.1510  -11.3840   -5.6850 O.3    66  TYR66      -0.2866
     44  N         10.0140  -11.9150   -8.8150 N.3    93  TRP93      -0.1227
     45  CA         8.9610  -11.1300   -8.1580 C.3    93  TRP93       0.1737
     46  C          8.5870  -11.7340   -6.7700 C.2    93  TRP93       0.2595
     47  O          8.2560  -12.9310   -6.6880 O.2    93  TRP93      -0.2718
     48  CB         7.6860  -11.0590   -9.0560 C.3    93  TRP93       0.0564
     49  CG         7.9040  -10.2490  -10.2840 C.ar   93  TRP93       0.0003
     50  CD1        8.1090  -10.7220  -11.5740 C.ar   93  TRP93       0.0946
     51  CD2        8.0400   -8.7990  -10.3570 C.ar   93  TRP93       0.0152
     52  NE1        8.3380   -9.6490  -12.4290 N.ar   93  TRP93      -0.2442
     53  CE2        8.3050   -8.4700  -11.7120 C.ar   93  TRP93       0.0810
     54  CE3        7.9630   -7.7680   -9.4140 C.ar   93  TRP93       0.0012
     55  CZ2        8.4760   -7.1520  -12.1410 C.ar   93  TRP93       0.0191
     56  CZ3        8.1120   -6.4500   -9.8560 C.ar   93  TRP93       0.0001
     57  CH2        8.3650   -6.1550  -11.2040 C.ar   93  TRP93       0.0015
     58  N          8.6470  -10.8940   -5.7180 N.am   94  GLU94      -0.1965
     59  CA         8.0120  -11.2030   -4.4290 C.3    94  GLU94       0.1733
     60  C          6.9890  -10.1660   -4.0150 C.2    94  GLU94       0.2617
     61  O          7.0980   -9.0010   -4.3980 O.2    94  GLU94      -0.2715
     62  CB         9.0600  -11.3620   -3.3370 C.3    94  GLU94       0.0429
     63  CG        10.0140  -12.4600   -3.7430 C.3    94  GLU94       0.1163
     64  CD        11.0730  -12.6780   -2.7310 C.2    94  GLU94       0.3649
     65  OE1       10.8500  -12.3530   -1.5340 O.co2  94  GLU94      -0.2457
     66  OE2       12.1330  -13.1710   -3.1250 O.co2  94  GLU94      -0.2457
     67  N          5.9890  -10.6300   -3.2640 N.am   95  GLY95      -0.1940
     68  CA         5.0330   -9.8070   -2.5220 C.3    95  GLY95       0.2014
     69  C          4.9610  -10.4080   -1.1340 C.2    95  GLY95       0.2639
     70  O          5.7620  -11.2950   -0.7840 O.2    95  GLY95      -0.2714
     71  N          4.0050   -9.9470   -0.3340 N.am   96  CYS96      -0.1953
     72  CA         3.9430  -10.3190    1.0290 C.3    96  CYS96       0.1843
     73  C          2.5620   -9.9420    1.5660 C.2    96  CYS96       0.2625
     74  O          2.1800   -8.7810    1.4890 O.2    96  CYS96      -0.2714
     75  CB         5.0290   -9.5240    1.7700 C.3    96  CYS96       0.0997
     76  SG         5.1560   -9.8660    3.5820 S.3    96  CYS96      -0.0797
     77  N          1.8630  -10.8710    2.2260 N.am   97  LEU97      -0.1977
     78  CA         0.5660  -10.5280    2.8610 C.3    97  LEU97       0.1596
     79  C          0.6130   -9.4020    3.8970 C.2    97  LEU97       0.2287
     80  O         -0.3970   -8.7740    4.1170 O.2    97  LEU97      -0.2864
     81  CB        -0.1070  -11.7740    3.4230 C.3    97  LEU97       0.0297
     82  CG        -0.1620  -12.9320    2.4230 C.3    97  LEU97       0.0022
     83  CD1       -0.5100  -14.2310    3.1530 C.3    97  LEU97       0.0001
     84  CD2       -1.1790  -12.5930    1.3400 C.3    97  LEU97       0.0001
     85  N         11.6290  -21.2000   -7.2900 N.3   131  PHE131     -0.1241
     86  CA        10.4960  -20.6320   -6.5360 C.3   131  PHE131      0.1605
     87  C         10.3160  -21.2430   -5.1210 C.2   131  PHE131      0.2264
     88  O         10.2580  -20.5100   -4.1280 O.2   131  PHE131     -0.2867
     89  CB         9.2080  -20.6690   -7.3590 C.3   131  PHE131      0.0534
     90  CG         8.1020  -19.8350   -6.7720 C.ar  131  PHE131     -0.0203
     91  CD1        8.1180  -18.4470   -6.8940 C.ar  131  PHE131     -0.0042
     92  CD2        6.9950  -20.4460   -6.1260 C.ar  131  PHE131     -0.0042
     93  CE1        7.0960  -17.6720   -6.3150 C.ar  131  PHE131     -0.0003
     94  CE2        5.9970  -19.6780   -5.5360 C.ar  131  PHE131     -0.0003
     95  CZ         6.0500  -18.2920   -5.6220 C.ar  131  PHE131     -0.0000
     96  N         12.8930  -19.7640   -2.9420 N.3   134  ARG134     -0.1231
     97  CA        12.6180  -18.3190   -2.7370 C.3   134  ARG134      0.1694
     98  C         11.5730  -18.1550   -1.6140 C.2   134  ARG134      0.2591
     99  O         11.7750  -17.3680   -0.6220 O.2   134  ARG134     -0.2718
    100  CB        12.1370  -17.6700   -4.0630 C.3   134  ARG134      0.0321
    101  CG        11.4090  -16.3370   -3.9020 C.3   134  ARG134      0.0489
    102  CD        11.0570  -15.7250   -5.2590 C.3   134  ARG134      0.2205
    103  NE        12.1690  -15.8400   -6.2150 N.pl3 134  ARG134     -0.0865
    104  CZ        13.1650  -14.9550   -6.3220 C.cat 134  ARG134      0.5346
    105  NH1       13.1600  -13.8520   -5.5450 N.pl3 134  ARG134      0.1354
    106  NH2       14.1760  -15.1970   -7.2070 N.pl3 134  ARG134      0.1354
    107  N         10.4840  -18.9350   -1.7400 N.am  135  VAL135     -0.1980
    108  CA         9.4430  -18.9640   -0.6850 C.3   135  VAL135      0.1595
    109  C         10.0120  -19.2400    0.6870 C.2   135  VAL135      0.2287
    110  O          9.8100  -18.4190    1.6140 O.2   135  VAL135     -0.2864
    111  CB         8.2320  -19.8790   -0.9730 C.3   135  VAL135      0.0276
    112  CG1        7.2470  -19.7510    0.1940 C.3   135  VAL135      0.0022
    113  CG2        7.5500  -19.4550   -2.2660 C.3   135  VAL135      0.0022
    114  N         12.1890  -16.3210    1.9260 N.3   138  HIS138     -0.1226
    115  CA        11.3280  -15.1890    2.2220 C.3   138  HIS138      0.1752
    116  C         10.6760  -15.4010    3.5930 C.2   138  HIS138      0.2595
    117  O         10.6830  -14.4810    4.4200 O.2   138  HIS138     -0.2718
    118  CB        10.2730  -15.1270    1.1260 C.3   138  HIS138      0.0759
    119  CG         9.2830  -14.0280    1.2830 C.ar  138  HIS138      0.0818
    120  ND1        9.1590  -13.0030    0.3610 N.ar  138  HIS138     -0.2268
    121  CD2        8.3240  -13.8200    2.2130 C.ar  138  HIS138      0.1154
    122  CE1        8.2270  -12.1620    0.7760 C.ar  138  HIS138      0.1986
    123  NE2        7.7060  -12.6380    1.8870 N.ar  138  HIS138     -0.2212
    124  N         10.1100  -16.5950    3.8350 N.am  139  GLU139     -0.1979
    125  CA         9.4440  -16.8100    5.1400 C.3   139  GLU139      0.1602
    126  C         10.4600  -16.8820    6.2330 C.2   139  GLU139      0.2287
    127  O         10.1580  -16.4260    7.3110 O.2   139  GLU139     -0.2864
    128  CB         8.5870  -18.0630    5.2410 C.3   139  GLU139      0.0415
    129  CG         7.4250  -18.1920    4.2850 C.3   139  GLU139      0.1163
    130  CD         6.7120  -16.8900    3.9600 C.2   139  GLU139      0.3649
    131  OE1        6.3750  -16.0650    4.8310 O.co2 139  GLU139     -0.2457
    132  OE2        6.4360  -16.7170    2.7760 O.co2 139  GLU139     -0.2457
    133  N         11.2590  -13.4730    7.8420 N.3   142  HIS142     -0.1241
    134  CA        10.3220  -13.0130    8.9090 C.3   142  HIS142      0.1621
    135  C         10.7190  -13.4490   10.2710 C.2   142  HIS142      0.2264
    136  O         10.3920  -12.7740   11.2400 O.2   142  HIS142     -0.2867
    137  CB         8.9450  -13.6010    8.7280 C.3   142  HIS142      0.0745
    138  CG         8.2050  -13.0110    7.5960 C.ar  142  HIS142      0.0817
    139  ND1        7.9510  -11.6590    7.5060 N.ar  142  HIS142     -0.2268
    140  CD2        7.6570  -13.5790    6.4960 C.ar  142  HIS142      0.1154
    141  CE1        7.2670  -11.4140    6.4050 C.ar  142  HIS142      0.1986
    142  NE2        7.0740  -12.5620    5.7830 N.ar  142  HIS142     -0.2212
@<TRIPOS>BOND
     1    52    53   ar
     2    52    50   ar
     3    55    53   ar
     4    55    57   ar
     5    53    51   ar
     6    50    49   ar
     7    57    56   ar
     8    51    49   ar
     9    51    54   ar
    10    49    48    1
    11    56    54   ar
    12    34    35    2
    13    34    33    1
    14    48    45    1
    15    44    45    1
    16    21    22    1
    17    33    32    1
    18    33    36    1
    19    24    23    2
    20    45    46    1
    21    23    32   am
    22    23    22    1
    23    38    40   ar
    24    38    37   ar
    25    36    37    1
    26    22    25    1
    27    40    42   ar
    28    89    90    1
    29    89    86    1
    30    85    86    1
    31   106   104    1
    32    37    39   ar
    33    91    90   ar
    34    91    93   ar
    35    90    92   ar
    36    46    47    2
    37    46    58   am
    38    86    87    1
    39    25    26    1
    40   104   103    2
    41   104   105    1
    42    93    95   ar
    43   103   102    1
    44    42    43    1
    45    42    41   ar
    46    92    94   ar
    47    39    41   ar
    48    58    59    1
    49    95    94   ar
    50   102   101    1
    51    87    88    2
    52    26    27    1
    53    27    28    1
    54    59    60    1
    55    59    62    1
    56    61    60    2
    57    28    29    2
    58   100   101    1
    59   100    97    1
    60    60    67   am
    61    63    62    1
    62    63    64    1
    63     6     5    1
    64    67    68    1
    65    66    64   ar
    66    96    97    1
    67    29    30    1
    68    29    31    1
    69    97    98    1
    70    64    65   ar
    71    68    69    1
    72   113   111    1
    73     5     7    1
    74     5     2    1
    75   107    98   am
    76   107   108    1
    77    98    99    2
    78    69    70    2
    79    69    71   am
    80   111   108    1
    81   111   112    1
    82     2     1    1
    83     2     3    1
    84   108   109    1
    85    71    72    1
    86     3     4    2
    87     3     8   am
    88   120   122   ar
    89   120   119   ar
    90   109   110    2
    91   122   123   ar
    92    72    73    1
    93    72    75    1
    94   118   119    1
    95   118   115    1
    96     8     9    1
    97   119   121   ar
    98    84    82    1
    99    74    73    2
   100    73    77   am
   101    75    76    1
   102   123   121   ar
   103   114   115    1
   104   115   116    1
   105    77    78    1
   106    82    83    1
   107    82    81    1
   108     9    10    1
   109   132   130   ar
   110    78    81    1
   111    78    79    1
   112    11    10    2
   113   116   124   am
   114   116   117    2
   115   124   125    1
   116    79    80    2
   117   130   129    1
   118   130   131   ar
   119   129   128    1
   120   125   128    1
   121   125   126    1
   122   142   141   ar
   123   142   140   ar
   124    20    18   am
   125   126   127    2
   126   141   139   ar
   127   140   138   ar
   128    19    18    2
   129    18    17    1
   130   139   138   ar
   131   138   137    1
   132   133   134    1
   133    17    16    1
   134   137   134    1
   135   134   135    1
   136    16    13    1
   137   135   136    2
   138    13    14    1
   139    13    12    1
   140    15    14    2
