@<TRIPOS>MOLECULE
tmp/5cx0A00.pdb
 109 107 0 0 0
SMALL
GASTEIGER

@<TRIPOS>ATOM
      1  N          1.3570  -18.0890   -0.6170 N.3    45  VAL45      -0.1231
      2  CA         2.0910  -19.3470   -0.8330 C.3    45  VAL45       0.1692
      3  C          2.9470  -19.6960    0.3980 C.2    45  VAL45       0.2592
      4  O          3.5330  -20.7880    0.5000 O.2    45  VAL45      -0.2718
      5  CB         2.9890  -19.2990   -2.1040 C.3    45  VAL45       0.0266
      6  CG1        2.1130  -19.1840   -3.3560 C.3    45  VAL45       0.0020
      7  CG2        3.9940  -18.1580   -1.9820 C.3    45  VAL45       0.0020
      8  N          3.0290  -18.7570    1.3230 N.am   46  GLY46      -0.1957
      9  CA         3.8480  -18.9510    2.4920 C.3    46  GLY46       0.1869
     10  C          3.2930  -18.0440    3.5550 C.2    46  GLY46       0.2309
     11  O          2.7720  -16.9560    3.2560 O.2    46  GLY46      -0.2863
     12  N          3.9470  -13.1150   11.1110 N.3    51  GLN51      -0.1245
     13  CA         2.9440  -12.3860   10.3090 C.3    51  GLN51       0.1566
     14  C          1.5630  -12.3990   10.9220 C.2    51  GLN51       0.2260
     15  O          0.7060  -11.6350   10.5120 O.2    51  GLN51      -0.2867
     16  CB         2.8460  -12.9320    8.9170 C.3    51  GLN51       0.0367
     17  CG         4.0870  -12.6460    8.1160 C.3    51  GLN51       0.0905
     18  CD         3.9620  -13.1970    6.7220 C.2    51  GLN51       0.2608
     19  OE1        4.4530  -14.2900    6.4010 O.2    51  GLN51      -0.2717
     20  NE2        3.2570  -12.4530    5.8830 N.am   51  GLN51      -0.0878
     21  N         10.1090  -11.9500   -8.5540 N.3    88  TRP88      -0.1227
     22  CA         9.1100  -11.1420   -7.8980 C.3    88  TRP88       0.1737
     23  C          8.7710  -11.7030   -6.5210 C.2    88  TRP88       0.2595
     24  O          8.5370  -12.9050   -6.3640 O.2    88  TRP88      -0.2718
     25  CB         7.8490  -11.0620   -8.7670 C.3    88  TRP88       0.0564
     26  CG         8.0620  -10.2100   -9.9950 C.ar   88  TRP88       0.0003
     27  CD1        8.1870  -10.6410  -11.2950 C.ar   88  TRP88       0.0946
     28  CD2        8.1840   -8.7640  -10.0390 C.ar   88  TRP88       0.0152
     29  NE1        8.3770   -9.5530  -12.1370 N.ar   88  TRP88      -0.2442
     30  CE2        8.3700   -8.3970  -11.3950 C.ar   88  TRP88       0.0810
     31  CE3        8.1530   -7.7580   -9.0660 C.ar   88  TRP88       0.0012
     32  CZ2        8.5270   -7.0810  -11.7930 C.ar   88  TRP88       0.0191
     33  CZ3        8.2900   -6.4610   -9.4730 C.ar   88  TRP88       0.0001
     34  CH2        8.4820   -6.1290  -10.8280 C.ar   88  TRP88       0.0015
     35  N          8.7330  -10.8340   -5.5220 N.am   89  GLU89      -0.1965
     36  CA         8.2240  -11.2250   -4.2150 C.3    89  GLU89       0.1733
     37  C          7.2660  -10.1320   -3.7600 C.2    89  GLU89       0.2617
     38  O          7.5350   -8.9680   -4.0350 O.2    89  GLU89      -0.2715
     39  CB         9.3750  -11.3700   -3.2450 C.3    89  GLU89       0.0429
     40  CG        10.3680  -12.4830   -3.6030 C.3    89  GLU89       0.1163
     41  CD        11.3220  -12.7740   -2.4520 C.2    89  GLU89       0.3649
     42  OE1       11.0330  -12.3450   -1.2940 O.co2  89  GLU89      -0.2457
     43  OE2       12.3670  -13.4120   -2.6850 O.co2  89  GLU89      -0.2457
     44  N          6.1350  -10.4860   -3.1330 N.am   90  GLY90      -0.1940
     45  CA         5.2850   -9.5120   -2.3810 C.3    90  GLY90       0.2014
     46  C          5.1050   -9.9050   -0.9120 C.2    90  GLY90       0.2639
     47  O          5.7000  -10.8560   -0.4580 O.2    90  GLY90      -0.2714
     48  N          4.3100   -9.1940   -0.1290 N.am   91  CYS91      -0.1953
     49  CA         4.0870   -9.6780    1.2410 C.3    91  CYS91       0.1843
     50  C          2.6080   -9.5030    1.5000 C.2    91  CYS91       0.2625
     51  O          1.9440   -8.7220    0.8320 O.2    91  CYS91      -0.2714
     52  CB         5.0240   -8.9670    2.2950 C.3    91  CYS91       0.0997
     53  SG         5.4520   -9.5690    4.0110 S.3    91  CYS91      -0.0797
     54  N          2.0930  -10.3270    2.4130 N.am   92  LEU92      -0.1977
     55  CA         0.7050  -10.2700    2.8850 C.3    92  LEU92       0.1596
     56  C          0.7050   -9.4110    4.1540 C.2    92  LEU92       0.2287
     57  O         -0.3340   -9.0280    4.6690 O.2    92  LEU92      -0.2864
     58  CB         0.1790  -11.6740    3.1730 C.3    92  LEU92       0.0297
     59  CG         0.1770  -12.6870    2.0370 C.3    92  LEU92       0.0022
     60  CD1       -0.0070  -14.0710    2.6440 C.3    92  LEU92       0.0001
     61  CD2       -0.9120  -12.3200    1.0380 C.3    92  LEU92       0.0001
     62  N         11.7810  -21.3000   -7.1000 N.3   126  PHE126     -0.1241
     63  CA        10.6410  -20.7250   -6.4070 C.3   126  PHE126      0.1605
     64  C         10.4500  -21.2880   -4.9940 C.2   126  PHE126      0.2264
     65  O         10.3860  -20.5260   -4.0380 O.2   126  PHE126     -0.2867
     66  CB         9.3740  -20.8520   -7.2410 C.3   126  PHE126      0.0534
     67  CG         8.2310  -20.0720   -6.6780 C.ar  126  PHE126     -0.0203
     68  CD1        8.3280  -18.6840   -6.5110 C.ar  126  PHE126     -0.0042
     69  CD2        7.0500  -20.7120   -6.2660 C.ar  126  PHE126     -0.0042
     70  CE1        7.2540  -17.9510   -5.9540 C.ar  126  PHE126     -0.0003
     71  CE2        5.9910  -19.9760   -5.7120 C.ar  126  PHE126     -0.0003
     72  CZ         6.0910  -18.6040   -5.5420 C.ar  126  PHE126     -0.0000
     73  N         12.8660  -19.8180   -2.8420 N.3   129  ARG129     -0.1231
     74  CA        12.6830  -18.3920   -2.6230 C.3   129  ARG129      0.1694
     75  C         11.6480  -18.2380   -1.5210 C.2   129  ARG129      0.2591
     76  O         11.8020  -17.4470   -0.6120 O.2   129  ARG129     -0.2718
     77  CB        12.2700  -17.6900   -3.9420 C.3   129  ARG129      0.0321
     78  CG        11.3980  -16.4480   -3.8140 C.3   129  ARG129      0.0489
     79  CD        11.0660  -15.8120   -5.1670 C.3   129  ARG129      0.2205
     80  NE        12.2000  -15.9040   -6.1090 N.pl3 129  ARG129     -0.0865
     81  CZ        13.1880  -14.9970   -6.2030 C.cat 129  ARG129      0.5346
     82  NH1       13.1510  -13.8680   -5.4490 N.pl3 129  ARG129      0.1354
     83  NH2       14.1820  -15.1960   -7.0940 N.pl3 129  ARG129      0.1354
     84  N         10.5810  -19.0080   -1.6380 N.am  130  VAL130     -0.1980
     85  CA         9.5450  -19.0140   -0.6260 C.3   130  VAL130      0.1595
     86  C         10.1650  -19.2250    0.7490 C.2   130  VAL130      0.2287
     87  O          9.9320  -18.4080    1.6590 O.2   130  VAL130     -0.2864
     88  CB         8.4190  -20.0260   -0.9250 C.3   130  VAL130      0.0276
     89  CG1        7.4450  -20.0840    0.2570 C.3   130  VAL130      0.0022
     90  CG2        7.6910  -19.6260   -2.2350 C.3   130  VAL130      0.0022
     91  N         12.2670  -16.3400    1.9580 N.3   133  HIS133     -0.1226
     92  CA        11.4110  -15.2180    2.2670 C.3   133  HIS133      0.1752
     93  C         10.7870  -15.3950    3.6670 C.2   133  HIS133      0.2595
     94  O         10.8620  -14.4660    4.4780 O.2   133  HIS133     -0.2718
     95  CB        10.3490  -14.9910    1.1630 C.3   133  HIS133      0.0759
     96  CG         9.3550  -13.9100    1.4900 C.ar  133  HIS133      0.0818
     97  ND1        9.2910  -12.7190    0.7990 N.ar  133  HIS133     -0.2268
     98  CD2        8.3900  -13.8410    2.4400 C.ar  133  HIS133      0.1154
     99  CE1        8.3450  -11.9550    1.3270 C.ar  133  HIS133      0.1986
    100  NE2        7.7850  -12.6150    2.3230 N.ar  133  HIS133     -0.2212
    101  N         10.1970  -16.5770    3.9480 N.am  134  GLU134     -0.1979
    102  CA         9.5580  -16.8260    5.2410 C.3   134  GLU134      0.1602
    103  C         10.5850  -16.8320    6.3300 C.2   134  GLU134      0.2287
    104  O         10.3320  -16.3010    7.4300 O.2   134  GLU134     -0.2864
    105  CB         8.7880  -18.1260    5.2610 C.3   134  GLU134      0.0415
    106  CG         7.6990  -18.2170    4.2120 C.3   134  GLU134      0.1163
    107  CD         6.8350  -16.9900    4.1320 C.2   134  GLU134      0.3649
    108  OE1        6.6460  -16.2030    5.0970 O.co2 134  GLU134     -0.2457
    109  OE2        6.3020  -16.8020    3.0540 O.co2 134  GLU134     -0.2457
@<TRIPOS>BOND
     1    29    30   ar
     2    29    27   ar
     3    32    30   ar
     4    32    34   ar
     5    30    28   ar
     6    27    26   ar
     7    34    33   ar
     8    28    26   ar
     9    28    31   ar
    10    26    25    1
    11    33    31   ar
    12    25    22    1
    13    21    22    1
    14    22    23    1
    15    66    67    1
    16    66    63    1
    17    62    63    1
    18    83    81    1
    19    67    68   ar
    20    67    69   ar
    21    23    24    2
    22    23    35   am
    23    68    70   ar
    24    63    64    1
    25    69    71   ar
    26    81    80    2
    27    81    82    1
    28    80    79    1
    29    70    72   ar
    30    71    72   ar
    31    35    36    1
    32    79    78    1
    33    64    65    2
    34    36    37    1
    35    36    39    1
    36    38    37    2
    37    77    78    1
    38    77    74    1
    39    37    44   am
    40    40    39    1
    41    40    41    1
    42     6     5    1
    43    44    45    1
    44    73    74    1
    45    43    41   ar
    46    74    75    1
    47    41    42   ar
    48    45    46    1
    49    90    88    1
    50     5     7    1
    51     5     2    1
    52    84    75   am
    53    84    85    1
    54    75    76    2
    55    88    85    1
    56    88    89    1
    57    46    47    2
    58    46    48   am
    59     2     1    1
    60     2     3    1
    61    85    86    1
    62    48    49    1
    63     3     4    2
    64     3     8   am
    65    86    87    2
    66    97    99   ar
    67    97    96   ar
    68    51    50    2
    69    61    59    1
    70    95    96    1
    71    95    92    1
    72    49    50    1
    73    49    52    1
    74     8     9    1
    75    99   100   ar
    76    96    98   ar
    77    50    54   am
    78    91    92    1
    79    59    60    1
    80    59    58    1
    81    92    93    1
    82    52    53    1
    83   100    98   ar
    84    54    55    1
    85     9    10    1
    86    55    58    1
    87    55    56    1
    88   109   107   ar
    89    11    10    2
    90    93   101   am
    91    93    94    2
    92   101   102    1
    93   107   106    1
    94   107   108   ar
    95    56    57    2
    96   106   105    1
    97   102   105    1
    98   102   103    1
    99    20    18   am
   100   103   104    2
   101    19    18    2
   102    18    17    1
   103    17    16    1
   104    16    13    1
   105    13    14    1
   106    13    12    1
   107    15    14    2
