@<TRIPOS>MOLECULE
tmp/5cx6B00.pdb
 125 118 0 0 0
SMALL
GASTEIGER

@<TRIPOS>ATOM
      1  N         22.0170   13.6400   16.1640 N.3    21  LEU21      -0.1245
      2  CA        22.7550   12.3870   16.2840 C.3    21  LEU21       0.1561
      3  C         22.5810   11.4630   15.0850 C.2    21  LEU21       0.2260
      4  O         23.5290   10.7950   14.6710 O.2    21  LEU21      -0.2867
      5  CB        22.3390   11.6550   17.5620 C.3    21  LEU21       0.0270
      6  CG        22.8150   12.2890   18.8720 C.3    21  LEU21       0.0019
      7  CD1       22.1500   11.6000   20.0540 C.3    21  LEU21       0.0001
      8  CD2       24.3300   12.2120   18.9870 C.3    21  LEU21       0.0001
      9  N         17.7920    9.0580   32.4020 N.3   543  GLU543     -0.1231
     10  CA        18.9560    9.1110   31.5150 C.3   543  GLU543      0.1699
     11  C         18.8210    8.2220   30.2740 C.2   543  GLU543      0.2592
     12  O         18.5610    7.0250   30.3820 O.2   543  GLU543     -0.2718
     13  CB        20.2160    8.7160   32.3000 C.3   543  GLU543      0.0402
     14  CG        20.9510    9.8590   33.0070 C.3   543  GLU543      0.1161
     15  CD        22.2300   10.2930   32.2970 C.2   543  GLU543      0.3649
     16  OE1       23.1630    9.4700   32.1820 O.co2 543  GLU543     -0.2457
     17  OE2       22.3110   11.4700   31.9000 O.co2 543  GLU543     -0.2457
     18  N         19.0170    8.8200   29.1000 N.am  544  THR544     -0.1953
     19  CA        18.9990    8.0940   27.8250 C.3   544  THR544      0.1897
     20  C         20.2640    7.2570   27.6110 C.2   544  THR544      0.2313
     21  O         21.2690    7.4650   28.2830 O.2   544  THR544     -0.2863
     22  CB        18.8600    9.0600   26.6340 C.3   544  THR544      0.1794
     23  OG1       20.0040    9.9210   26.5910 O.3   544  THR544     -0.2208
     24  CG2       17.6020    9.9050   26.7730 C.3   544  THR544      0.0378
     25  N         22.2260    7.4170   25.0710 N.3   546  THR546     -0.1203
     26  CA        23.2340    8.3330   24.5460 C.3   546  THR546      0.1994
     27  C         23.9550    9.0280   25.6970 C.2   546  THR546      0.2617
     28  O         25.1790    9.1450   25.7020 O.2   546  THR546     -0.2717
     29  CB        22.6070    9.3860   23.6070 C.3   546  THR546      0.1784
     30  OG1       21.9890    8.7250   22.4980 O.3   546  THR546     -0.2211
     31  CG2       23.6600   10.3410   23.0910 C.3   546  THR546      0.0376
     32  N         23.1780    9.4670   26.6770 N.am  547  MET547     -0.1979
     33  CA        23.7100   10.1500   27.8440 C.3   547  MET547      0.1605
     34  C         24.6250    9.2120   28.6400 C.2   547  MET547      0.2287
     35  O         25.6700    9.6200   29.1440 O.2   547  MET547     -0.2864
     36  CB        22.5560   10.6610   28.7160 C.3   547  MET547      0.0413
     37  CG        22.4650   12.1780   28.7740 C.3   547  MET547      0.0598
     38  SD        21.0100   12.8870   29.6020 S.3   547  MET547     -0.1393
     39  CE        19.6560   12.1780   28.6820 C.3   547  MET547      0.0692
     40  N         27.8650    8.5520   26.7490 N.3   550  ARG550     -0.1231
     41  CA        28.7160    9.7230   26.8270 C.3   550  ARG550      0.1694
     42  C         29.4220    9.8050   28.1790 C.2   550  ARG550      0.2592
     43  O         30.6150   10.1230   28.2390 O.2   550  ARG550     -0.2718
     44  CB        27.9150   10.9960   26.5770 C.3   550  ARG550      0.0321
     45  CG        28.7690   12.2540   26.7390 C.3   550  ARG550      0.0489
     46  CD        29.7940   12.3890   25.6170 C.3   550  ARG550      0.2205
     47  NE        30.8840   13.2870   25.9910 N.pl3 550  ARG550     -0.0865
     48  CZ        31.7880   13.7750   25.1390 C.cat 550  ARG550      0.5346
     49  NH1       31.7360   13.4670   23.8440 N.pl3 550  ARG550      0.1354
     50  NH2       32.7430   14.5780   25.5810 N.pl3 550  ARG550      0.1354
     51  N         28.6820    9.5220   29.2520 N.am  551  THR551     -0.1953
     52  CA        29.2430    9.4920   30.6080 C.3   551  THR551      0.1897
     53  C         30.4480    8.5560   30.6970 C.2   551  THR551      0.2313
     54  O         31.4490    8.8830   31.3250 O.2   551  THR551     -0.2863
     55  CB        28.1820    9.0580   31.6560 C.3   551  THR551      0.1794
     56  OG1       27.1340   10.0370   31.7040 O.3   551  THR551     -0.2208
     57  CG2       28.8050    8.9190   33.0650 C.3   551  THR551      0.0378
     58  N         33.3100   10.3160   28.9470 N.3   554  ASP554     -0.1225
     59  CA        33.8380   11.4230   29.7500 C.3   554  ASP554      0.1805
     60  C         34.6090   10.9400   30.9820 C.2   554  ASP554      0.2597
     61  O         35.6540   11.4960   31.3230 O.2   554  ASP554     -0.2718
     62  CB        32.7080   12.3620   30.1820 C.3   554  ASP554      0.1424
     63  CG        32.2410   13.2730   29.0520 C.2   554  ASP554      0.3668
     64  OD1       33.0950   13.7670   28.2820 O.co2 554  ASP554     -0.2456
     65  OD2       31.0210   13.5050   28.9440 O.co2 554  ASP554     -0.2456
     66  N         34.0930    9.9110   31.6480 N.am  555  ARG555     -0.1979
     67  CA        34.7580    9.3790   32.8440 C.3   555  ARG555      0.1597
     68  C         36.0850    8.7080   32.4950 C.2   555  ARG555      0.2287
     69  O         37.0400    8.7910   33.2640 O.2   555  ARG555     -0.2864
     70  CB        33.8510    8.3880   33.5670 C.3   555  ARG555      0.0334
     71  CG        32.6290    9.0450   34.2210 C.3   555  ARG555      0.0492
     72  CD        31.8850    8.0610   35.1120 C.3   555  ARG555      0.2205
     73  NE        32.6530    7.6960   36.3000 N.pl3 555  ARG555     -0.0865
     74  CZ        33.0460    6.4570   36.5950 C.cat 555  ARG555      0.5346
     75  NH1       32.7500    5.4500   35.7880 N.pl3 555  ARG555      0.1354
     76  NH2       33.7330    6.2230   37.7070 N.pl3 555  ARG555      0.1354
     77  N         29.1280   14.6830   19.3840 N.3   588  MET588     -0.1230
     78  CA        27.9450   15.5160   19.6350 C.3   588  MET588      0.1702
     79  C         28.2470   16.7480   20.4970 C.2   588  MET588      0.2592
     80  O         29.2580   16.8040   21.2120 O.2   588  MET588     -0.2718
     81  CB        26.8460   14.7010   20.3050 C.3   588  MET588      0.0401
     82  CG        27.1720   14.3430   21.7560 C.3   588  MET588      0.0596
     83  SD        25.9120   13.3020   22.5150 S.3   588  MET588     -0.1393
     84  CE        26.5730   13.1410   24.1540 C.3   588  MET588      0.0692
     85  N         27.3670   17.7410   20.4030 N.am  589  ARG589     -0.1966
     86  CA        27.3960   18.8910   21.2950 C.3   589  ARG589      0.1729
     87  C         27.0800   18.4020   22.7060 C.2   589  ARG589      0.2616
     88  O         26.1130   17.6670   22.8990 O.2   589  ARG589     -0.2715
     89  CB        26.3870   19.9550   20.8440 C.3   589  ARG589      0.0348
     90  CG        26.3270   21.1970   21.7230 C.3   589  ARG589      0.0492
     91  CD        27.5970   22.0290   21.5860 C.3   589  ARG589      0.2205
     92  NE        27.5450   23.2770   22.3470 N.pl3 589  ARG589     -0.0865
     93  CZ        27.7630   23.3630   23.6550 C.cat 589  ARG589      0.5346
     94  NH1       28.0330   22.2690   24.3500 N.pl3 589  ARG589      0.1354
     95  NH2       27.7020   24.5350   24.2730 N.pl3 589  ARG589      0.1354
     96  N         27.9140   18.7690   23.6760 N.am  590  VAL590     -0.1963
     97  CA        27.6910   18.3590   25.0640 C.3   590  VAL590      0.1727
     98  C         27.5630   19.5870   25.9740 C.2   590  VAL590      0.2616
     99  O         28.2120   20.6090   25.7520 O.2   590  VAL590     -0.2715
    100  CB        28.8340   17.4420   25.5860 C.3   590  VAL590      0.0290
    101  CG1       28.9480   16.1910   24.7260 C.3   590  VAL590      0.0023
    102  CG2       30.1530   18.1940   25.6080 C.3   590  VAL590      0.0023
    103  N         26.7250   19.4930   26.9970 N.am  591  GLN591     -0.1963
    104  CA        26.5090   20.6420   27.8630 C.3   591  GLN591      0.1733
    105  C         27.6010   20.8250   28.9220 C.2   591  GLN591      0.2616
    106  O         28.0010   21.9550   29.1960 O.2   591  GLN591     -0.2715
    107  CB        25.1400   20.5460   28.5290 C.3   591  GLN591      0.0408
    108  CG        24.0260   20.3200   27.5370 C.3   591  GLN591      0.0908
    109  CD        22.6680   20.2440   28.1940 C.2   591  GLN591      0.2608
    110  OE1       21.9260   21.2280   28.2280 O.2   591  GLN591     -0.2717
    111  NE2       22.3300   19.0720   28.7230 N.am  591  GLN591     -0.0878
    112  N         28.0920   19.7260   29.4950 N.am  592  GLU592     -0.1977
    113  CA        29.0790   19.7970   30.5840 C.3   592  GLU592      0.1602
    114  C         30.3750   20.4650   30.1800 C.2   592  GLU592      0.2287
    115  O         30.7110   20.5360   28.9890 O.2   592  GLU592     -0.2864
    116  CB        29.4180   18.4070   31.1160 C.3   592  GLU592      0.0415
    117  CG        28.5930   17.9420   32.2660 C.3   592  GLU592      0.1163
    118  CD        27.3540   17.2370   31.8160 C.2   592  GLU592      0.3649
    119  OE1       26.8410   16.3910   32.5780 O.co2 592  GLU592     -0.2457
    120  OE2       26.8870   17.5370   30.7020 O.co2 592  GLU592     -0.2457
    121  N         32.5110   16.9870   30.4190 N.3   598  ALA598     -0.1245
    122  CA        32.5990   16.9750   31.8860 C.3   598  ALA598      0.1562
    123  C         34.0480   16.8550   32.3660 C.2   598  ALA598      0.2260
    124  O         34.7760   15.9520   31.9420 O.2   598  ALA598     -0.2867
    125  CB        31.7640   15.8540   32.4460 C.3   598  ALA598      0.0290
@<TRIPOS>BOND
     1     4     3    2
     2     3     2    1
     3     1     2    1
     4     2     5    1
     5     5     6    1
     6     6     8    1
     7     6     7    1
     8    77    78    1
     9    78    81    1
    10    78    79    1
    11    81    82    1
    12    85    79   am
    13    85    86    1
    14    79    80    2
    15    89    86    1
    16    89    90    1
    17    86    87    1
    18    91    90    1
    19    91    92    1
    20    82    83    1
    21    92    93    2
    22    30    29    1
    23    83    84    1
    24    87    88    2
    25    87    96   am
    26    31    29    1
    27    29    26    1
    28    93    95    1
    29    93    94    1
    30    96    97    1
    31    49    48    1
    32    26    25    1
    33    26    27    1
    34   101   100    1
    35    97   100    1
    36    97    98    1
    37    48    50    1
    38    48    47    2
    39   100   102    1
    40    46    47    1
    41    46    45    1
    42    27    28    2
    43    27    32   am
    44    99    98    2
    45    98   103   am
    46    44    45    1
    47    44    41    1
    48    23    22    1
    49    22    24    1
    50    22    19    1
    51    32    33    1
    52    40    41    1
    53    41    42    1
    54   103   104    1
    55   108   109    1
    56   108   107    1
    57    20    19    1
    58    20    21    2
    59    19    18    1
    60    33    34    1
    61    33    36    1
    62   104   107    1
    63   104   105    1
    64    42    43    2
    65    42    51   am
    66   109   110    2
    67   109   111   am
    68    64    63   ar
    69    34    35    2
    70    39    38    1
    71    36    37    1
    72    37    38    1
    73   105   106    2
    74   105   112   am
    75    65    63   ar
    76    58    59    1
    77   115   114    2
    78    63    62    1
    79    18    11   am
    80    51    52    1
    81   112   113    1
    82    59    62    1
    83    59    60    1
    84   114   113    1
    85    11    12    2
    86    11    10    1
    87   121   122    1
    88   113   116    1
    89    52    53    1
    90    52    55    1
    91    53    54    2
    92   120   118   ar
    93    60    61    2
    94    60    66   am
    95   116   117    1
    96    10    13    1
    97    10     9    1
    98    66    67    1
    99    55    56    1
   100    55    57    1
   101   118   117    1
   102   118   119   ar
   103   122   123    1
   104   122   125    1
   105    17    15   ar
   106   124   123    2
   107    16    15   ar
   108    15    14    1
   109    13    14    1
   110    68    67    1
   111    68    69    2
   112    67    70    1
   113    70    71    1
   114    71    72    1
   115    72    73    1
   116    75    74    1
   117    73    74    2
   118    74    76    1
