@<TRIPOS>MOLECULE
tmp/5cx6A00.pdb
 146 137 0 0 0
SMALL
GASTEIGER

@<TRIPOS>ATOM
      1  N          7.0510   31.4470   31.2100 N.3    21  LEU21      -0.1245
      2  CA         5.9930   32.4300   31.0090 C.3    21  LEU21       0.1561
      3  C          5.0200   32.4560   32.1810 C.2    21  LEU21       0.2260
      4  O          4.5680   33.5290   32.5950 O.2    21  LEU21      -0.2867
      5  CB         5.2480   32.1510   29.7030 C.3    21  LEU21       0.0270
      6  CG         5.9890   32.6330   28.4520 C.3    21  LEU21       0.0019
      7  CD1        5.4210   31.9930   27.1890 C.3    21  LEU21       0.0001
      8  CD2        5.9310   34.1480   28.3530 C.3    21  LEU21       0.0001
      9  N          2.2600   37.7120    5.9380 N.3   537  SER537     -0.1217
     10  CA         2.3430   36.4280    6.6080 C.3   537  SER537      0.1889
     11  C          1.0230   35.6790    6.4420 C.2   537  SER537      0.2288
     12  O         -0.0460   36.2300    6.6930 O.2   537  SER537     -0.2866
     13  CB         2.6930   36.6250    8.0940 C.3   537  SER537      0.2089
     14  OG         2.1570   35.5990    8.9110 O.3   537  SER537     -0.2183
     15  N         -0.6340   30.5870    9.7700 N.3   540  ARG540     -0.1245
     16  CA         0.1310   29.4310   10.2120 C.3   540  ARG540      0.1563
     17  C         -0.5070   28.8710   11.4770 C.2   540  ARG540      0.2260
     18  O         -0.5340   29.5380   12.5100 O.2   540  ARG540     -0.2867
     19  CB         1.5890   29.8200   10.4670 C.3   540  ARG540      0.0307
     20  CG         2.5860   29.2130    9.4970 C.3   540  ARG540      0.0489
     21  CD         4.0030   29.6330    9.8540 C.3   540  ARG540      0.2205
     22  NE         4.2640   29.5150   11.2860 N.pl3 540  ARG540     -0.0865
     23  CZ         5.3030   30.0680   11.9060 C.cat 540  ARG540      0.5346
     24  NH1        5.4620   29.9040   13.2140 N.pl3 540  ARG540      0.1354
     25  NH2        6.1840   30.7850   11.2200 N.pl3 540  ARG540      0.1354
     26  N          1.4870   28.2170   14.7400 N.3   543  GLU543     -0.1231
     27  CA         1.7580   29.3720   15.5870 C.3   543  GLU543      0.1699
     28  C          0.9490   29.3490   16.8720 C.2   543  GLU543      0.2592
     29  O         -0.2880   29.3110   16.8510 O.2   543  GLU543     -0.2718
     30  CB         1.4670   30.6740   14.8400 C.3   543  GLU543      0.0402
     31  CG         2.6480   31.2470   14.0970 C.3   543  GLU543      0.1161
     32  CD         2.3560   32.6200   13.5370 C.2   543  GLU543      0.3649
     33  OE1        1.1620   32.9630   13.4070 O.co2 543  GLU543     -0.2457
     34  OE2        3.3180   33.3610   13.2400 O.co2 543  GLU543     -0.2457
     35  N          1.6620   29.3840   17.9890 N.am  544  THR544     -0.1953
     36  CA         1.0370   29.4710   19.2920 C.3   544  THR544      0.1897
     37  C          0.3860   30.8340   19.4710 C.2   544  THR544      0.2313
     38  O          0.7190   31.7880   18.7650 O.2   544  THR544     -0.2863
     39  CB         2.0530   29.2510   20.4140 C.3   544  THR544      0.1794
     40  OG1        2.9760   30.3440   20.4310 O.3   544  THR544     -0.2208
     41  CG2        2.8160   27.9460   20.2050 C.3   544  THR544      0.0378
     42  N          0.8090   32.7130   22.0490 N.3   546  THR546     -0.1203
     43  CA         1.8820   33.5570   22.5800 C.3   546  THR546      0.1994
     44  C          2.6980   34.1920   21.4560 C.2   546  THR546      0.2617
     45  O          3.0440   35.3670   21.5100 O.2   546  THR546     -0.2717
     46  CB         2.8380   32.7550   23.4990 C.3   546  THR546      0.1784
     47  OG1        2.0980   32.1690   24.5750 O.3   546  THR546     -0.2211
     48  CG2        3.9110   33.6610   24.0770 C.3   546  THR546      0.0376
     49  N          2.9920   33.3940   20.4390 N.am  547  MET547     -0.1979
     50  CA         3.7260   33.8370   19.2630 C.3   547  MET547      0.1605
     51  C          2.9500   34.9200   18.4940 C.2   547  MET547      0.2287
     52  O          3.5230   35.9000   18.0020 O.2   547  MET547     -0.2864
     53  CB         4.0010   32.6300   18.3630 C.3   547  MET547      0.0413
     54  CG         5.1380   32.7820   17.3770 C.3   547  MET547      0.0598
     55  SD         5.3660   31.2590   16.4250 S.3   547  MET547     -0.1393
     56  CE         5.3060   30.0180   17.7210 C.3   547  MET547      0.0692
     57  N          2.9620   38.0510   20.4990 N.3   550  ARG550     -0.1231
     58  CA         4.2690   38.6830   20.4370 C.3   550  ARG550      0.1694
     59  C          4.5140   39.3420   19.0740 C.2   550  ARG550      0.2592
     60  O          5.1950   40.3670   18.9900 O.2   550  ARG550     -0.2718
     61  CB         5.3710   37.6730   20.7400 C.3   550  ARG550      0.0321
     62  CG         6.7620   38.2640   20.6450 C.3   550  ARG550      0.0489
     63  CD         7.0380   39.2950   21.7210 C.3   550  ARG550      0.2205
     64  NE         8.1520   40.1510   21.3190 N.pl3 550  ARG550     -0.0865
     65  CZ         8.8370   40.9540   22.1360 C.cat 550  ARG550      0.5346
     66  NH1        8.5490   41.0120   23.4360 N.pl3 550  ARG550      0.1354
     67  NH2        9.8240   41.6980   21.6500 N.pl3 550  ARG550      0.1354
     68  N          3.9470   38.7610   18.0190 N.am  551  THR551     -0.1953
     69  CA         4.0810   39.3230   16.6680 C.3   551  THR551      0.1897
     70  C          3.4050   40.6870   16.5990 C.2   551  THR551      0.2313
     71  O          3.9610   41.6330   16.0460 O.2   551  THR551     -0.2863
     72  CB         3.4810   38.3700   15.5870 C.3   551  THR551      0.1794
     73  OG1        4.2930   37.1970   15.4970 O.3   551  THR551     -0.2208
     74  CG2        3.4230   39.0320   14.1950 C.3   551  THR551      0.0378
     75  N          5.6770   43.2060   18.2430 N.3   554  ASP554     -0.1225
     76  CA         6.8520   43.5410   17.4480 C.3   554  ASP554      0.1805
     77  C          6.4960   44.3820   16.2330 C.2   554  ASP554      0.2597
     78  O          7.2140   45.3200   15.8950 O.2   554  ASP554     -0.2718
     79  CB         7.5820   42.2700   16.9990 C.3   554  ASP554      0.1424
     80  CG         8.3650   41.6230   18.1340 C.2   554  ASP554      0.3668
     81  OD1        9.1120   42.3390   18.8380 O.co2 554  ASP554     -0.2456
     82  OD2        8.2090   40.4060   18.3460 O.co2 554  ASP554     -0.2456
     83  N          5.4050   44.0350   15.5680 N.am  555  ARG555     -0.1979
     84  CA         5.0030   44.7800   14.3760 C.3   555  ARG555      0.1597
     85  C          4.6020   46.1970   14.7730 C.2   555  ARG555      0.2287
     86  O          4.8860   47.1450   14.0520 O.2   555  ARG555     -0.2864
     87  CB         3.8680   44.0580   13.6330 C.3   555  ARG555      0.0334
     88  CG         4.3450   42.7500   12.9460 C.3   555  ARG555      0.0492
     89  CD         3.3170   42.1720   11.9790 C.3   555  ARG555      0.2205
     90  NE         3.1000   43.0590   10.8380 N.pl3 555  ARG555     -0.0865
     91  CZ         1.9780   43.7290   10.5930 C.cat 555  ARG555      0.5346
     92  NH1        0.9330   43.6210   11.4060 N.pl3 555  ARG555      0.1354
     93  NH2        1.9030   44.5140    9.5200 N.pl3 555  ARG555      0.1354
     94  N          9.3140   38.1990   27.8580 N.3   588  MET588     -0.1230
     95  CA         9.8950   36.8790   27.5690 C.3   588  MET588      0.1702
     96  C         11.1460   36.9680   26.6990 C.2   588  MET588      0.2592
     97  O         11.3500   37.9530   25.9770 O.2   588  MET588     -0.2718
     98  CB         8.8820   35.9790   26.8770 C.3   588  MET588      0.0401
     99  CG         8.6230   36.3980   25.4370 C.3   588  MET588      0.0596
    100  SD         7.1960   35.5560   24.7520 S.3   588  MET588     -0.1393
    101  CE         7.4510   35.8740   23.0330 C.3   588  MET588      0.0692
    102  N         11.9870   35.9390   26.7810 N.am  589  ARG589     -0.1966
    103  CA        13.1140   35.8230   25.8710 C.3   589  ARG589      0.1729
    104  C         12.5580   35.5640   24.4790 C.2   589  ARG589      0.2616
    105  O         11.7030   34.6950   24.2990 O.2   589  ARG589     -0.2715
    106  CB        14.0700   34.7040   26.2940 C.3   589  ARG589      0.0348
    107  CG        15.4360   34.7500   25.6090 C.3   589  ARG589      0.0492
    108  CD        16.2100   36.0190   26.0010 C.3   589  ARG589      0.2205
    109  NE        17.3280   36.3090   25.0990 N.pl3 589  ARG589     -0.0865
    110  CZ        18.1130   37.3820   25.1900 C.cat 589  ARG589      0.5346
    111  NH1       17.9100   38.2840   26.1440 N.pl3 589  ARG589      0.1354
    112  NH2       19.1010   37.5580   24.3230 N.pl3 589  ARG589      0.1354
    113  N         13.0320   36.3290   23.5010 N.am  590  VAL590     -0.1963
    114  CA        12.5990   36.1570   22.1220 C.3   590  VAL590      0.1727
    115  C         13.7990   35.8190   21.2590 C.2   590  VAL590      0.2616
    116  O         14.9370   36.1150   21.6280 O.2   590  VAL590     -0.2715
    117  CB        11.8990   37.4180   21.5670 C.3   590  VAL590      0.0290
    118  CG1       10.6130   37.6750   22.3200 C.3   590  VAL590      0.0023
    119  CG2       12.8270   38.6320   21.6420 C.3   590  VAL590      0.0023
    120  N         13.5370   35.2060   20.1100 N.am  591  GLN591     -0.1963
    121  CA        14.5980   34.7420   19.2270 C.3   591  GLN591      0.1733
    122  C         14.9570   35.7360   18.1280 C.2   591  GLN591      0.2616
    123  O         16.1280   35.8740   17.7840 O.2   591  GLN591     -0.2715
    124  CB        14.2010   33.4060   18.6100 C.3   591  GLN591      0.0408
    125  CG        14.1070   32.2890   19.6350 C.3   591  GLN591      0.0908
    126  CD        13.6070   30.9930   19.0440 C.2   591  GLN591      0.2608
    127  OE1       12.6110   30.9700   18.3200 O.2   591  GLN591     -0.2717
    128  NE2       14.2970   29.9000   19.3480 N.am  591  GLN591     -0.0878
    129  N         13.9680   36.4350   17.5780 N.am  592  GLU592     -0.1977
    130  CA        14.2490   37.3370   16.4590 C.3   592  GLU592      0.1602
    131  C         15.0930   38.5210   16.8880 C.2   592  GLU592      0.2287
    132  O         15.0830   38.9180   18.0580 O.2   592  GLU592     -0.2864
    133  CB        12.9630   37.8490   15.8080 C.3   592  GLU592      0.0415
    134  CG        12.1880   36.8040   15.0540 C.3   592  GLU592      0.1163
    135  CD        11.2970   36.0140   15.9630 C.2   592  GLU592      0.3649
    136  OE1       11.4050   36.2160   17.1960 O.co2 592  GLU592     -0.2457
    137  OE2       10.4810   35.2150   15.4550 O.co2 592  GLU592     -0.2457
    138  N         14.2730   41.3290   19.6000 N.3   597  GLY597     -0.1210
    139  CA        12.9500   41.5180   19.0220 C.3   597  GLY597      0.1956
    140  C         13.0340   41.7490   17.5210 C.2   597  GLY597      0.2611
    141  O         13.9780   42.3750   17.0510 O.2   597  GLY597     -0.2717
    142  N         12.0630   41.2220   16.7790 N.am  598  ALA598     -0.1979
    143  CA        11.9910   41.3950   15.3250 C.3   598  ALA598      0.1597
    144  C         12.2130   42.8520   14.9060 C.2   598  ALA598      0.2287
    145  O         11.5240   43.7530   15.3950 O.2   598  ALA598     -0.2864
    146  CB        10.6440   40.8910   14.8020 C.3   598  ALA598      0.0319
@<TRIPOS>BOND
     1     9    10    1
     2    11    10    1
     3    11    12    2
     4    10    13    1
     5    13    14    1
     6    20    21    1
     7    20    19    1
     8    93    91    1
     9    15    16    1
    10    21    22    1
    11    16    19    1
    12    16    17    1
    13    91    90    2
    14    91    92    1
    15    90    89    1
    16    25    23    1
    17    22    23    2
    18    17    18    2
    19    23    24    1
    20    89    88    1
    21    88    87    1
    22    34    32   ar
    23    33    32   ar
    24    32    31    1
    25    87    84    1
    26    86    85    2
    27    31    30    1
    28    74    72    1
    29    84    85    1
    30    84    83    1
    31    26    27    1
    32   146   143    1
    33    30    27    1
    34   144   143    1
    35   144   145    2
    36   134   133    1
    37   134   135    1
    38   143   142    1
    39   137   135   ar
    40    73    72    1
    41    83    77   am
    42    72    69    1
    43    27    28    1
    44   133   130    1
    45    78    77    2
    46   135   136   ar
    47    71    70    2
    48    77    76    1
    49    55    54    1
    50    55    56    1
    51   130   131    1
    52   130   129    1
    53    70    69    1
    54    69    68    1
    55   142   140   am
    56    29    28    2
    57    28    35   am
    58   131   132    2
    59    79    76    1
    60    79    80    1
    61   141   140    2
    62    54    53    1
    63    76    75    1
    64   140   139    1
    65   129   122   am
    66   123   122    2
    67    35    36    1
    68    52    51    2
    69    68    59   am
    70   122   121    1
    71    80    82   ar
    72    80    81   ar
    73   127   126    2
    74    53    50    1
    75    51    50    1
    76   124   121    1
    77   124   125    1
    78    38    37    2
    79    60    59    2
    80   139   138    1
    81   126   128   am
    82   126   125    1
    83    59    58    1
    84   121   120    1
    85    50    49    1
    86    36    37    1
    87    36    39    1
    88   120   115   am
    89    41    39    1
    90    39    40    1
    91    58    57    1
    92    58    61    1
    93    49    44   am
    94    62    61    1
    95    62    63    1
    96   115   116    2
    97   115   114    1
    98    64    63    1
    99    64    65    2
   100    44    45    2
   101    44    43    1
   102   117   119    1
   103   117   114    1
   104   117   118    1
   105    67    65    1
   106    42    43    1
   107   114   113    1
   108    65    66    1
   109    43    46    1
   110   101   100    1
   111    46    48    1
   112    46    47    1
   113   113   104   am
   114   105   104    2
   115   112   110    1
   116   104   103    1
   117   100    99    1
   118   109   110    2
   119   109   108    1
   120   110   111    1
   121    99    98    1
   122   107   108    1
   123   107   106    1
   124   103   106    1
   125   103   102    1
   126    97    96    2
   127    96   102   am
   128    96    95    1
   129    98    95    1
   130     7     6    1
   131    95    94    1
   132     8     6    1
   133     6     5    1
   134     5     2    1
   135     2     1    1
   136     2     3    1
   137     3     4    2
