@<TRIPOS>MOLECULE
tmp/5cx7E00.pdb
 101 99 0 0 0
SMALL
GASTEIGER

@<TRIPOS>ATOM
      1  N          1.1600  -30.0900    8.0950 N.3     6  PHE6       -0.1241
      2  CA         1.8160  -30.1830    9.3850 C.3     6  PHE6        0.1605
      3  C          2.8270  -31.2940    9.4130 C.2     6  PHE6        0.2264
      4  O          4.0230  -31.1280    9.7880 O.2     6  PHE6       -0.2867
      5  CB         0.8460  -30.3960   10.5750 C.3     6  PHE6        0.0534
      6  CG         1.5740  -30.8000   11.8640 C.ar    6  PHE6       -0.0203
      7  CD1        2.2570  -29.8890   12.5770 C.ar    6  PHE6       -0.0042
      8  CD2        1.7080  -32.1440   12.2060 C.ar    6  PHE6       -0.0042
      9  CE1        2.9840  -30.2490   13.7060 C.ar    6  PHE6       -0.0003
     10  CE2        2.4510  -32.5400   13.3120 C.ar    6  PHE6       -0.0003
     11  CZ         3.1000  -31.5730   14.0670 C.ar    6  PHE6       -0.0000
     12  N          6.8790  -30.9780    9.9510 N.3    10  HIS10      -0.1226
     13  CA         7.4140  -31.6450   11.0800 C.3    10  HIS10       0.1752
     14  C          8.5240  -32.6140   10.6870 C.2    10  HIS10       0.2595
     15  O          9.5520  -32.6320   11.3390 O.2    10  HIS10      -0.2718
     16  CB         6.2920  -32.3470   11.8760 C.3    10  HIS10       0.0759
     17  CG         6.7280  -32.7650   13.2440 C.ar   10  HIS10       0.0818
     18  ND1        7.1760  -34.0410   13.5190 N.ar   10  HIS10      -0.2268
     19  CD2        6.8420  -32.0680   14.4050 C.ar   10  HIS10       0.1154
     20  CE1        7.5410  -34.1280   14.7880 C.ar   10  HIS10       0.1986
     21  NE2        7.3410  -32.9550   15.3130 N.ar   10  HIS10      -0.2212
     22  N          8.2750  -33.4220    9.6770 N.am   11  GLN11      -0.1979
     23  CA         9.2210  -34.4170    9.1940 C.3    11  GLN11       0.1601
     24  C         10.4310  -33.8090    8.5600 C.2    11  GLN11       0.2287
     25  O         11.5170  -34.2810    8.8040 O.2    11  GLN11      -0.2864
     26  CB         8.5840  -35.4590    8.2410 C.3    11  GLN11       0.0394
     27  CG         7.5630  -36.2980    8.9710 C.3    11  GLN11       0.0908
     28  CD         8.1550  -36.9570   10.2180 C.2    11  GLN11       0.2608
     29  OE1        9.0000  -37.8350   10.0850 O.2    11  GLN11      -0.2717
     30  NE2        7.6890  -36.5920   11.4060 N.am   11  GLN11      -0.0878
     31  N         11.7110  -30.9410    9.3260 N.3    13  THR13      -0.1203
     32  CA        12.4490  -30.3240   10.4080 C.3    13  THR13       0.1994
     33  C         13.1820  -31.3540   11.2900 C.2    13  THR13       0.2617
     34  O         14.3830  -31.2930   11.5210 O.2    13  THR13      -0.2717
     35  CB        11.5750  -29.4590   11.2530 C.3    13  THR13       0.1784
     36  OG1       10.8990  -28.4890   10.4560 O.3    13  THR13      -0.2211
     37  CG2       12.4340  -28.7100   12.2810 C.3    13  THR13       0.0376
     38  N         12.4600  -32.3660   11.6960 N.am   14  ARG14      -0.1979
     39  CA        13.0690  -33.4830   12.3850 C.3    14  ARG14       0.1597
     40  C         14.1690  -34.1690   11.6310 C.2    14  ARG14       0.2287
     41  O         15.1790  -34.4640   12.2110 O.2    14  ARG14      -0.2864
     42  CB        11.9910  -34.4560   12.6880 C.3    14  ARG14       0.0334
     43  CG        12.3720  -35.6180   13.5300 C.3    14  ARG14       0.0492
     44  CD        11.1920  -36.4610   14.0390 C.3    14  ARG14       0.2205
     45  NE        11.8370  -37.5740   14.7190 N.pl3  14  ARG14      -0.0865
     46  CZ        11.2060  -38.6610   15.1700 C.cat  14  ARG14       0.5346
     47  NH1        9.8870  -38.7840   15.0790 N.pl3  14  ARG14       0.1354
     48  NH2       11.9130  -39.6280   15.7020 N.pl3  14  ARG14       0.1354
     49  N         17.3090  -31.9680   11.4690 N.3    17  VAL17      -0.1231
     50  CA        18.0180  -31.9420   12.7510 C.3    17  VAL17       0.1692
     51  C         18.7150  -33.2810   13.0360 C.2    17  VAL17       0.2591
     52  O         19.8810  -33.3190   13.4680 O.2    17  VAL17      -0.2718
     53  CB        17.0500  -31.5900   13.8850 C.3    17  VAL17       0.0266
     54  CG1       17.6360  -31.8390   15.2810 C.3    17  VAL17       0.0020
     55  CG2       16.6170  -30.1350   13.7960 C.3    17  VAL17       0.0020
     56  N         18.0090  -34.3960   12.7940 N.am   18  GLU18      -0.1979
     57  CA        18.6180  -35.7360   12.9580 C.3    18  GLU18       0.1602
     58  C         19.8970  -35.8970   12.1050 C.2    18  GLU18       0.2287
     59  O         20.9120  -36.4030   12.5810 O.2    18  GLU18      -0.2864
     60  CB        17.5980  -36.8510   12.6640 C.3    18  GLU18       0.0415
     61  CG        16.5990  -36.9560   13.8250 C.3    18  GLU18       0.1163
     62  CD        15.4720  -37.9620   13.5830 C.2    18  GLU18       0.3649
     63  OE1       15.4300  -38.5810   12.4780 O.co2  18  GLU18      -0.2457
     64  OE2       14.6120  -38.1070   14.4820 O.co2  18  GLU18      -0.2457
     65  N         22.7050  -33.7910   13.5440 N.3    21  GLN21      -0.1245
     66  CA        23.2490  -34.5600   14.6830 C.3    21  GLN21       0.1566
     67  C         24.2150  -35.6940   14.2370 C.2    21  GLN21       0.2260
     68  O         25.2730  -35.8470   14.8280 O.2    21  GLN21      -0.2867
     69  CB        22.1320  -35.1470   15.5430 C.3    21  GLN21       0.0367
     70  CG        21.4090  -34.0940   16.3300 C.3    21  GLN21       0.0905
     71  CD        20.1430  -34.5940   16.9990 C.2    21  GLN21       0.2608
     72  OE1       19.6000  -35.6220   16.6400 O.2    21  GLN21      -0.2717
     73  NE2       19.6900  -33.8710   17.9680 N.am   21  GLN21      -0.0878
     74  N          8.6970  -22.3240    9.4000 N.3    40  VAL40      -0.1231
     75  CA         9.3670  -22.9650   10.4770 C.3    40  VAL40       0.1692
     76  C         10.7840  -22.4790   10.5570 C.2    40  VAL40       0.2593
     77  O         11.4440  -22.3800    9.5330 O.2    40  VAL40      -0.2718
     78  CB         9.4460  -24.5250   10.3250 C.3    40  VAL40       0.0266
     79  CG1       10.0600  -25.1930   11.5810 C.3    40  VAL40       0.0020
     80  CG2        8.0880  -25.1240   10.0900 C.3    40  VAL40       0.0020
     81  N         11.2470  -22.2350   11.7750 N.am   41  THR41      -0.1939
     82  CA        12.6410  -22.0630   12.0050 C.3    41  THR41       0.2028
     83  C         12.9950  -22.9040   13.2130 C.2    41  THR41       0.2642
     84  O         12.3040  -22.8720   14.2060 O.2    41  THR41      -0.2714
     85  CB        13.0240  -20.5600   12.2930 C.3    41  THR41       0.1808
     86  OG1       12.6780  -19.7950   11.1560 O.3    41  THR41      -0.2208
     87  CG2       14.5420  -20.4020   12.4720 C.3    41  THR41       0.0379
     88  N         14.1570  -23.5220   13.1740 N.am   42  TRP42      -0.1973
     89  CA        14.7130  -24.2460   14.3180 C.3    42  TRP42       0.1640
     90  C         16.1950  -24.1210   14.3760 C.2    42  TRP42       0.2290
     91  O         16.9070  -24.3870   13.4310 O.2    42  TRP42      -0.2864
     92  CB        14.3600  -25.7610   14.1940 C.3    42  TRP42       0.0576
     93  CG        14.7520  -26.5050   15.4120 C.ar   42  TRP42       0.0006
     94  CD1       15.9990  -26.9550   15.7330 C.ar   42  TRP42       0.0946
     95  CD2       13.9340  -26.7770   16.5400 C.ar   42  TRP42       0.0152
     96  NE1       15.9850  -27.5660   16.9670 N.ar   42  TRP42      -0.2442
     97  CE2       14.7300  -27.4630   17.4860 C.ar   42  TRP42       0.0810
     98  CE3       12.5860  -26.5540   16.8320 C.ar   42  TRP42       0.0012
     99  CZ2       14.2250  -27.9180   18.6920 C.ar   42  TRP42       0.0191
    100  CZ3       12.0760  -27.0450   18.0490 C.ar   42  TRP42       0.0001
    101  CH2       12.8870  -27.6690   18.9570 C.ar   42  TRP42       0.0015
@<TRIPOS>BOND
     1     1     2    1
     2    26    27    1
     3    26    23    1
     4    24    25    2
     5    24    23    1
     6    27    28    1
     7    23    22    1
     8    31    32    1
     9     2     3    1
    10     2     5    1
    11    74    75    1
    12     3     4    2
    13    77    76    2
    14    22    14   am
    15    12    13    1
    16    29    28    2
    17    80    78    1
    18    28    30   am
    19    78    75    1
    20    78    79    1
    21    32    35    1
    22    32    33    1
    23    36    35    1
    24    75    76    1
    25    76    81   am
    26     5     6    1
    27    14    13    1
    28    14    15    2
    29    13    16    1
    30    86    85    1
    31    35    37    1
    32    33    34    2
    33    33    38   am
    34    49    50    1
    35    40    41    2
    36    40    39    1
    37    38    39    1
    38    81    82    1
    39     6     8   ar
    40     6     7   ar
    41    16    17    1
    42    82    85    1
    43    82    83    1
    44    58    59    2
    45    58    57    1
    46     8    10   ar
    47    85    87    1
    48    39    42    1
    49    63    62   ar
    50     7     9   ar
    51    60    57    1
    52    60    61    1
    53    42    43    1
    54    50    51    1
    55    50    53    1
    56    56    57    1
    57    56    51   am
    58    51    52    2
    59    88    83   am
    60    88    89    1
    61    83    84    2
    62    17    18   ar
    63    17    19   ar
    64    10    11   ar
    65    91    90    2
    66    18    20   ar
    67    43    44    1
    68    65    66    1
    69    62    61    1
    70    62    64   ar
    71     9    11   ar
    72    55    53    1
    73    53    54    1
    74    44    45    1
    75    92    89    1
    76    92    93    1
    77    67    66    1
    78    67    68    2
    79    89    90    1
    80    19    21   ar
    81    66    69    1
    82    45    46    2
    83    20    21   ar
    84    47    46    1
    85    46    48    1
    86    93    94   ar
    87    93    95   ar
    88    69    70    1
    89    94    96   ar
    90    70    71    1
    91    95    98   ar
    92    95    97   ar
    93    72    71    2
    94    98   100   ar
    95    96    97   ar
    96    71    73   am
    97    97    99   ar
    98   100   101   ar
    99    99   101   ar
