@<TRIPOS>MOLECULE
tmp/5cx8A01.pdb
 117 115 0 0 0
SMALL
GASTEIGER

@<TRIPOS>ATOM
      1  N         41.1300   21.2890   50.2420 N.3    17  ASP17      -0.1225
      2  CA        39.8480   20.6440   50.5520 C.3    17  ASP17       0.1805
      3  C         40.0530   19.3270   51.3300 C.2    17  ASP17       0.2598
      4  O         39.2210   18.9970   52.1870 O.2    17  ASP17      -0.2718
      5  CB        39.0030   20.4160   49.2810 C.3    17  ASP17       0.1424
      6  CG        38.4960   21.6990   48.5970 C.2    17  ASP17       0.3668
      7  OD1       38.6970   22.8190   49.1720 O.co2  17  ASP17      -0.2456
      8  OD2       37.9070   21.5900   47.4820 O.co2  17  ASP17      -0.2456
      9  N         41.1800   18.6400   51.0880 N.am   18  GLY18      -0.1957
     10  CA        41.5510   17.4370   51.8250 C.3    18  GLY18       0.1869
     11  C         41.8150   17.7340   53.2980 C.2    18  GLY18       0.2309
     12  O         41.3960   16.9730   54.1870 O.2    18  GLY18      -0.2863
     13  N         40.4700   20.3110   55.0570 N.3    20  TYR20      -0.1227
     14  CA        39.1990   20.6550   55.6940 C.3    20  TYR20       0.1736
     15  C         38.3830   19.4100   55.9960 C.2    20  TYR20       0.2595
     16  O         37.6870   19.3700   57.0210 O.2    20  TYR20      -0.2718
     17  CB        38.4120   21.6410   54.8440 C.3    20  TYR20       0.0548
     18  CG        38.9150   23.0590   55.0000 C.ar   20  TYR20      -0.0200
     19  CD1       38.4570   23.8720   56.0340 C.ar   20  TYR20      -0.0009
     20  CD2       39.8780   23.5760   54.1390 C.ar   20  TYR20      -0.0009
     21  CE1       38.9460   25.1640   56.2080 C.ar   20  TYR20       0.0417
     22  CE2       40.3710   24.8730   54.2980 C.ar   20  TYR20       0.0417
     23  CZ        39.8960   25.6640   55.3300 C.ar   20  TYR20       0.1957
     24  OH        40.3650   26.9400   55.4810 O.3    20  TYR20      -0.2866
     25  N         38.5000   18.3790   55.1390 N.am   21  ALA21      -0.1980
     26  CA        37.8670   17.0690   55.3390 C.3    21  ALA21       0.1597
     27  C         38.4520   16.3860   56.5920 C.2    21  ALA21       0.2287
     28  O         37.7090   15.7770   57.3530 O.2    21  ALA21      -0.2864
     29  CB        38.0700   16.1870   54.1090 C.3    21  ALA21       0.0319
     30  N         37.2840   18.3050   60.0420 N.3    24  ARG24      -0.1241
     31  CA        35.9220   17.8950   60.3990 C.3    24  ARG24       0.1606
     32  C         35.8920   16.7120   61.3650 C.2    24  ARG24       0.2264
     33  O         35.0430   16.6860   62.2600 O.2    24  ARG24      -0.2867
     34  CB        35.1660   17.5240   59.1230 C.3    24  ARG24       0.0562
     35  CG        33.6840   17.4580   59.3150 C.2    24  ARG24       0.0159
     36  CD        32.8990   16.9050   58.1540 C.2    24  ARG24       0.1886
     37  NE        33.6260   16.2210   57.0800 N.pl3  24  ARG24      -0.0578
     38  CZ        33.5500   16.5650   55.8030 C.cat  24  ARG24       0.5393
     39  NH1       32.7890   17.5810   55.4280 N.pl3  24  ARG24       0.1358
     40  NH2       34.2150   15.8850   54.8860 N.pl3  24  ARG24       0.1358
     41  N         32.4780   27.8880   55.7980 N.3   196  LEU196     -0.1231
     42  CA        33.1180   26.5700   55.6730 C.3   196  LEU196      0.1693
     43  C         34.6450   26.6440   55.5740 C.2   196  LEU196      0.2592
     44  O         35.2900   25.6120   55.5790 O.2   196  LEU196     -0.2718
     45  CB        32.5430   25.8190   54.4560 C.3   196  LEU196      0.0284
     46  CG        30.9990   25.6340   54.4130 C.3   196  LEU196      0.0019
     47  CD1       30.5450   25.0030   53.1150 C.3   196  LEU196      0.0001
     48  CD2       30.4840   24.8330   55.5940 C.3   196  LEU196      0.0001
     49  N         35.2220   27.8380   55.5360 N.am  197  TYR197     -0.1976
     50  CA        36.6620   28.0070   55.4020 C.3   197  TYR197      0.1639
     51  C         37.2180   28.9690   56.4250 C.2   197  TYR197      0.2290
     52  O         36.5170   29.9160   56.8290 O.2   197  TYR197     -0.2864
     53  CB        37.0240   28.5140   53.9900 C.3   197  TYR197      0.0560
     54  CG        36.7040   27.5400   52.8800 C.ar  197  TYR197     -0.0198
     55  CD1       37.3510   26.3090   52.7960 C.ar  197  TYR197     -0.0009
     56  CD2       35.7890   27.8640   51.8840 C.ar  197  TYR197     -0.0009
     57  CE1       37.0580   25.4040   51.7780 C.ar  197  TYR197      0.0417
     58  CE2       35.4850   26.9640   50.8630 C.ar  197  TYR197      0.0417
     59  CZ        36.1260   25.7370   50.8120 C.ar  197  TYR197      0.1957
     60  OH        35.8460   24.8470   49.8070 O.3   197  TYR197     -0.2866
     61  N         32.6250   29.6910   61.8310 N.3   256  PHE256     -0.1227
     62  CA        33.3230   28.6630   61.0560 C.3   256  PHE256      0.1736
     63  C         32.7920   27.2850   61.4030 C.2   256  PHE256      0.2595
     64  O         32.6520   26.9400   62.5760 O.2   256  PHE256     -0.2718
     65  CB        34.8780   28.7430   61.3440 C.3   256  PHE256      0.0547
     66  CG        35.8410   27.7720   60.6670 C.ar  256  PHE256     -0.0202
     67  CD1       35.5870   27.2870   59.3910 C.ar  256  PHE256     -0.0042
     68  CD2       37.0690   27.4710   61.2500 C.ar  256  PHE256     -0.0042
     69  CE1       36.4700   26.4030   58.7760 C.ar  256  PHE256     -0.0003
     70  CE2       37.9780   26.6120   60.6230 C.ar  256  PHE256     -0.0003
     71  CZ        37.6800   26.0870   59.3880 C.ar  256  PHE256     -0.0000
     72  N         32.5600   26.4710   60.3850 N.am  257  ARG257     -0.1966
     73  CA        32.0540   25.1250   60.5800 C.3   257  ARG257      0.1729
     74  C         32.4920   24.2430   59.4350 C.2   257  ARG257      0.2617
     75  O         32.7990   24.7720   58.3750 O.2   257  ARG257     -0.2715
     76  CB        30.4930   25.1340   60.7030 C.3   257  ARG257      0.0348
     77  CG        29.7330   25.5830   59.4540 C.3   257  ARG257      0.0492
     78  CD        28.2340   25.6940   59.7160 C.3   257  ARG257      0.2205
     79  NE        27.5080   26.0420   58.4900 N.pl3 257  ARG257     -0.0865
     80  CZ        27.1000   25.1720   57.5640 C.cat 257  ARG257      0.5346
     81  NH1       27.3320   23.8660   57.7120 N.pl3 257  ARG257      0.1354
     82  NH2       26.4570   25.5970   56.4860 N.pl3 257  ARG257      0.1354
     83  N         32.4070   22.9200   59.6210 N.am  258  GLY258     -0.1940
     84  CA        32.7300   21.9570   58.5800 C.3   258  GLY258      0.2014
     85  C         31.5240   21.6230   57.7210 C.2   258  GLY258      0.2638
     86  O         30.4000   21.5400   58.2380 O.2   258  GLY258     -0.2714
     87  N         31.7450   21.3870   56.4050 N.am  259  PHE259     -0.1973
     88  CA        30.6550   21.0210   55.4980 C.3   259  PHE259      0.1639
     89  C         29.9330   19.7860   56.0300 C.2   259  PHE259      0.2290
     90  O         30.5620   18.8540   56.5320 O.2   259  PHE259     -0.2864
     91  CB        31.1450   20.7790   54.0430 C.3   259  PHE259      0.0560
     92  CG        30.0360   20.3190   53.1130 C.ar  259  PHE259     -0.0200
     93  CD1       29.2380   21.2430   52.4440 C.ar  259  PHE259     -0.0042
     94  CD2       29.7290   18.9610   52.9780 C.ar  259  PHE259     -0.0042
     95  CE1       28.1590   20.8170   51.6400 C.ar  259  PHE259     -0.0003
     96  CE2       28.6550   18.5400   52.1840 C.ar  259  PHE259     -0.0003
     97  CZ        27.8790   19.4760   51.5180 C.ar  259  PHE259     -0.0000
     98  N         27.3730   13.3480   53.5950 N.3   264  LEU264     -0.1245
     99  CA        28.7910   13.6610   53.8200 C.3   264  LEU264      0.1561
    100  C         28.9610   14.7450   54.8680 C.2   264  LEU264      0.2260
    101  O         28.3180   15.7820   54.7920 O.2   264  LEU264     -0.2867
    102  CB        29.4420   14.1020   52.4850 C.3   264  LEU264      0.0270
    103  CG        30.9440   14.4570   52.5110 C.3   264  LEU264      0.0019
    104  CD1       31.8340   13.2090   52.7150 C.3   264  LEU264      0.0001
    105  CD2       31.3470   15.2060   51.2570 C.3   264  LEU264      0.0001
    106  N         33.1610   25.1160   64.6640 N.3   345  TYR345     -0.1241
    107  CA        34.5140   25.4100   65.1430 C.3   345  TYR345      0.1605
    108  C         34.5790   26.6910   65.9850 C.2   345  TYR345      0.2264
    109  O         35.4080   26.7680   66.8900 O.2   345  TYR345     -0.2867
    110  CB        35.4950   25.4730   63.9590 C.3   345  TYR345      0.0534
    111  CG        35.4780   24.2600   63.0430 C.ar  345  TYR345     -0.0201
    112  CD1       35.5150   22.9640   63.5600 C.ar  345  TYR345     -0.0009
    113  CD2       35.4790   24.4070   61.6560 C.ar  345  TYR345     -0.0009
    114  CE1       35.5290   21.8490   62.7200 C.ar  345  TYR345      0.0417
    115  CE2       35.5470   23.3040   60.8090 C.ar  345  TYR345      0.0417
    116  CZ        35.5670   22.0280   61.3450 C.ar  345  TYR345      0.1957
    117  OH        35.5580   20.9390   60.5130 O.3   345  TYR345     -0.2866
@<TRIPOS>BOND
     1     8     6   ar
     2     6     7   ar
     3     6     5    1
     4     5     2    1
     5    60    59    1
     6     1     2    1
     7     2     3    1
     8    59    58   ar
     9    59    57   ar
    10    58    56   ar
    11     9     3   am
    12     9    10    1
    13   105   103    1
    14     3     4    2
    15    97    95   ar
    16    97    96   ar
    17    95    93   ar
    18    57    55   ar
    19    10    11    1
    20    56    54   ar
    21    96    94   ar
    22    93    92   ar
    23   102   103    1
    24   102    99    1
    25   103   104    1
    26    55    54   ar
    27    54    53    1
    28    94    92   ar
    29    92    91    1
    30    47    46    1
    31    11    12    2
    32    98    99    1
    33    99   100    1
    34    53    50    1
    35    91    88    1
    36    29    26    1
    37    20    22   ar
    38    20    18   ar
    39    22    23   ar
    40    46    45    1
    41    46    48    1
    42    45    42    1
    43   101   100    2
    44    17    18    1
    45    17    14    1
    46    40    38    1
    47    18    19   ar
    48    13    14    1
    49    25    26    1
    50    25    15   am
    51    23    24    1
    52    23    21   ar
    53    26    27    1
    54    50    49    1
    55    50    51    1
    56    39    38    1
    57    88    89    1
    58    88    87    1
    59    49    43   am
    60    43    44    2
    61    43    42    1
    62    42    41    1
    63    14    15    1
    64    38    37    2
    65    15    16    2
    66    89    90    2
    67    19    21   ar
    68    87    85   am
    69    51    52    2
    70    82    80    1
    71    27    28    2
    72    37    36    1
    73    80    81    1
    74    80    79    2
    75    85    86    2
    76    85    84    1
    77    36    35    2
    78    75    74    2
    79    79    78    1
    80    84    83    1
    81    69    71   ar
    82    69    67   ar
    83    34    35    1
    84    34    31    1
    85    71    70   ar
    86    67    66   ar
    87    74    83   am
    88    74    73    1
    89    77    78    1
    90    77    76    1
    91    30    31    1
    92    72    73    1
    93    72    63   am
    94    31    32    1
    95   117   116    1
    96    73    76    1
    97    70    68   ar
    98    66    68   ar
    99    66    65    1
   100   115   116   ar
   101   115   113   ar
   102    62    65    1
   103    62    63    1
   104    62    61    1
   105   116   114   ar
   106    32    33    2
   107    63    64    2
   108   113   111   ar
   109   114   112   ar
   110   111   112   ar
   111   111   110    1
   112   110   107    1
   113   106   107    1
   114   107   108    1
   115   108   109    2
