@<TRIPOS>MOLECULE
tmp/5cx8A02.pdb
 91 86 0 0 0
SMALL
GASTEIGER

@<TRIPOS>ATOM
      1  N         33.7240   19.3830   87.0810 N.3    39  ASP39      -0.1239
      2  CA        32.9430   19.1990   88.3090 C.3    39  ASP39       0.1674
      3  C         31.4050   19.1990   88.0590 C.2    39  ASP39       0.2266
      4  O         30.6330   19.4020   88.9960 O.2    39  ASP39      -0.2867
      5  CB        33.3080   20.3210   89.2750 C.3    39  ASP39       0.1410
      6  CG        33.0630   21.7410   88.7500 C.2    39  ASP39       0.3668
      7  OD1       32.6910   21.8920   87.5530 O.co2  39  ASP39      -0.2456
      8  OD2       33.2120   22.6900   89.5350 O.co2  39  ASP39      -0.2456
      9  N         23.2660   21.2700   90.8500 N.3   293  TRP293     -0.1241
     10  CA        23.7920   22.6360   90.8220 C.3   293  TRP293      0.1605
     11  C         23.9050   23.1230   89.3840 C.2   293  TRP293      0.2264
     12  O         23.7070   24.3200   89.1240 O.2   293  TRP293     -0.2867
     13  CB        25.1230   22.7750   91.5970 C.3   293  TRP293      0.0550
     14  CG        26.3900   22.3510   90.8860 C.ar  293  TRP293      0.0003
     15  CD1       27.0470   21.1660   91.0310 C.ar  293  TRP293      0.0946
     16  CD2       27.2080   23.1590   90.0130 C.ar  293  TRP293      0.0152
     17  NE1       28.1890   21.1560   90.2570 N.ar  293  TRP293     -0.2442
     18  CE2       28.3080   22.3610   89.6120 C.ar  293  TRP293      0.0810
     19  CE3       27.0970   24.4680   89.4930 C.ar  293  TRP293      0.0012
     20  CZ2       29.2980   22.8300   88.7180 C.ar  293  TRP293      0.0191
     21  CZ3       28.0670   24.9270   88.6050 C.ar  293  TRP293      0.0001
     22  CH2       29.1470   24.1100   88.2210 C.ar  293  TRP293      0.0015
     23  N         21.7980   26.2500   87.4930 N.3   297  LEU297     -0.1245
     24  CA        22.3700   27.4590   86.8870 C.3   297  LEU297      0.1561
     25  C         21.3240   28.2030   86.0510 C.2   297  LEU297      0.2260
     26  O         21.3360   29.4410   85.9870 O.2   297  LEU297     -0.2867
     27  CB        23.5520   27.1090   85.9680 C.3   297  LEU297      0.0270
     28  CG        24.8750   26.6410   86.5600 C.3   297  LEU297      0.0019
     29  CD1       25.7100   25.9090   85.5010 C.3   297  LEU297      0.0001
     30  CD2       25.6790   27.8020   87.0750 C.3   297  LEU297      0.0001
     31  N         30.9550   33.5390   85.2450 N.3   391  GLN391     -0.1245
     32  CA        31.3060   32.1410   85.4270 C.3   391  GLN391      0.1566
     33  C         30.0950   31.2730   85.2290 C.2   391  GLN391      0.2260
     34  O         30.1850   30.3100   84.4750 O.2   391  GLN391     -0.2867
     35  CB        31.9660   31.9330   86.7890 C.3   391  GLN391      0.0367
     36  CG        33.2430   32.7420   86.8500 C.3   391  GLN391      0.0905
     37  CD        34.0930   32.5740   88.0760 C.2   391  GLN391      0.2608
     38  OE1       35.2800   32.8280   88.0410 O.2   391  GLN391     -0.2717
     39  NE2       33.5360   32.2130   89.1880 N.am  391  GLN391     -0.0878
     40  N         34.7390   23.8360   80.7740 N.3   404  ARG404     -0.1245
     41  CA        34.6590   23.8430   82.2330 C.3   404  ARG404      0.1563
     42  C         35.9430   23.4070   82.9160 C.2   404  ARG404      0.2260
     43  O         36.3430   24.0960   83.8510 O.2   404  ARG404     -0.2867
     44  CB        33.4520   23.0160   82.7310 C.3   404  ARG404      0.0307
     45  CG        33.2190   23.0240   84.2490 C.3   404  ARG404      0.0489
     46  CD        32.7100   24.3370   84.8160 C.3   404  ARG404      0.2205
     47  NE        32.7740   24.3010   86.2740 N.pl3 404  ARG404     -0.0865
     48  CZ        32.4940   25.3170   87.0760 C.cat 404  ARG404      0.5346
     49  NH1       32.5960   25.1780   88.3830 N.pl3 404  ARG404      0.1354
     50  NH2       32.1270   26.4910   86.5720 N.pl3 404  ARG404      0.1354
     51  N         39.1080   27.0270   90.9940 N.3   412  ILE412     -0.1245
     52  CA        38.0090   26.2410   91.5430 C.3   412  ILE412      0.1561
     53  C         38.4780   24.7520   91.6680 C.2   412  ILE412      0.2260
     54  O         38.7610   24.0970   90.6450 O.2   412  ILE412     -0.2867
     55  CB        36.6970   26.4020   90.7270 C.3   412  ILE412      0.0252
     56  CG1       36.1560   27.8720   90.8020 C.3   412  ILE412      0.0019
     57  CG2       35.6270   25.3850   91.1600 C.3   412  ILE412      0.0019
     58  CD1       34.8860   28.1700   89.8220 C.3   412  ILE412      0.0001
     59  N         34.8210   19.8920   93.7130 N.3   415  ASN415     -0.1240
     60  CA        33.9770   19.6910   94.9040 C.3   415  ASN415      0.1653
     61  C         32.8830   18.6330   94.7080 C.2   415  ASN415      0.2266
     62  O         31.9800   18.5330   95.5470 O.2   415  ASN415     -0.2867
     63  CB        33.3590   21.0240   95.3590 C.3   415  ASN415      0.1155
     64  CG        34.4230   22.0330   95.7620 C.2   415  ASN415      0.2627
     65  OD1       35.3660   21.7000   96.4870 O.2   415  ASN415     -0.2716
     66  ND2       34.3140   23.2780   95.2760 N.am  415  ASN415     -0.0877
     67  N         30.7590   16.7520   97.3920 N.3   418  ALA418     -0.1231
     68  CA        29.7580   17.5180   98.1540 C.3   418  ALA418      0.1694
     69  C         28.4530   17.7620   97.3790 C.2   418  ALA418      0.2592
     70  O         27.4700   18.1690   97.9910 O.2   418  ALA418     -0.2718
     71  CB        30.3380   18.8530   98.5600 C.3   418  ALA418      0.0304
     72  N         28.4470   17.5570   96.0500 N.am  419  PHE419     -0.1962
     73  CA        27.3210   17.9280   95.2080 C.3   419  PHE419      0.1771
     74  C         26.1370   16.9860   95.3070 C.2   419  PHE419      0.2619
     75  O         26.3050   15.7670   95.3710 O.2   419  PHE419     -0.2715
     76  CB        27.7530   18.0750   93.7400 C.3   419  PHE419      0.0574
     77  CG        28.8060   19.1360   93.4930 C.ar  419  PHE419     -0.0200
     78  CD1       28.8600   20.2890   94.2730 C.ar  419  PHE419     -0.0042
     79  CD2       29.7180   19.0010   92.4640 C.ar  419  PHE419     -0.0042
     80  CE1       29.8310   21.2570   94.0520 C.ar  419  PHE419     -0.0003
     81  CE2       30.6680   19.9880   92.2310 C.ar  419  PHE419     -0.0003
     82  CZ        30.6920   21.1240   93.0060 C.ar  419  PHE419     -0.0000
     83  N         24.9340   17.5890   95.3260 N.am  420  GLU420     -0.1977
     84  CA        23.6580   16.8970   95.3690 C.3   420  GLU420      0.1602
     85  C         23.3220   16.4560   93.9460 C.2   420  GLU420      0.2287
     86  O         23.4250   17.2510   93.0020 O.2   420  GLU420     -0.2864
     87  CB        22.5780   17.8190   95.9820 C.3   420  GLU420      0.0415
     88  CG        21.1400   17.5970   95.5160 C.3   420  GLU420      0.1163
     89  CD        20.1570   18.7600   95.6310 C.2   420  GLU420      0.3649
     90  OE1       20.5980   19.9310   95.5410 O.co2 420  GLU420     -0.2457
     91  OE2       18.9340   18.4970   95.7560 O.co2 420  GLU420     -0.2457
@<TRIPOS>BOND
     1    40    41    1
     2    41    44    1
     3    41    42    1
     4    44    45    1
     5    42    43    2
     6    45    46    1
     7    34    33    2
     8    46    47    1
     9    33    32    1
    10    31    32    1
    11    32    35    1
    12    29    28    1
    13    27    28    1
    14    27    24    1
    15    26    25    2
    16    25    24    1
    17    47    48    2
    18    28    30    1
    19    50    48    1
    20    35    36    1
    21    36    37    1
    22    24    23    1
    23    48    49    1
    24     1     2    1
    25     7     6   ar
    26    38    37    2
    27     3     2    1
    28     3     4    2
    29    37    39   am
    30    22    21   ar
    31    22    20   ar
    32     2     5    1
    33    21    19   ar
    34    20    18   ar
    35     6     5    1
    36     6     8   ar
    37    12    11    2
    38    11    10    1
    39    19    16   ar
    40    18    16   ar
    41    18    17   ar
    42    58    56    1
    43    16    14   ar
    44    17    15   ar
    45    54    53    2
    46    55    56    1
    47    55    57    1
    48    55    52    1
    49    10     9    1
    50    10    13    1
    51    14    15   ar
    52    14    13    1
    53    51    52    1
    54    52    53    1
    55    81    79   ar
    56    81    82   ar
    57    79    77   ar
    58    86    85    2
    59    82    80   ar
    60    77    76    1
    61    77    78   ar
    62    59    60    1
    63    76    73    1
    64    85    84    1
    65    80    78   ar
    66    61    60    1
    67    61    62    2
    68    60    63    1
    69    73    74    1
    70    73    72    1
    71    66    64   am
    72    74    83   am
    73    74    75    2
    74    83    84    1
    75    63    64    1
    76    84    87    1
    77    88    89    1
    78    88    87    1
    79    90    89   ar
    80    89    91   ar
    81    64    65    2
    82    72    69   am
    83    69    70    2
    84    69    68    1
    85    67    68    1
    86    68    71    1
