@<TRIPOS>MOLECULE
tmp/5cx9A01.pdb
 103 96 0 0 0
SMALL
GASTEIGER

@<TRIPOS>ATOM
      1  N         15.2400  121.7660  377.2830 N.3    35  GLN35      -0.1231
      2  CA        14.3670  121.5320  376.1760 C.3    35  GLN35       0.1698
      3  C         13.1540  120.6690  376.4730 C.2    35  GLN35       0.2592
      4  O         12.2740  120.5900  375.7010 O.2    35  GLN35      -0.2718
      5  CB        15.1760  120.8280  375.1210 C.3    35  GLN35       0.0381
      6  CG        15.6910  119.4620  375.5950 C.3    35  GLN35       0.0905
      7  CD        15.4580  118.3180  374.6080 C.2    35  GLN35       0.2608
      8  OE1       14.3370  117.9830  374.3030 O.2    35  GLN35      -0.2717
      9  NE2       16.5400  117.7090  374.1260 N.am   35  GLN35      -0.0878
     10  N         13.1340  120.0320  377.6250 N.am   36  ASP36      -0.1974
     11  CA        12.0760  119.1160  377.9860 C.3    36  ASP36       0.1709
     12  C         10.7420  119.8390  378.2420 C.2    36  ASP36       0.2293
     13  O          9.7180  119.2130  378.2790 O.2    36  ASP36      -0.2864
     14  CB        12.4520  118.2410  379.1820 C.3    36  ASP36       0.1436
     15  CG        13.5730  117.2560  378.8820 C.2    36  ASP36       0.3671
     16  OD1       13.9590  117.0390  377.7200 O.co2  36  ASP36      -0.2456
     17  OD2       14.1010  116.6860  379.8380 O.co2  36  ASP36      -0.2456
     18  N          9.4000  121.6940  376.2000 N.3    38  TYR38      -0.1227
     19  CA         8.8120  121.8810  374.8770 C.3    38  TYR38       0.1736
     20  C          8.6460  120.5820  374.0940 C.2    38  TYR38       0.2595
     21  O          9.5060  119.7470  374.0940 O.2    38  TYR38      -0.2718
     22  CB         9.6580  122.8730  374.0560 C.3    38  TYR38       0.0548
     23  CG         9.9440  124.1410  374.7930 C.ar   38  TYR38      -0.0200
     24  CD1        9.0500  125.1380  374.8210 C.ar   38  TYR38      -0.0009
     25  CD2       11.1040  124.3000  375.5180 C.ar   38  TYR38      -0.0009
     26  CE1        9.2790  126.2710  375.5440 C.ar   38  TYR38       0.0417
     27  CE2       11.3480  125.4290  376.2360 C.ar   38  TYR38       0.0417
     28  CZ        10.4290  126.4100  376.2480 C.ar   38  TYR38       0.1957
     29  OH        10.6550  127.5370  376.9310 O.3    38  TYR38      -0.2866
     30  N          7.5300  120.4580  373.4080 N.am   39  GLN39      -0.1965
     31  CA         7.2760  119.3190  372.5660 C.3    39  GLN39       0.1733
     32  C          7.0310  119.8220  371.1520 C.2    39  GLN39       0.2616
     33  O          6.1940  120.6290  370.9440 O.2    39  GLN39      -0.2715
     34  CB         6.0970  118.5110  373.0910 C.3    39  GLN39       0.0408
     35  CG         6.3710  117.9870  374.4940 C.3    39  GLN39       0.0908
     36  CD         5.4760  116.8160  374.9220 C.2    39  GLN39       0.2608
     37  OE1        4.2810  116.7730  374.6340 O.2    39  GLN39      -0.2717
     38  NE2        6.0640  115.8820  375.6460 N.am   39  GLN39      -0.0878
     39  N          7.7950  119.3210  370.2010 N.am   40  LEU40      -0.1977
     40  CA         7.6750  119.7440  368.8040 C.3    40  LEU40       0.1596
     41  C          6.3780  119.2180  368.1590 C.2    40  LEU40       0.2287
     42  O          6.0410  118.0630  368.3410 O.2    40  LEU40      -0.2864
     43  CB         8.9140  119.3500  367.9810 C.3    40  LEU40       0.0297
     44  CG        10.2850  119.8180  368.5060 C.3    40  LEU40       0.0022
     45  CD1       11.4090  119.2840  367.6160 C.3    40  LEU40       0.0001
     46  CD2       10.3650  121.3500  368.5970 C.3    40  LEU40       0.0001
     47  N         10.1180  127.1730  367.7270 N.3    66  VAL66      -0.1245
     48  CA        11.4410  126.6670  368.0920 C.3    66  VAL66       0.1561
     49  C         12.3020  126.6250  366.8190 C.2    66  VAL66       0.2260
     50  O         11.9310  125.9800  365.8370 O.2    66  VAL66      -0.2867
     51  CB        11.4160  125.2690  368.7960 C.3    66  VAL66       0.0252
     52  CG1       12.8320  124.7630  369.0540 C.3    66  VAL66       0.0019
     53  CG2       10.6230  125.3060  370.1100 C.3    66  VAL66       0.0019
     54  N         15.7650  125.3620  365.4670 N.3    68  ILE68      -0.1245
     55  CA        16.8900  124.4750  365.7550 C.3    68  ILE68       0.1561
     56  C         18.0420  124.8890  364.8060 C.2    68  ILE68       0.2260
     57  O         17.8610  124.9240  363.5940 O.2    68  ILE68      -0.2867
     58  CB        16.4550  122.9950  365.5890 C.3    68  ILE68       0.0252
     59  CG1       15.3490  122.6420  366.6380 C.3    68  ILE68       0.0019
     60  CG2       17.6720  122.0740  365.7350 C.3    68  ILE68       0.0019
     61  CD1       14.7100  121.2010  366.5130 C.3    68  ILE68       0.0001
     62  N         17.5450  126.8370  374.5310 N.3   100  VAL100     -0.1231
     63  CA        17.7130  125.5120  375.0550 C.3   100  VAL100      0.1692
     64  C         18.5740  124.6460  374.1760 C.2   100  VAL100      0.2592
     65  O         18.8430  124.9670  373.0540 O.2   100  VAL100     -0.2718
     66  CB        16.3390  124.8300  375.2430 C.3   100  VAL100      0.0266
     67  CG1       15.4380  125.6980  376.0610 C.3   100  VAL100      0.0020
     68  CG2       15.6840  124.5130  373.9220 C.3   100  VAL100      0.0020
     69  N         18.9970  123.5270  374.7270 N.am  101  LYS101     -0.1966
     70  CA        19.7990  122.5520  374.0330 C.3   101  LYS101      0.1728
     71  C         19.2040  121.1780  374.2880 C.2   101  LYS101      0.2616
     72  O         18.6100  120.9420  375.3190 O.2   101  LYS101     -0.2715
     73  CB        21.2300  122.5160  374.5440 C.3   101  LYS101      0.0311
     74  CG        22.1230  123.5840  373.9870 C.3   101  LYS101      0.0038
     75  CD        23.4970  123.0520  373.6220 C.3   101  LYS101      0.0206
     76  CE        24.3450  124.0950  372.9150 C.3   101  LYS101      0.1093
     77  NZ        25.7670  123.9910  373.2790 N.3   101  LYS101     -0.1314
     78  N         19.3930  120.3010  373.3280 N.am  102  ASP102     -0.1971
     79  CA        18.9520  118.9280  373.4210 C.3   102  ASP102      0.1709
     80  C         19.8550  118.2720  374.4810 C.2   102  ASP102      0.2293
     81  O         21.0430  118.2420  374.2590 O.2   102  ASP102     -0.2864
     82  CB        19.1810  118.2780  372.0620 C.3   102  ASP102      0.1436
     83  CG        18.6640  116.8530  371.9850 C.2   102  ASP102      0.3671
     84  OD1       18.3670  116.2460  373.0250 O.co2 102  ASP102     -0.2456
     85  OD2       18.5520  116.3600  370.8490 O.co2 102  ASP102     -0.2456
     86  N         21.5420  115.4860  372.0790 N.3   105  SER105     -0.1217
     87  CA        22.2550  115.9550  370.8840 C.3   105  SER105      0.1889
     88  C         23.0460  117.2660  371.1100 C.2   105  SER105      0.2288
     89  O         23.9990  117.5240  370.3700 O.2   105  SER105     -0.2866
     90  CB        21.3210  116.0620  369.6800 C.3   105  SER105      0.2089
     91  OG        20.5460  117.2480  369.6770 O.3   105  SER105     -0.2183
     92  N         22.4510  120.1670  370.3570 N.3   107  THR107     -0.1218
     93  CA        22.2320  121.0850  369.2360 C.3   107  THR107      0.1862
     94  C         21.5500  122.3250  369.8440 C.2   107  THR107      0.2287
     95  O         20.6460  122.1480  370.6600 O.2   107  THR107     -0.2866
     96  CB        21.3110  120.4120  368.1720 C.3   107  THR107      0.1770
     97  OG1       21.9280  119.2320  367.6700 O.3   107  THR107     -0.2211
     98  CG2       21.0090  121.3280  366.9920 C.3   107  THR107      0.0375
     99  N         19.0230  125.5720  370.2460 N.3   109  ALA109     -0.1245
    100  CA        17.7120  125.9360  369.7450 C.3   109  ALA109      0.1562
    101  C         17.2280  127.2010  370.4320 C.2   109  ALA109      0.2260
    102  O         17.4780  127.4110  371.6270 O.2   109  ALA109     -0.2867
    103  CB        16.7080  124.8030  369.9270 C.3   109  ALA109      0.0290
@<TRIPOS>BOND
     1    57    56    2
     2    56    55    1
     3    54    55    1
     4    58    60    1
     5    58    55    1
     6    58    59    1
     7    50    49    2
     8    61    59    1
     9    49    48    1
    10    98    96    1
    11    45    44    1
    12    97    96    1
    13    47    48    1
    14    43    44    1
    15    43    40    1
    16    48    51    1
    17    41    42    2
    18    41    40    1
    19    96    93    1
    20    44    46    1
    21    51    52    1
    22    51    53    1
    23    40    39    1
    24    93    94    1
    25    93    92    1
    26    91    90    1
    27    90    87    1
    28   100   103    1
    29   100    99    1
    30   100   101    1
    31    94    95    2
    32    39    32   am
    33    89    88    2
    34   101   102    2
    35    85    83   ar
    36    87    88    1
    37    87    86    1
    38    33    32    2
    39    32    31    1
    40    83    82    1
    41    83    84   ar
    42    82    79    1
    43    31    34    1
    44    31    30    1
    45    76    77    1
    46    76    75    1
    47    65    64    2
    48    34    35    1
    49    78    79    1
    50    78    71   am
    51    30    20   am
    52    79    80    1
    53    75    74    1
    54    68    66    1
    55    74    73    1
    56    70    71    1
    57    70    73    1
    58    70    69    1
    59    22    23    1
    60    22    19    1
    61    21    20    2
    62    20    19    1
    63     9     7   am
    64    64    69   am
    65    64    63    1
    66    81    80    2
    67    71    72    2
    68     8     7    2
    69    35    36    1
    70    62    63    1
    71     7     6    1
    72    37    36    2
    73    23    24   ar
    74    23    25   ar
    75    24    26   ar
    76    19    18    1
    77    36    38   am
    78    63    66    1
    79     5     6    1
    80     5     2    1
    81    66    67    1
    82    25    27   ar
    83    26    28   ar
    84     4     3    2
    85     2     3    1
    86     2     1    1
    87    27    28   ar
    88    28    29    1
    89     3    10   am
    90    10    11    1
    91    16    15   ar
    92    11    12    1
    93    11    14    1
    94    12    13    2
    95    15    14    1
    96    15    17   ar
