@<TRIPOS>MOLECULE
tmp/5cxgC01.pdb
 162 152 0 0 0
SMALL
GASTEIGER

@<TRIPOS>ATOM
      1  N        -50.5850  -17.0720  -58.5010 N.3    57  LEU57      -0.1245
      2  CA       -50.8930  -16.6130  -57.1480 C.3    57  LEU57       0.1561
      3  C        -50.5730  -17.6760  -56.1000 C.2    57  LEU57       0.2260
      4  O        -50.0230  -17.3660  -55.0440 O.2    57  LEU57      -0.2867
      5  CB       -52.3630  -16.2070  -57.0430 C.3    57  LEU57       0.0270
      6  CG       -52.8960  -15.8510  -55.6540 C.3    57  LEU57       0.0019
      7  CD1      -52.0970  -14.7100  -55.0290 C.3    57  LEU57       0.0001
      8  CD2      -54.3680  -15.4950  -55.7350 C.3    57  LEU57       0.0001
      9  N        -46.8920  -17.9330  -55.6960 N.3    60  GLU60      -0.1231
     10  CA       -46.3590  -16.7290  -55.0840 C.3    60  GLU60       0.1699
     11  C        -46.6610  -16.7020  -53.5890 C.2    60  GLU60       0.2592
     12  O        -45.8650  -16.1900  -52.8110 O.2    60  GLU60      -0.2718
     13  CB       -46.9170  -15.4820  -55.7720 C.3    60  GLU60       0.0402
     14  CG       -46.0050  -14.2650  -55.6690 C.3    60  GLU60       0.1161
     15  CD       -44.6050  -14.5250  -56.2090 C.2    60  GLU60       0.3649
     16  OE1      -43.6370  -13.9940  -55.6240 O.co2  60  GLU60      -0.2457
     17  OE2      -44.4660  -15.2540  -57.2160 O.co2  60  GLU60      -0.2457
     18  N        -47.8020  -17.2590  -53.1880 N.am   61  PHE61      -0.1976
     19  CA       -48.1090  -17.3990  -51.7650 C.3    61  PHE61       0.1639
     20  C        -47.1460  -18.3880  -51.1150 C.2    61  PHE61       0.2290
     21  O        -46.6120  -18.1290  -50.0340 O.2    61  PHE61      -0.2864
     22  CB       -49.5560  -17.8500  -51.5540 C.3    61  PHE61       0.0560
     23  CG       -50.5380  -16.7160  -51.4680 C.ar   61  PHE61      -0.0200
     24  CD1      -50.1120  -15.4380  -51.1480 C.ar   61  PHE61      -0.0042
     25  CD2      -51.8860  -16.9290  -51.7050 C.ar   61  PHE61      -0.0042
     26  CE1      -51.0130  -14.3900  -51.0680 C.ar   61  PHE61      -0.0003
     27  CE2      -52.7930  -15.8860  -51.6250 C.ar   61  PHE61      -0.0003
     28  CZ       -52.3560  -14.6160  -51.3060 C.ar   61  PHE61      -0.0000
     29  N        -43.7610  -16.4350  -50.8450 N.3    64  ILE64      -0.1245
     30  CA       -43.8450  -15.3870  -49.8270 C.3    64  ILE64       0.1561
     31  C        -43.8150  -16.0000  -48.4270 C.2    64  ILE64       0.2260
     32  O        -43.1360  -15.4950  -47.5250 O.2    64  ILE64      -0.2867
     33  CB       -45.1120  -14.5240  -50.0200 C.3    64  ILE64       0.0252
     34  CG1      -44.9640  -13.6130  -51.2380 C.3    64  ILE64       0.0019
     35  CG2      -45.4000  -13.6970  -48.7810 C.3    64  ILE64       0.0019
     36  CD1      -46.1470  -12.6920  -51.4530 C.3    64  ILE64       0.0001
     37  N        -48.2690   -9.5110  -45.3420 N.3    89  LEU89      -0.1245
     38  CA       -49.1530   -9.7150  -46.4880 C.3    89  LEU89       0.1561
     39  C        -49.6580   -8.3870  -47.0410 C.2    89  LEU89       0.2260
     40  O        -49.7080   -8.1940  -48.2530 O.2    89  LEU89      -0.2867
     41  CB       -50.3400  -10.6060  -46.1180 C.3    89  LEU89       0.0270
     42  CG       -50.2920  -12.0650  -46.5780 C.3    89  LEU89       0.0019
     43  CD1      -51.6990  -12.6340  -46.6460 C.3    89  LEU89       0.0001
     44  CD2      -49.5890  -12.2090  -47.9230 C.3    89  LEU89       0.0001
     45  N        -46.9110   -6.6560  -48.8960 N.3    92  ALA92      -0.1231
     46  CA       -46.8080   -7.3610  -50.1730 C.3    92  ALA92       0.1694
     47  C        -47.8810   -6.8960  -51.1570 C.2    92  ALA92       0.2591
     48  O        -47.6060   -6.6990  -52.3400 O.2    92  ALA92      -0.2718
     49  CB       -46.9070   -8.8640  -49.9570 C.3    92  ALA92       0.0304
     50  N        -49.1000   -6.7210  -50.6550 N.am   93  MET93      -0.1979
     51  CA       -50.2260   -6.2610  -51.4670 C.3    93  MET93       0.1605
     52  C        -49.9920   -4.8590  -52.0200 C.2    93  MET93       0.2287
     53  O        -50.2650   -4.5880  -53.1880 O.2    93  MET93      -0.2864
     54  CB       -51.5180   -6.2810  -50.6430 C.3    93  MET93       0.0413
     55  CG       -52.6060   -5.3530  -51.1730 C.3    93  MET93       0.0598
     56  SD       -53.9190   -5.0060  -49.9810 S.3    93  MET93      -0.1393
     57  CE       -52.9880   -4.2840  -48.6320 C.3    93  MET93       0.0692
     58  N        -51.2960   -7.2240  -57.8860 N.3   100  THR100     -0.1218
     59  CA       -52.3000   -7.5550  -56.8870 C.3   100  THR100      0.1862
     60  C        -53.7050   -7.4880  -57.4720 C.2   100  THR100      0.2287
     61  O        -54.5210   -8.3870  -57.2570 O.2   100  THR100     -0.2866
     62  CB       -52.2130   -6.6060  -55.6890 C.3   100  THR100      0.1770
     63  OG1      -50.9120   -6.7040  -55.1010 O.3   100  THR100     -0.2211
     64  CG2      -53.2660   -6.9580  -54.6650 C.3   100  THR100      0.0375
     65  N        -54.2130  -10.5510  -59.9190 N.3   103  MET103     -0.1230
     66  CA       -54.4320  -11.8450  -59.2850 C.3   103  MET103      0.1702
     67  C        -55.7100  -11.8690  -58.4400 C.2   103  MET103      0.2593
     68  O        -56.3380  -12.9170  -58.2890 O.2   103  MET103     -0.2718
     69  CB       -53.2180  -12.2330  -58.4440 C.3   103  MET103      0.0401
     70  CG       -51.9740  -12.4670  -59.2890 C.3   103  MET103      0.0596
     71  SD       -50.6020  -13.1870  -58.3750 S.3   103  MET103     -0.1393
     72  CE       -50.3910  -11.9810  -57.0670 C.3   103  MET103      0.0692
     73  N        -56.1070  -10.7140  -57.9130 N.am  104  THR104     -0.1953
     74  CA       -57.3230  -10.6300  -57.1070 C.3   104  THR104      0.1897
     75  C        -58.5630  -10.7270  -57.9900 C.2   104  THR104      0.2313
     76  O        -59.4980  -11.4730  -57.6870 O.2   104  THR104     -0.2863
     77  CB       -57.3870   -9.3230  -56.2950 C.3   104  THR104      0.1794
     78  OG1      -56.2460   -9.2360  -55.4350 O.3   104  THR104     -0.2208
     79  CG2      -58.6480   -9.2860  -55.4460 C.3   104  THR104      0.0378
     80  N        -58.9080  -14.1170  -58.9520 N.3   107  TYR107     -0.1241
     81  CA       -59.3780  -14.9360  -57.8400 C.3   107  TYR107      0.1605
     82  C        -60.8940  -14.8650  -57.6940 C.2   107  TYR107      0.2264
     83  O        -61.5560  -15.8960  -57.5830 O.2   107  TYR107     -0.2867
     84  CB       -58.7080  -14.5060  -56.5290 C.3   107  TYR107      0.0534
     85  CG       -59.0010  -15.4220  -55.3580 C.ar  107  TYR107     -0.0201
     86  CD1      -58.1890  -16.5170  -55.0890 C.ar  107  TYR107     -0.0009
     87  CD2      -60.0800  -15.1860  -54.5160 C.ar  107  TYR107     -0.0009
     88  CE1      -58.4450  -17.3520  -54.0170 C.ar  107  TYR107      0.0417
     89  CE2      -60.3480  -16.0220  -53.4420 C.ar  107  TYR107      0.0417
     90  CZ       -59.5250  -17.1030  -53.1980 C.ar  107  TYR107      0.1957
     91  OH       -59.7790  -17.9360  -52.1300 O.3   107  TYR107     -0.2866
     92  N        -55.3070  -22.0240  -53.4300 N.3   121  VAL121     -0.1231
     93  CA       -54.8330  -20.7290  -52.9520 C.3   121  VAL121      0.1692
     94  C        -55.3870  -20.4520  -51.5600 C.2   121  VAL121      0.2591
     95  O        -54.6350  -20.1160  -50.6410 O.2   121  VAL121     -0.2718
     96  CB       -55.2040  -19.6070  -53.9400 C.3   121  VAL121      0.0266
     97  CG1      -55.0100  -18.2450  -53.3060 C.3   121  VAL121      0.0020
     98  CG2      -54.3630  -19.7260  -55.2020 C.3   121  VAL121      0.0020
     99  N        -56.6950  -20.6300  -51.4030 N.am  122  GLU122     -0.1979
    100  CA       -57.3390  -20.4520  -50.1110 C.3   122  GLU122      0.1602
    101  C        -56.6380  -21.3050  -49.0560 C.2   122  GLU122      0.2287
    102  O        -56.1910  -20.7880  -48.0250 O.2   122  GLU122     -0.2864
    103  CB       -58.8240  -20.8110  -50.1890 C.3   122  GLU122      0.0415
    104  CG       -59.6170  -20.3770  -48.9700 C.3   122  GLU122      0.1163
    105  CD       -61.0980  -20.6840  -49.0810 C.2   122  GLU122      0.3649
    106  OE1      -61.8950  -19.7290  -49.2080 O.co2 122  GLU122     -0.2457
    107  OE2      -61.4660  -21.8780  -49.0330 O.co2 122  GLU122     -0.2457
    108  N        -53.3990  -19.7270  -48.0420 N.3   125  ILE125     -0.1245
    109  CA       -53.3450  -18.5220  -47.2250 C.3   125  ILE125      0.1561
    110  C        -53.8060  -18.8580  -45.8030 C.2   125  ILE125      0.2260
    111  O        -53.1860  -18.4150  -44.8300 O.2   125  ILE125     -0.2867
    112  CB       -54.1460  -17.3510  -47.8420 C.3   125  ILE125      0.0252
    113  CG1      -53.8340  -16.0650  -47.0720 C.3   125  ILE125      0.0019
    114  CG2      -55.6450  -17.6370  -47.8700 C.3   125  ILE125      0.0019
    115  CD1      -54.5620  -14.8470  -47.5630 C.3   125  ILE125      0.0001
    116  N        -59.0670  -19.2240  -41.2570 N.3   147  ARG147     -0.1245
    117  CA       -60.1070  -19.1300  -42.2790 C.3   147  ARG147      0.1563
    118  C        -60.8040  -17.7610  -42.2200 C.2   147  ARG147      0.2260
    119  O        -60.9350  -17.0500  -43.2370 O.2   147  ARG147     -0.2867
    120  CB       -61.1140  -20.2760  -42.0910 C.3   147  ARG147      0.0307
    121  CG       -62.2770  -20.3340  -43.0820 C.3   147  ARG147      0.0489
    122  CD       -61.8850  -20.9900  -44.4010 C.3   147  ARG147      0.2205
    123  NE       -60.9910  -20.1330  -45.1700 N.pl3 147  ARG147     -0.0865
    124  CZ       -61.3980  -19.1270  -45.9340 C.cat 147  ARG147      0.5346
    125  NH1      -62.6950  -18.8580  -46.0500 N.pl3 147  ARG147      0.1354
    126  NH2      -60.5080  -18.3910  -46.5840 N.pl3 147  ARG147      0.1354
    127  N        -58.5810  -14.9260  -43.3000 N.3   150  SER150     -0.1217
    128  CA       -58.4360  -14.9150  -44.7480 C.3   150  SER150      0.1889
    129  C        -59.6400  -14.2430  -45.3980 C.2   150  SER150      0.2288
    130  O        -59.4890  -13.5020  -46.3720 O.2   150  SER150     -0.2866
    131  CB       -58.2670  -16.3340  -45.2900 C.3   150  SER150      0.2089
    132  OG       -57.0830  -16.9350  -44.7910 O.3   150  SER150     -0.2183
    133  N        -59.2220  -10.4240  -44.6940 N.3   153  TRP153     -0.1227
    134  CA       -58.1410   -9.9250  -45.5300 C.3   153  TRP153      0.1737
    135  C        -58.5750   -9.8010  -46.9870 C.2   153  TRP153      0.2595
    136  O        -58.2540   -8.8150  -47.6550 O.2   153  TRP153     -0.2718
    137  CB       -56.9250  -10.8430  -45.4180 C.3   153  TRP153      0.0564
    138  CG       -55.7390  -10.3390  -46.1490 C.ar  153  TRP153      0.0003
    139  CD1      -54.8560   -9.3900  -45.7240 C.ar  153  TRP153      0.0946
    140  CD2      -55.2900  -10.7580  -47.4390 C.ar  153  TRP153      0.0152
    141  NE1      -53.8860   -9.1890  -46.6750 N.ar  153  TRP153     -0.2442
    142  CE2      -54.1300  -10.0180  -47.7380 C.ar  153  TRP153      0.0810
    143  CE3      -55.7580  -11.6860  -48.3740 C.ar  153  TRP153      0.0012
    144  CZ2      -53.4310  -10.1780  -48.9300 C.ar  153  TRP153      0.0191
    145  CZ3      -55.0620  -11.8430  -49.5580 C.ar  153  TRP153      0.0001
    146  CH2      -53.9110  -11.0930  -49.8240 C.ar  153  TRP153      0.0015
    147  N        -59.3030  -10.8040  -47.4730 N.am  154  LEU154     -0.1980
    148  CA       -59.8270  -10.7740  -48.8340 C.3   154  LEU154      0.1596
    149  C        -60.7630   -9.5840  -49.0290 C.2   154  LEU154      0.2287
    150  O        -60.6480   -8.8420  -50.0110 O.2   154  LEU154     -0.2864
    151  CB       -60.5580  -12.0770  -49.1630 C.3   154  LEU154      0.0297
    152  CG       -61.2580  -12.1180  -50.5240 C.3   154  LEU154      0.0022
    153  CD1      -60.2590  -11.9000  -51.6600 C.3   154  LEU154      0.0001
    154  CD2      -62.0210  -13.4240  -50.7120 C.3   154  LEU154      0.0001
    155  N        -58.8470   -6.3400  -49.0070 N.3   157  LEU157     -0.1245
    156  CA       -58.0720   -6.2400  -50.2330 C.3   157  LEU157      0.1561
    157  C        -58.9750   -5.7180  -51.3440 C.2   157  LEU157      0.2260
    158  O        -58.6200   -4.7770  -52.0610 O.2   157  LEU157     -0.2867
    159  CB       -57.4690   -7.5990  -50.6010 C.3   157  LEU157      0.0270
    160  CG       -56.9160   -7.7910  -52.0160 C.3   157  LEU157      0.0019
    161  CD1      -55.8960   -6.7240  -52.3560 C.3   157  LEU157      0.0001
    162  CD2      -56.3040   -9.1730  -52.1550 C.3   157  LEU157      0.0001
@<TRIPOS>BOND
     1    65    66    1
     2    70    69    1
     3    70    71    1
     4    66    69    1
     5    66    67    1
     6    80    81    1
     7     1     2    1
     8    67    68    2
     9    67    73   am
    10    71    72    1
    11    75    76    2
    12    75    74    1
    13    73    74    1
    14    58    59    1
    15    81    82    1
    16    81    84    1
    17    82    83    2
    18    60    61    2
    19    60    59    1
    20    17    15   ar
    21     2     5    1
    22     2     3    1
    23    74    77    1
    24     5     6    1
    25    59    62    1
    26    84    85    1
    27    77    79    1
    28    77    78    1
    29    15    14    1
    30    15    16   ar
    31     3     4    2
    32    13    14    1
    33    13    10    1
    34     8     6    1
    35     9    10    1
    36    62    63    1
    37    62    64    1
    38     6     7    1
    39    85    86   ar
    40    85    87   ar
    41    98    96    1
    42    86    88   ar
    43    10    11    1
    44    87    89   ar
    45    88    90   ar
    46    96    97    1
    47    96    93    1
    48    11    18   am
    49    11    12    2
    50    89    90   ar
    51    92    93    1
    52    90    91    1
    53    53    52    2
    54    18    19    1
    55    93    94    1
    56   161   160    1
    57    48    47    2
    58   162   160    1
    59   158   157    2
    60    52    51    1
    61   160   159    1
    62    19    22    1
    63    19    20    1
    64    25    27   ar
    65    25    23   ar
    66   153   152    1
    67    27    28   ar
    68    94    99   am
    69    94    95    2
    70    22    23    1
    71    23    24   ar
    72    51    50    1
    73    51    54    1
    74    36    34    1
    75    99   100    1
    76   157   156    1
    77    28    26   ar
    78    34    33    1
    79    55    54    1
    80    55    56    1
    81    47    50   am
    82    47    46    1
    83    24    26   ar
    84    20    21    2
    85    29    30    1
    86   154   152    1
    87   159   156    1
    88   152   151    1
    89   156   155    1
    90   103   100    1
    91   103   104    1
    92    46    49    1
    93    46    45    1
    94   100   101    1
    95    33    30    1
    96    33    35    1
    97   150   149    2
    98    56    57    1
    99    30    31    1
   100   146   145   ar
   101   146   144   ar
   102   145   143   ar
   103   106   105   ar
   104   151   148    1
   105   105   107   ar
   106   105   104    1
   107   101   102    2
   108   149   148    1
   109   144   142   ar
   110   148   147    1
   111    31    32    2
   112   143   140   ar
   113    40    39    2
   114   108   109    1
   115    44    42    1
   116   114   112    1
   117   112   109    1
   118   112   113    1
   119   142   140   ar
   120   142   141   ar
   121   136   135    2
   122   115   113    1
   123   147   135   am
   124   140   138   ar
   125   109   110    1
   126    39    38    1
   127   135   134    1
   128   141   139   ar
   129    43    42    1
   130   126   124    1
   131    42    41    1
   132    38    41    1
   133    38    37    1
   134   130   129    2
   135   138   139   ar
   136   138   137    1
   137   125   124    1
   138   124   123    2
   139   110   111    2
   140   134   137    1
   141   134   133    1
   142   129   128    1
   143   131   132    1
   144   131   128    1
   145   123   122    1
   146   128   127    1
   147   122   121    1
   148   119   118    2
   149   121   120    1
   150   117   118    1
   151   117   120    1
   152   117   116    1
