@<TRIPOS>MOLECULE
tmp/5cxhA00.pdb
 176 165 0 0 0
SMALL
GASTEIGER

@<TRIPOS>ATOM
      1  N         -0.8920   -2.5020    8.1510 N.3    15  LEU15      -0.1231
      2  CA        -1.4460   -2.0430    9.4280 C.3    15  LEU15       0.1693
      3  C         -1.9460   -0.6060    9.2820 C.2    15  LEU15       0.2593
      4  O         -2.9820   -0.2360    9.8380 O.2    15  LEU15      -0.2718
      5  CB        -0.3850   -2.0960   10.5500 C.3    15  LEU15       0.0284
      6  CG         0.0790   -3.4840   11.0500 C.3    15  LEU15       0.0019
      7  CD1        1.2190   -3.3360   12.0400 C.3    15  LEU15       0.0001
      8  CD2       -1.0700   -4.2780   11.7050 C.3    15  LEU15       0.0001
      9  N         -1.1930    0.1860    8.5370 N.am   16  GLY16      -0.1942
     10  CA        -1.5150    1.5780    8.3030 C.3    16  GLY16       0.2014
     11  C         -0.3060    2.3310    7.8130 C.2    16  GLY16       0.2640
     12  O          0.7370    1.7340    7.5100 O.2    16  GLY16      -0.2714
     13  N         -0.4250    3.6410    7.7700 N.am   17  SER17      -0.1935
     14  CA         0.6680    4.4500    7.2640 C.3    17  SER17       0.2055
     15  C          1.0830    5.5490    8.2300 C.2    17  SER17       0.2643
     16  O          0.3170    5.9100    9.1280 O.2    17  SER17      -0.2714
     17  CB         0.3070    5.0050    5.8890 C.3    17  SER17       0.2130
     18  OG        -0.8990    5.7440    5.9200 O.3    17  SER17      -0.2179
     19  N          2.3110    6.0270    8.0670 N.am   18  GLY18      -0.1954
     20  CA         2.8370    7.1150    8.8820 C.3    18  GLY18       0.1869
     21  C          3.0010    8.3490    8.0330 C.2    18  GLY18       0.2309
     22  O          2.4730    8.3800    6.9200 O.2    18  GLY18      -0.2863
     23  N          3.1990    0.5530    7.1310 N.3    23  VAL23      -0.1245
     24  CA         3.6490   -0.4160    8.0950 C.3    23  VAL23       0.1561
     25  C          2.9730   -1.7540    7.9180 C.2    23  VAL23       0.2260
     26  O          1.7520   -1.8270    7.8770 O.2    23  VAL23      -0.2867
     27  CB         3.5030    0.1420    9.5300 C.3    23  VAL23       0.0252
     28  CG1        4.0280   -0.8540   10.5610 C.3    23  VAL23       0.0019
     29  CG2        4.2190    1.4890    9.6660 C.3    23  VAL23       0.0019
     30  N          7.4620   -4.5300   13.3870 N.3    38  ALA38      -0.1245
     31  CA         6.6430   -3.6670   12.5510 C.3    38  ALA38       0.1562
     32  C          7.6190   -3.1530   11.5080 C.2    38  ALA38       0.2260
     33  O          8.6940   -2.6720   11.8640 O.2    38  ALA38      -0.2867
     34  CB         6.0820   -2.5090   13.3570 C.3    38  ALA38       0.0290
     35  N          8.2910   -0.6430    8.2730 N.3    40  LYS40      -0.1245
     36  CA         7.8620    0.4970    7.4830 C.3    40  LYS40       0.1561
     37  C          8.5490    0.3900    6.1280 C.2    40  LYS40       0.2260
     38  O          9.7830    0.3620    6.0550 O.2    40  LYS40      -0.2867
     39  CB         8.2000    1.8160    8.1960 C.3    40  LYS40       0.0271
     40  CG         7.7210    3.0650    7.4500 C.3    40  LYS40       0.0035
     41  CD         7.8040    4.3280    8.3370 C.3    40  LYS40       0.0206
     42  CE         6.5880    4.4760    9.2510 C.3    40  LYS40       0.1093
     43  NZ         6.6260    5.7980    9.9330 N.3    40  LYS40      -0.1314
     44  N         14.2530    9.4010    8.9340 N.3    58  GLU58      -0.1245
     45  CA        13.4590    8.8440   10.0300 C.3    58  GLU58       0.1567
     46  C         14.2760    7.7840   10.7770 C.2    58  GLU58       0.2260
     47  O         14.3620    7.8290   12.0020 O.2    58  GLU58      -0.2867
     48  CB        12.1600    8.2440    9.5000 C.3    58  GLU58       0.0388
     49  CG        11.2470    7.7570   10.6110 C.3    58  GLU58       0.1160
     50  CD         9.8970    7.3150   10.1110 C.2    58  GLU58       0.3649
     51  OE1        9.4500    7.8400    9.0620 O.co2  58  GLU58      -0.2457
     52  OE2        9.2730    6.4610   10.7840 O.co2  58  GLU58      -0.2457
     53  N          9.4460    3.7500   20.6740 N.3    71  VAL71      -0.1245
     54  CA         9.5120    2.5760   19.7750 C.3    71  VAL71       0.1561
     55  C         10.9730    2.4330   19.3030 C.2    71  VAL71       0.2260
     56  O         11.5510    3.4060   18.7870 O.2    71  VAL71      -0.2867
     57  CB         8.5550    2.7130   18.5650 C.3    71  VAL71       0.0252
     58  CG1        8.7870    1.5970   17.5350 C.3    71  VAL71       0.0019
     59  CG2        7.1060    2.7480   19.0320 C.3    71  VAL71       0.0019
     60  N         11.1980   -2.1300   13.0380 N.3    86  MET86      -0.1230
     61  CA        11.0180   -1.6290   14.4050 C.3    86  MET86       0.1702
     62  C         10.4040   -2.6810   15.2580 C.2    86  MET86       0.2592
     63  O          9.8110   -3.6140   14.7500 O.2    86  MET86      -0.2718
     64  CB         9.9780   -0.4840   14.4320 C.3    86  MET86       0.0401
     65  CG        10.3920    0.7970   13.8240 C.3    86  MET86       0.0596
     66  SD         8.8800    1.8140   13.6090 S.3    86  MET86      -0.1393
     67  CE         8.3100    1.2090   12.0040 C.3    86  MET86       0.0692
     68  N         10.3670   -2.4400   16.5620 N.am   87  GLU87      -0.1966
     69  CA         9.6220   -3.3580   17.4000 C.3    87  GLU87       0.1733
     70  C          8.1060   -3.1670   17.1660 C.2    87  GLU87       0.2616
     71  O          7.6710   -2.1010   16.7280 O.2    87  GLU87      -0.2715
     72  CB         9.9940   -3.1750   18.8610 C.3    87  GLU87       0.0429
     73  CG         9.4270   -1.9260   19.4780 C.3    87  GLU87       0.1163
     74  CD         9.9140   -1.7370   20.8960 C.2    87  GLU87       0.3649
     75  OE1       10.2930   -0.5950   21.2190 O.co2  87  GLU87      -0.2457
     76  OE2        9.9810   -2.7250   21.6630 O.co2  87  GLU87      -0.2457
     77  N          7.3220   -4.2170   17.4310 N.am   88  MET88      -0.1963
     78  CA         5.8810   -4.2200   17.2300 C.3    88  MET88       0.1736
     79  C          5.1180   -3.8280   18.5090 C.2    88  MET88       0.2616
     80  O          5.2770   -4.4850   19.5320 O.2    88  MET88      -0.2715
     81  CB         5.4330   -5.6180   16.7560 C.3    88  MET88       0.0427
     82  CG         3.9200   -5.7810   16.6720 C.3    88  MET88       0.0599
     83  SD         3.1410   -4.6830   15.4500 S.3    88  MET88      -0.1393
     84  CE         3.6330   -5.3810   14.0480 C.3    88  MET88       0.0692
     85  N          4.2370   -2.8180   18.4230 N.am   89  ALA89      -0.1963
     86  CA         3.3530   -2.4450   19.5370 C.3    89  ALA89       0.1728
     87  C          1.9990   -3.0100   19.1060 C.2    89  ALA89       0.2616
     88  O          1.2870   -2.3840   18.3210 O.2    89  ALA89      -0.2715
     89  CB         3.2960   -0.9240   19.6950 C.3    89  ALA89       0.0334
     90  N          1.7340   -4.2660   19.5120 N.am   90  GLU90      -0.1963
     91  CA         0.5800   -5.0970   19.1350 C.3    90  GLU90       0.1733
     92  C         -0.7910   -4.4330   19.1970 C.2    90  GLU90       0.2616
     93  O         -1.5920   -4.6230   18.2760 O.2    90  GLU90      -0.2715
     94  CB         0.5490   -6.4310   19.9320 C.3    90  GLU90       0.0429
     95  CG         1.7400   -7.3570   19.7040 C.3    90  GLU90       0.1163
     96  CD         1.8110   -8.1570   18.4130 C.2    90  GLU90       0.3649
     97  OE1        2.7800   -8.9300   18.2620 O.co2  90  GLU90      -0.2457
     98  OE2        0.8830   -8.0620   17.5820 O.co2  90  GLU90      -0.2457
     99  N         -1.0580   -3.6600   20.2600 N.am   91  LEU91      -0.1963
    100  CA        -2.3690   -3.0440   20.4970 C.3    91  LEU91       0.1728
    101  C         -2.6820   -1.7950   19.6620 C.2    91  LEU91       0.2617
    102  O         -3.8390   -1.3610   19.6310 O.2    91  LEU91      -0.2715
    103  CB        -2.5630   -2.7870   21.9890 C.3    91  LEU91       0.0311
    104  CG        -3.1440   -3.9230   22.8410 C.3    91  LEU91       0.0022
    105  CD1       -2.3230   -5.1810   22.7590 C.3    91  LEU91       0.0001
    106  CD2       -3.2460   -3.4990   24.2640 C.3    91  LEU91       0.0001
    107  N         -1.6530   -1.2330   19.0220 N.am   92  GLY92      -0.1941
    108  CA        -1.7900   -0.1030   18.1240 C.3    92  GLY92       0.1998
    109  C         -1.9960    1.2840   18.7140 C.2    92  GLY92       0.2480
    110  O         -1.7240    1.5210   19.8970 O.2    92  GLY92      -0.2729
    111  N         -2.4720    2.2180   17.8520 N.am   93  PRO93      -0.2726
    112  CA        -2.6330    3.6260   18.2720 C.3    93  PRO93       0.1402
    113  C         -3.5970    3.7950   19.4360 C.2    93  PRO93       0.2269
    114  O         -4.6280    3.1150   19.5080 O.2    93  PRO93      -0.2865
    115  CB        -3.1370    4.3330   16.9960 C.3    93  PRO93       0.0296
    116  CG        -2.6460    3.4680   15.8670 C.3    93  PRO93       0.0237
    117  CD        -2.7890    2.0550   16.4120 C.3    93  PRO93       0.0939
    118  N         -7.3580    4.9940   18.5330 N.3    96  LYS96      -0.1245
    119  CA        -8.1500    3.8660   18.0180 C.3    96  LYS96       0.1561
    120  C         -8.4530    2.8890   19.1840 C.2    96  LYS96       0.2260
    121  O         -9.5820    2.4140   19.2850 O.2    96  LYS96      -0.2867
    122  CB        -7.3770    3.1570   16.8920 C.3    96  LYS96       0.0271
    123  CG        -8.0630    1.9180   16.2730 C.3    96  LYS96       0.0035
    124  CD        -7.1130    1.2570   15.2360 C.3    96  LYS96       0.0206
    125  CE        -7.5520   -0.1240   14.8190 C.3    96  LYS96       0.1093
    126  NZ        -6.8220   -0.5870   13.6040 N.3    96  LYS96      -0.1314
    127  N        -12.4170    2.0330   21.0170 N.3   100  GLN100     -0.1245
    128  CA       -12.9290    0.6630   21.0880 C.3   100  GLN100      0.1566
    129  C        -12.9600    0.0990   22.4970 C.2   100  GLN100      0.2260
    130  O        -13.4740   -1.0000   22.6830 O.2   100  GLN100     -0.2867
    131  CB       -12.0860   -0.2540   20.1670 C.3   100  GLN100      0.0367
    132  CG       -12.0670    0.2130   18.7020 C.3   100  GLN100      0.0905
    133  CD       -11.1900   -0.6050   17.7840 C.2   100  GLN100      0.2608
    134  OE1      -10.3230   -1.3810   18.2090 O.2   100  GLN100     -0.2717
    135  NE2      -11.3790   -0.4230   16.4850 N.am  100  GLN100     -0.0878
    136  N         -2.5710    9.3170   17.8500 N.3   136  ARG136     -0.1231
    137  CA        -2.4030    8.3570   16.7400 C.3   136  ARG136      0.1694
    138  C         -0.9600    7.7730   16.6960 C.2   136  ARG136      0.2592
    139  O         -0.7510    6.7020   16.1260 O.2   136  ARG136     -0.2718
    140  CB        -2.7480    9.0100   15.3700 C.3   136  ARG136      0.0321
    141  CG        -1.7400   10.0950   14.9240 C.3   136  ARG136      0.0489
    142  CD        -2.0900   10.7540   13.5810 C.3   136  ARG136      0.2205
    143  NE        -1.3070   11.9830   13.4050 N.pl3 136  ARG136     -0.0865
    144  CZ        -1.6780   13.1850   13.8370 C.cat 136  ARG136      0.5346
    145  NH1       -2.8530   13.3540   14.4270 N.pl3 136  ARG136      0.1354
    146  NH2       -0.8840   14.2310   13.6660 N.pl3 136  ARG136      0.1354
    147  N          0.0150    8.5190   17.2520 N.am  137  ASN137     -0.1974
    148  CA         1.4350    8.1400   17.3240 C.3   137  ASN137      0.1688
    149  C          1.8410    7.4870   18.6320 C.2   137  ASN137      0.2292
    150  O          2.9680    7.0300   18.7480 O.2   137  ASN137     -0.2864
    151  CB         2.3280    9.3240   16.9580 C.3   137  ASN137      0.1181
    152  CG         2.2310    9.5980   15.4800 C.2   137  ASN137      0.2629
    153  OD1        1.9140    8.7070   14.6860 O.2   137  ASN137     -0.2716
    154  ND2        2.4310   10.8270   15.0760 N.am  137  ASN137     -0.0877
    155  N          1.6030    4.3230   20.6850 N.3   139  LEU139     -0.1245
    156  CA         1.2800    2.9310   20.4130 C.3   139  LEU139      0.1561
    157  C          1.3100    2.1210   21.6690 C.2   139  LEU139      0.2260
    158  O          2.1840    2.3210   22.5220 O.2   139  LEU139     -0.2867
    159  CB         2.2690    2.3400   19.3790 C.3   139  LEU139      0.0270
    160  CG         2.4440    3.1380   18.0670 C.3   139  LEU139      0.0019
    161  CD1        3.3350    2.4160   17.1270 C.3   139  LEU139      0.0001
    162  CD2        1.0980    3.4500   17.3960 C.3   139  LEU139      0.0001
    163  N          5.8800    6.8480   18.8020 N.3   149  SER149     -0.1202
    164  CA         6.2660    6.4090   17.4790 C.3   149  SER149      0.2020
    165  C          6.2030    7.5450   16.4540 C.2   149  SER149      0.2618
    166  O          5.8030    8.6700   16.7780 O.2   149  SER149     -0.2717
    167  CB         5.3480    5.2700   17.0280 C.3   149  SER149      0.2103
    168  OG         4.0830    5.7520   16.5900 O.3   149  SER149     -0.2182
    169  N          6.5390    7.2040   15.1960 N.am  150  ASP150     -0.1973
    170  CA         6.5750    8.0790   14.0280 C.3   150  ASP150      0.1709
    171  C          7.4750    9.2920   14.1910 C.2   150  ASP150      0.2293
    172  O          7.0050   10.4160   14.4780 O.2   150  ASP150     -0.2864
    173  CB         5.1810    8.4470   13.4630 C.3   150  ASP150      0.1436
    174  CG         5.2920    8.8300   11.9950 C.2   150  ASP150      0.3671
    175  OD1        6.3550    9.3550   11.5940 O.co2 150  ASP150     -0.2456
    176  OD2        4.3450    8.5530   11.2340 O.co2 150  ASP150     -0.2456
@<TRIPOS>BOND
     1    17    18    1
     2    17    14    1
     3    38    37    2
     4    37    36    1
     5    22    21    2
     6    23    24    1
     7    14    13    1
     8    14    15    1
     9    40    39    1
    10    40    41    1
    11    36    39    1
    12    36    35    1
    13    12    11    2
    14    13    11   am
    15    11    10    1
    16    26    25    2
    17    25    24    1
    18    21    20    1
    19    19    15   am
    20    19    20    1
    21    24    27    1
    22     1     2    1
    23    15    16    2
    24    10     9    1
    25    41    42    1
    26     9     3   am
    27    44    45    1
    28    51    50   ar
    29    42    43    1
    30     3     2    1
    31     3     4    2
    32     2     5    1
    33    48    45    1
    34    48    49    1
    35    27    29    1
    36    27    28    1
    37    45    46    1
    38    50    49    1
    39    50    52   ar
    40     5     6    1
    41    46    47    2
    42     6     8    1
    43     6     7    1
    44   176   174   ar
    45    32    33    2
    46    32    31    1
    47   175   174   ar
    48   174   173    1
    49    67    66    1
    50    31    34    1
    51    31    30    1
    52    60    61    1
    53   143   142    1
    54   143   144    2
    55   173   170    1
    56   142   141    1
    57   126   125    1
    58    66    65    1
    59   146   144    1
    60    65    64    1
    61   144   145    1
    62   170   171    1
    63   170   169    1
    64    84    83    1
    65   171   172    2
    66    61    64    1
    67    61    62    1
    68   153   152    2
    69    63    62    2
    70   125   124    1
    71   141   140    1
    72   154   152   am
    73   169   165   am
    74   124   123    1
    75    62    68   am
    76   140   137    1
    77    83    82    1
    78   152   151    1
    79   116   117    1
    80   116   115    1
    81   139   138    2
    82   123   122    1
    83   117   111    1
    84   165   166    2
    85   165   164    1
    86   135   133   am
    87    68    69    1
    88   168   167    1
    89    82    81    1
    90   138   137    1
    91   138   147   am
    92    71    70    2
    93   137   136    1
    94    81    78    1
    95   122   119    1
    96   151   148    1
    97   115   112    1
    98   167   164    1
    99   161   160    1
   100    70    69    1
   101    70    77   am
   102    78    77    1
   103    78    79    1
   104   147   148    1
   105   148   149    1
   106   162   160    1
   107    69    72    1
   108   164   163    1
   109    58    57    1
   110    98    96   ar
   111   133   134    2
   112   133   132    1
   113   111   112    1
   114   111   109   am
   115   119   118    1
   116   119   120    1
   117   160   159    1
   118   108   109    1
   119   108   107    1
   120    97    96   ar
   121   112   113    1
   122    93    92    2
   123    88    87    2
   124    96    95    1
   125    85    79   am
   126    85    86    1
   127    79    80    2
   128    57    59    1
   129    57    54    1
   130   149   150    2
   131   132   131    1
   132   109   110    2
   133    56    55    2
   134    72    73    1
   135   107   101   am
   136    87    90   am
   137    87    86    1
   138    91    92    1
   139    91    90    1
   140    91    94    1
   141   120   121    2
   142    92    99   am
   143    55    54    1
   144   159   156    1
   145   113   114    2
   146    73    74    1
   147    86    89    1
   148   102   101    2
   149   101   100    1
   150    95    94    1
   151    54    53    1
   152   131   128    1
   153    99   100    1
   154   156   155    1
   155   156   157    1
   156   100   103    1
   157    74    75   ar
   158    74    76   ar
   159   127   128    1
   160   128   129    1
   161   157   158    2
   162   103   104    1
   163   129   130    2
   164   105   104    1
   165   104   106    1
