@<TRIPOS>MOLECULE
tmp/5cxiB00.pdb
 199 187 0 0 0
SMALL
GASTEIGER

@<TRIPOS>ATOM
      1  N         11.1040   37.2000   19.7650 N.3    16  MET16      -0.1245
      2  CA        12.0270   36.2410   20.3650 C.3    16  MET16       0.1570
      3  C         12.4200   36.6380   21.7870 C.2    16  MET16       0.2261
      4  O         12.3770   35.8130   22.6980 O.2    16  MET16      -0.2867
      5  CB        13.2810   36.0910   19.5000 C.3    16  MET16       0.0387
      6  CG        13.0520   35.3650   18.1850 C.3    16  MET16       0.0595
      7  SD        12.4690   33.6740   18.4200 S.3    16  MET16      -0.1393
      8  CE        13.8020   33.0050   19.4100 C.3    16  MET16       0.0692
      9  N         10.2430   31.5190   14.7970 N.3    58  LEU58      -0.1245
     10  CA        10.8810   30.2100   14.8700 C.3    58  LEU58       0.1561
     11  C         11.4940   29.8550   13.5210 C.2    58  LEU58       0.2260
     12  O         12.6330   29.3810   13.4480 O.2    58  LEU58      -0.2867
     13  CB         9.8790   29.1370   15.3010 C.3    58  LEU58       0.0270
     14  CG        10.4390   27.7170   15.4110 C.3    58  LEU58       0.0019
     15  CD1       11.5750   27.6580   16.4230 C.3    58  LEU58       0.0001
     16  CD2        9.3440   26.7280   15.7740 C.3    58  LEU58       0.0001
     17  N         14.5090   31.6430   13.0610 N.3    61  GLU61      -0.1231
     18  CA        15.5060   31.0440   13.9420 C.3    61  GLU61       0.1699
     19  C         16.2130   29.8750   13.2760 C.2    61  GLU61       0.2592
     20  O         17.4410   29.7930   13.2960 O.2    61  GLU61      -0.2718
     21  CB        14.8690   30.5810   15.2520 C.3    61  GLU61       0.0402
     22  CG        14.9570   31.6010   16.3560 C.3    61  GLU61       0.1161
     23  CD        16.3840   32.0240   16.6320 C.2    61  GLU61       0.3649
     24  OE1       16.6930   33.2200   16.4530 O.co2  61  GLU61      -0.2457
     25  OE2       17.1960   31.1620   17.0300 O.co2  61  GLU61      -0.2457
     26  N         15.4380   28.9670   12.6900 N.am   62  PHE62      -0.1976
     27  CA        16.0310   27.8160   12.0180 C.3    62  PHE62       0.1639
     28  C         16.7990   28.2470   10.7710 C.2    62  PHE62       0.2290
     29  O         17.7980   27.6250   10.4090 O.2    62  PHE62      -0.2864
     30  CB        14.9610   26.7790   11.6680 C.3    62  PHE62       0.0560
     31  CG        14.7290   25.7660   12.7560 C.ar   62  PHE62      -0.0200
     32  CD1       15.2290   24.4790   12.6450 C.ar   62  PHE62      -0.0042
     33  CD2       14.0310   26.1090   13.9000 C.ar   62  PHE62      -0.0042
     34  CE1       15.0250   23.5490   13.6480 C.ar   62  PHE62      -0.0003
     35  CE2       13.8230   25.1840   14.9070 C.ar   62  PHE62      -0.0003
     36  CZ        14.3210   23.9030   14.7810 C.ar   62  PHE62      -0.0000
     37  N         20.1710   29.6640   12.3150 N.3    65  ILE65      -0.1245
     38  CA        20.9990   28.5720   12.8090 C.3    65  ILE65       0.1561
     39  C         21.5310   27.7760   11.6260 C.2    65  ILE65       0.2260
     40  O         22.6750   27.3210   11.6330 O.2    65  ILE65      -0.2867
     41  CB        20.2200   27.6690   13.7800 C.3    65  ILE65       0.0252
     42  CG1       19.9780   28.4490   15.0880 C.3    65  ILE65       0.0019
     43  CG2       20.9420   26.3650   14.0190 C.3    65  ILE65       0.0019
     44  CD1       19.0000   27.7890   16.0210 C.3    65  ILE65       0.0001
     45  N         22.3430   19.5100   20.0690 N.3    82  LYS82      -0.1231
     46  CA        22.5100   20.9600   20.1440 C.3    82  LYS82       0.1693
     47  C         21.1710   21.6690   20.3420 C.2    82  LYS82       0.2591
     48  O         21.0460   22.5640   21.1870 O.2    82  LYS82      -0.2718
     49  CB        23.1970   21.4860   18.8800 C.3    82  LYS82       0.0285
     50  CG        23.4900   22.9600   18.9120 C.3    82  LYS82       0.0035
     51  CD        23.8570   23.4880   17.5200 C.3    82  LYS82       0.0206
     52  CE        23.8590   25.0140   17.4970 C.3    82  LYS82       0.1093
     53  NZ        22.5310   25.5720   17.9110 N.3    82  LYS82      -0.1314
     54  N         20.1700   21.2630   19.5660 N.am   83  LEU83      -0.1980
     55  CA        18.8420   21.8550   19.6800 C.3    83  LEU83       0.1596
     56  C         18.2350   21.5810   21.0550 C.2    83  LEU83       0.2287
     57  O         17.4920   22.4030   21.5940 O.2    83  LEU83      -0.2864
     58  CB        17.9270   21.3300   18.5740 C.3    83  LEU83       0.0297
     59  CG        18.3000   21.8310   17.1780 C.3    83  LEU83       0.0022
     60  CD1       17.4820   21.1370   16.1040 C.3    83  LEU83       0.0001
     61  CD2       18.1180   23.3400   17.1030 C.3    83  LEU83       0.0001
     62  N         19.9870   23.8960   23.5720 N.3    86  ALA86      -0.1231
     63  CA        19.4370   25.2290   23.3370 C.3    86  ALA86       0.1694
     64  C         18.0350   25.3430   23.9330 C.2    86  ALA86       0.2591
     65  O         17.6590   26.3790   24.4860 O.2    86  ALA86      -0.2718
     66  CB        19.4070   25.5390   21.8510 C.3    86  ALA86       0.0304
     67  N         17.2710   24.2640   23.8160 N.am   87  MET87      -0.1979
     68  CA        15.9280   24.2030   24.3690 C.3    87  MET87       0.1605
     69  C         15.9510   24.3290   25.8920 C.2    87  MET87       0.2287
     70  O         15.1810   25.0940   26.4760 O.2    87  MET87      -0.2864
     71  CB        15.2600   22.8960   23.9480 C.3    87  MET87       0.0413
     72  CG        13.8480   22.7170   24.4470 C.3    87  MET87       0.0598
     73  SD        13.0630   21.2890   23.6740 S.3    87  MET87      -0.1393
     74  CE        13.9520   19.9440   24.4480 C.3    87  MET87       0.0692
     75  N         16.5520   27.6720   27.2470 N.3    90  ASN90      -0.1240
     76  CA        15.4580   28.6130   27.0160 C.3    90  ASN90       0.1653
     77  C         14.0890   27.9750   27.2250 C.2    90  ASN90       0.2266
     78  O         13.3480   27.7830   26.2640 O.2    90  ASN90      -0.2867
     79  CB        15.5330   29.1790   25.5970 C.3    90  ASN90       0.1155
     80  CG        16.3890   30.4240   25.5080 C.2    90  ASN90       0.2627
     81  OD1       15.8740   31.5370   25.3950 O.2    90  ASN90      -0.2716
     82  ND2       17.7040   30.2440   25.5580 N.am   90  ASN90      -0.0877
     83  N         10.9700   30.3220   26.2060 N.3    93  LEU93      -0.1231
     84  CA        10.8240   30.3830   24.7550 C.3    93  LEU93       0.1693
     85  C         10.1970   29.0950   24.2260 C.2    93  LEU93       0.2592
     86  O          9.2990   29.1250   23.3780 O.2    93  LEU93      -0.2718
     87  CB        12.1780   30.6200   24.0860 C.3    93  LEU93       0.0284
     88  CG        12.1830   30.5420   22.5610 C.3    93  LEU93       0.0019
     89  CD1       11.3420   31.6680   21.9760 C.3    93  LEU93       0.0001
     90  CD2       13.6070   30.5760   22.0240 C.3    93  LEU93       0.0001
     91  N         10.6800   27.9670   24.7380 N.am   94  THR94      -0.1953
     92  CA        10.1690   26.6580   24.3490 C.3    94  THR94       0.1897
     93  C          8.6940   26.5210   24.7210 C.2    94  THR94       0.2313
     94  O          7.9050   25.9540   23.9670 O.2    94  THR94      -0.2863
     95  CB        10.9710   25.5190   25.0070 C.3    94  THR94       0.1794
     96  OG1       12.3680   25.6950   24.7360 O.3    94  THR94      -0.2208
     97  CG2       10.5270   24.1720   24.4560 C.3    94  THR94       0.0378
     98  N          6.7110   28.5900   22.1620 N.3    97  MET97      -0.1230
     99  CA         6.6260   27.9290   20.8620 C.3    97  MET97       0.1702
    100  C          5.6930   26.7220   20.9090 C.2    97  MET97       0.2593
    101  O          4.9230   26.4910   19.9780 O.2    97  MET97      -0.2718
    102  CB         8.0200   27.5070   20.3800 C.3    97  MET97       0.0401
    103  CG         8.9450   28.6810   20.0740 C.3    97  MET97       0.0596
    104  SD         8.2650   29.7380   18.7790 S.3    97  MET97      -0.1393
    105  CE         9.5470   30.9830   18.6580 C.3    97  MET97       0.0692
    106  N          5.7700   25.9580   21.9940 N.am   98  THR98      -0.1953
    107  CA         4.9050   24.7980   22.1780 C.3    98  THR98       0.1897
    108  C          3.4390   25.2140   22.1960 C.2    98  THR98       0.2313
    109  O          2.6000   24.6140   21.5070 O.2    98  THR98      -0.2863
    110  CB         5.2280   24.0440   23.4800 C.3    98  THR98       0.1794
    111  OG1        6.6250   23.7280   23.5170 O.3    98  THR98      -0.2208
    112  CG2        4.4230   22.7560   23.5540 C.3    98  THR98       0.0378
    113  N          2.2570   26.1770   18.8120 N.3   101  TYR101     -0.1241
    114  CA         2.0040   25.0730   17.8920 C.3   101  TYR101      0.1605
    115  C          0.7800   24.2440   18.2570 C.2   101  TYR101      0.2264
    116  O          0.1440   23.6630   17.3770 O.2   101  TYR101     -0.2867
    117  CB         3.2310   24.1700   17.7940 C.3   101  TYR101      0.0534
    118  CG         4.1450   24.5980   16.6810 C.ar  101  TYR101     -0.0201
    119  CD1        5.1550   25.5170   16.9080 C.ar  101  TYR101     -0.0009
    120  CD2        3.9700   24.1160   15.3910 C.ar  101  TYR101     -0.0009
    121  CE1        5.9790   25.9270   15.8930 C.ar  101  TYR101      0.0417
    122  CE2        4.7950   24.5230   14.3650 C.ar  101  TYR101      0.0417
    123  CZ         5.7990   25.4300   14.6250 C.ar  101  TYR101      0.1957
    124  OH         6.6360   25.8510   13.6230 O.3   101  TYR101     -0.2866
    125  N          7.6550   24.2980    9.0240 N.3   116  GLU116     -0.1245
    126  CA         7.7210   22.8440    9.0490 C.3   116  GLU116      0.1567
    127  C          8.7150   22.3630    8.0050 C.2   116  GLU116      0.2260
    128  O          9.7010   21.6920    8.3350 O.2   116  GLU116     -0.2867
    129  CB         6.3420   22.2390    8.7990 C.3   116  GLU116      0.0388
    130  CG         6.3530   20.7460    8.5420 C.3   116  GLU116      0.1160
    131  CD         4.9570   20.1600    8.5020 C.2   116  GLU116      0.3649
    132  OE1        4.1590   20.4600    9.4160 O.co2 116  GLU116     -0.2457
    133  OE2        4.6560   19.4060    7.5530 O.co2 116  GLU116     -0.2457
    134  N         12.2010   23.1400    9.0430 N.3   119  ILE119     -0.1245
    135  CA        12.7310   22.3280   10.1330 C.3   119  ILE119      0.1561
    136  C         13.1640   20.9720    9.6100 C.2   119  ILE119      0.2260
    137  O         14.3290   20.5820    9.7440 O.2   119  ILE119     -0.2867
    138  CB        11.6970   22.1680   11.2640 C.3   119  ILE119      0.0252
    139  CG1       11.3890   23.5240   11.9020 C.3   119  ILE119      0.0019
    140  CG2       12.1970   21.1820   12.3090 C.3   119  ILE119      0.0019
    141  CD1       10.3720   23.4550   13.0350 C.3   119  ILE119      0.0001
    142  N         16.7810   18.8650    9.3110 N.3   123  PHE123     -0.1241
    143  CA        17.0140   17.5290    9.8310 C.3   123  PHE123      0.1605
    144  C         17.4990   16.6410    8.6900 C.2   123  PHE123      0.2264
    145  O         18.5430   15.9920    8.7930 O.2   123  PHE123     -0.2867
    146  CB        15.7450   16.9530   10.4700 C.3   123  PHE123      0.0534
    147  CG        15.4040   17.5540   11.8080 C.ar  123  PHE123     -0.0203
    148  CD1       16.3890   18.0910   12.6150 C.ar  123  PHE123     -0.0042
    149  CD2       14.0950   17.5710   12.2570 C.ar  123  PHE123     -0.0042
    150  CE1       16.0740   18.6380   13.8440 C.ar  123  PHE123     -0.0003
    151  CE2       13.7730   18.1160   13.4840 C.ar  123  PHE123     -0.0003
    152  CZ        14.7650   18.6510   14.2780 C.ar  123  PHE123     -0.0000
    153  N         10.0620   14.3640    9.6790 N.3   141  ARG141     -0.1245
    154  CA         8.6880   14.5620   10.1550 C.3   141  ARG141      0.1563
    155  C          8.3790   13.7590   11.4230 C.2   141  ARG141      0.2260
    156  O          7.7820   14.2810   12.3790 O.2   141  ARG141     -0.2867
    157  CB         7.6810   14.1950    9.0620 C.3   141  ARG141      0.0307
    158  CG         7.0780   15.3900    8.3370 C.3   141  ARG141      0.0489
    159  CD         6.3230   16.3090    9.2980 C.3   141  ARG141      0.2205
    160  NE         7.1530   17.4260    9.7340 N.pl3 141  ARG141     -0.0865
    161  CZ         6.8910   18.1830   10.7930 C.cat 141  ARG141      0.5346
    162  NH1        5.8140   17.9410   11.5330 N.pl3 141  ARG141      0.1354
    163  NH2        7.7070   19.1800   11.1140 N.pl3 141  ARG141      0.1354
    164  N         10.0800   15.3010   14.3580 N.3   144  SER144     -0.1217
    165  CA         9.3630   16.5260   14.7140 C.3   144  SER144      0.1889
    166  C          8.0940   16.2340   15.5190 C.2   144  SER144      0.2288
    167  O          7.7690   16.9610   16.4660 O.2   144  SER144     -0.2866
    168  CB         9.0150   17.3260   13.4550 C.3   144  SER144      0.2089
    169  OG        10.1830   17.7970   12.8080 O.3   144  SER144     -0.2183
    170  N          9.0290   15.1610   19.0370 N.3   147  TRP147     -0.1227
    171  CA         9.3900   16.4120   19.6980 C.3   147  TRP147      0.1737
    172  C          8.1550   17.1600   20.2050 C.2   147  TRP147      0.2595
    173  O          8.0970   17.5700   21.3660 O.2   147  TRP147     -0.2718
    174  CB        10.1820   17.3070   18.7360 C.3   147  TRP147      0.0564
    175  CG        11.2480   18.1380   19.3950 C.ar  147  TRP147      0.0003
    176  CD1       11.1120   18.9280   20.4980 C.ar  147  TRP147      0.0946
    177  CD2       12.6100   18.2750   18.9690 C.ar  147  TRP147      0.0152
    178  NE1       12.3100   19.5360   20.7980 N.ar  147  TRP147     -0.2442
    179  CE2       13.2450   19.1520   19.8730 C.ar  147  TRP147      0.0810
    180  CE3       13.3550   17.7350   17.9170 C.ar  147  TRP147      0.0012
    181  CZ2       14.5850   19.5010   19.7550 C.ar  147  TRP147      0.0191
    182  CZ3       14.6880   18.0850   17.8010 C.ar  147  TRP147      0.0001
    183  CH2       15.2890   18.9570   18.7150 C.ar  147  TRP147      0.0015
    184  N          7.1680   17.3330   19.3310 N.am  148  LEU148     -0.1980
    185  CA         5.9800   18.0970   19.6980 C.3   148  LEU148      0.1596
    186  C          5.1490   17.3960   20.7710 C.2   148  LEU148      0.2287
    187  O          4.7100   18.0300   21.7270 O.2   148  LEU148     -0.2864
    188  CB         5.1120   18.3720   18.4710 C.3   148  LEU148      0.0297
    189  CG         3.9150   19.2840   18.7490 C.3   148  LEU148      0.0022
    190  CD1        4.3810   20.6250   19.3050 C.3   148  LEU148      0.0001
    191  CD2        3.0870   19.4880   17.4970 C.3   148  LEU148      0.0001
    192  N          6.8700   17.6000   24.0130 N.3   151  LEU151     -0.1245
    193  CA         6.8430   18.9790   24.4880 C.3   151  LEU151      0.1561
    194  C          5.4760   19.3210   25.0680 C.2   151  LEU151      0.2260
    195  O          5.3760   20.1250   25.9860 O.2   151  LEU151     -0.2867
    196  CB         7.2010   19.9570   23.3700 C.3   151  LEU151      0.0270
    197  CG         8.7000   20.2040   23.1840 C.3   151  LEU151      0.0019
    198  CD1        8.9420   21.2640   22.1270 C.3   151  LEU151      0.0001
    199  CD2        9.3450   20.6020   24.5010 C.3   151  LEU151      0.0001
@<TRIPOS>BOND
     1   133   131   ar
     2   127   128    2
     3   127   126    1
     4   158   157    1
     5   158   159    1
     6   131   130    1
     7   131   132   ar
     8   130   129    1
     9   144   145    2
    10   144   143    1
    11   129   126    1
    12   125   126    1
    13   134   135    1
    14   157   154    1
    15   159   160    1
    16   142   143    1
    17   136   137    2
    18   136   135    1
    19   153   154    1
    20   160   161    2
    21   143   146    1
    22   135   138    1
    23   154   155    1
    24    29    28    2
    25   146   147    1
    26    28    27    1
    27   161   163    1
    28   161   162    1
    29   138   139    1
    30   138   140    1
    31   155   156    2
    32    39    40    2
    33    39    38    1
    34    30    27    1
    35    30    31    1
    36   147   149   ar
    37   147   148   ar
    38   139   141    1
    39    27    26    1
    40   149   151   ar
    41    37    38    1
    42   148   150   ar
    43    32    31   ar
    44    32    34   ar
    45    26    19   am
    46    31    33   ar
    47   169   168    1
    48    38    41    1
    49    17    18    1
    50    19    20    2
    51    19    18    1
    52    12    11    2
    53   168   165    1
    54   151   152   ar
    55    11    10    1
    56   124   123    1
    57    34    36   ar
    58    41    43    1
    59    41    42    1
    60   150   152   ar
    61    33    35   ar
    62    18    21    1
    63   164   165    1
    64   122   123   ar
    65   122   120   ar
    66   123   121   ar
    67   165   166    1
    68    36    35   ar
    69     9    10    1
    70    10    13    1
    71    42    44    1
    72    21    22    1
    73    13    14    1
    74   120   118   ar
    75    14    16    1
    76    14    15    1
    77   166   167    2
    78   121   119   ar
    79    60    59    1
    80    22    23    1
    81    24    23   ar
    82    23    25   ar
    83   118   119   ar
    84   118   117    1
    85    61    59    1
    86    59    58    1
    87   116   115    2
    88   191   189    1
    89    52    51    1
    90    52    53    1
    91    51    50    1
    92   117   114    1
    93   182   180   ar
    94   182   183   ar
    95   114   115    1
    96   114   113    1
    97   180   177   ar
    98     6     7    1
    99     6     5    1
   100     7     8    1
   101   188   189    1
   102   188   185    1
   103    58    55    1
   104   105   104    1
   105   183   181   ar
   106   174   175    1
   107   174   171    1
   108   189   190    1
   109   104   103    1
   110    49    50    1
   111    49    46    1
   112   177   175   ar
   113   177   179   ar
   114   170   171    1
   115   184   185    1
   116   184   172   am
   117   175   176   ar
   118     5     2    1
   119    54    55    1
   120    54    47   am
   121    55    56    1
   122   171   172    1
   123   185   186    1
   124   181   179   ar
   125     1     2    1
   126   179   178   ar
   127   101   100    2
   128    45    46    1
   129   103   102    1
   130    46    47    1
   131   172   173    2
   132    47    48    2
   133     2     3    1
   134   102    99    1
   135   176   178   ar
   136   186   187    2
   137    99   100    1
   138    99    98    1
   139   100   106   am
   140    56    57    2
   141   109   108    2
   142     3     4    2
   143    66    63    1
   144    89    88    1
   145   106   107    1
   146    90    88    1
   147   198   197    1
   148   107   108    1
   149   107   110    1
   150    88    87    1
   151   197   196    1
   152   197   199    1
   153    63    62    1
   154    63    64    1
   155   196   193    1
   156    86    85    2
   157   110   111    1
   158   110   112    1
   159    73    72    1
   160    73    74    1
   161    67    64   am
   162    67    68    1
   163    64    65    2
   164    71    68    1
   165    71    72    1
   166    94    93    2
   167   192   193    1
   168    87    84    1
   169    85    91   am
   170    85    84    1
   171    92    93    1
   172    92    91    1
   173    92    95    1
   174    68    69    1
   175    97    95    1
   176   193   194    1
   177    96    95    1
   178    84    83    1
   179   194   195    2
   180    81    80    2
   181    80    82   am
   182    80    79    1
   183    79    76    1
   184    69    70    2
   185    78    77    2
   186    76    77    1
   187    76    75    1
