@<TRIPOS>MOLECULE
tmp/5cxjA00.pdb
 113 111 0 0 0
SMALL
GASTEIGER

@<TRIPOS>ATOM
      1  N         -2.2610  -16.6570    0.0900 N.3    44  GLY44      -0.1210
      2  CA        -0.7820  -16.7000    0.2170 C.3    44  GLY44       0.1956
      3  C         -0.1230  -17.9640   -0.2800 C.2    44  GLY44       0.2612
      4  O         -0.7970  -18.9830   -0.4380 O.2    44  GLY44      -0.2717
      5  N          1.1880  -17.9270   -0.5440 N.am   45  VAL45      -0.1965
      6  CA         1.9350  -19.1710   -0.7340 C.3    45  VAL45       0.1727
      7  C          2.9010  -19.4570    0.4550 C.2    45  VAL45       0.2616
      8  O          3.5430  -20.5320    0.5510 O.2    45  VAL45      -0.2715
      9  CB         2.6730  -19.1960   -2.1110 C.3    45  VAL45       0.0290
     10  CG1        1.6710  -18.9260   -3.2610 C.3    45  VAL45       0.0023
     11  CG2        3.8060  -18.1830   -2.1130 C.3    45  VAL45       0.0023
     12  N          3.0360  -18.4770    1.3380 N.am   46  GLY46      -0.1955
     13  CA         3.8690  -18.6430    2.5410 C.3    46  GLY46       0.1869
     14  C          3.2510  -17.7460    3.5800 C.2    46  GLY46       0.2309
     15  O          2.6810  -16.6790    3.2210 O.2    46  GLY46      -0.2863
     16  N          3.8560  -13.0070   11.3910 N.3    51  GLN51      -0.1245
     17  CA         2.8850  -12.2170   10.6110 C.3    51  GLN51       0.1566
     18  C          1.4950  -12.2540   11.2110 C.2    51  GLN51       0.2260
     19  O          0.6390  -11.4480   10.8010 O.2    51  GLN51      -0.2867
     20  CB         2.7910  -12.6780    9.1540 C.3    51  GLN51       0.0367
     21  CG         4.0690  -12.4120    8.3650 C.3    51  GLN51       0.0905
     22  CD         3.8900  -12.9450    6.9720 C.2    51  GLN51       0.2608
     23  OE1        4.2210  -14.1010    6.7250 O.2    51  GLN51      -0.2717
     24  NE2        3.2240  -12.1760    6.0860 N.am   51  GLN51      -0.0878
     25  N         10.1040  -12.0770   -8.7000 N.3    87  TRP87      -0.1227
     26  CA         9.0550  -11.2840   -8.0900 C.3    87  TRP87       0.1737
     27  C          8.6640  -11.8150   -6.6660 C.2    87  TRP87       0.2595
     28  O          8.4360  -13.0430   -6.4540 O.2    87  TRP87      -0.2718
     29  CB         7.8270  -11.2560   -9.0040 C.3    87  TRP87       0.0564
     30  CG         8.0740  -10.3960  -10.2310 C.ar   87  TRP87       0.0003
     31  CD1        8.2830  -10.8230  -11.5600 C.ar   87  TRP87       0.0946
     32  CD2        8.2040   -8.9430  -10.2560 C.ar   87  TRP87       0.0152
     33  NE1        8.4750   -9.7170  -12.3730 N.ar   87  TRP87      -0.2442
     34  CE2        8.4460   -8.5660  -11.6150 C.ar   87  TRP87       0.0810
     35  CE3        8.1390   -7.9440   -9.2710 C.ar   87  TRP87       0.0012
     36  CZ2        8.6220   -7.2360  -11.9980 C.ar   87  TRP87       0.0191
     37  CZ3        8.2990   -6.6080   -9.6650 C.ar   87  TRP87       0.0001
     38  CH2        8.5410   -6.2700  -11.0210 C.ar   87  TRP87       0.0015
     39  N          8.6070  -10.9020   -5.7030 N.am   88  GLU88      -0.1965
     40  CA         8.0840  -11.2550   -4.4010 C.3    88  GLU88       0.1733
     41  C          6.9730  -10.2860   -3.9950 C.2    88  GLU88       0.2617
     42  O          7.0140   -9.0790   -4.3800 O.2    88  GLU88      -0.2715
     43  CB         9.2320  -11.2770   -3.3920 C.3    88  GLU88       0.0429
     44  CG        10.1830  -12.4440   -3.6840 C.3    88  GLU88       0.1163
     45  CD        11.2070  -12.6600   -2.6080 C.2    88  GLU88       0.3649
     46  OE1       10.9800  -12.3500   -1.4020 O.co2  88  GLU88      -0.2457
     47  OE2       12.2640  -13.1820   -2.9570 O.co2  88  GLU88      -0.2457
     48  N          5.9630  -10.8050   -3.2980 N.am   89  GLY89      -0.1940
     49  CA         5.0240   -9.9480   -2.5740 C.3    89  GLY89       0.2014
     50  C          4.9670  -10.4750   -1.1420 C.2    89  GLY89       0.2639
     51  O          5.5820  -11.4890   -0.8320 O.2    89  GLY89      -0.2714
     52  N          4.1850   -9.8490   -0.2760 N.am   90  CYS90      -0.1953
     53  CA         4.0680  -10.3040    1.0710 C.3    90  CYS90       0.1843
     54  C          2.6590   -9.9070    1.5730 C.2    90  CYS90       0.2625
     55  O          2.2440   -8.7340    1.4430 O.2    90  CYS90      -0.2714
     56  CB         5.1710   -9.6210    1.8810 C.3    90  CYS90       0.0997
     57  SG         5.3180  -10.0080    3.6440 S.3    90  CYS90      -0.0797
     58  N          1.9530  -10.8370    2.2200 N.am   91  LEU91      -0.1977
     59  CA         0.6440  -10.4920    2.8550 C.3    91  LEU91       0.1596
     60  C          0.6880   -9.3570    3.8860 C.2    91  LEU91       0.2287
     61  O         -0.3290   -8.7270    4.1080 O.2    91  LEU91      -0.2864
     62  CB        -0.0280  -11.7110    3.4810 C.3    91  LEU91       0.0297
     63  CG        -0.0980  -12.8610    2.5060 C.3    91  LEU91       0.0022
     64  CD1       -0.4320  -14.1990    3.2170 C.3    91  LEU91       0.0001
     65  CD2       -1.0780  -12.4570    1.4040 C.3    91  LEU91       0.0001
     66  N         11.7340  -21.2640   -7.1430 N.3   125  PHE125     -0.1241
     67  CA        10.6490  -20.6540   -6.4180 C.3   125  PHE125      0.1605
     68  C         10.3980  -21.3090   -5.0340 C.2   125  PHE125      0.2264
     69  O         10.1970  -20.6060   -4.0320 O.2   125  PHE125     -0.2867
     70  CB         9.3970  -20.6210   -7.2900 C.3   125  PHE125      0.0534
     71  CG         8.3020  -19.8050   -6.7010 C.ar  125  PHE125     -0.0203
     72  CD1        8.3970  -18.3960   -6.6570 C.ar  125  PHE125     -0.0042
     73  CD2        7.1370  -20.4190   -6.1890 C.ar  125  PHE125     -0.0042
     74  CE1        7.3520  -17.6220   -6.1070 C.ar  125  PHE125     -0.0003
     75  CE2        6.1150  -19.6350   -5.6290 C.ar  125  PHE125     -0.0003
     76  CZ         6.2300  -18.2490   -5.5620 C.ar  125  PHE125     -0.0000
     77  N         12.9840  -19.8440   -2.8770 N.3   128  ARG128     -0.1231
     78  CA        12.7340  -18.3880   -2.6630 C.3   128  ARG128      0.1694
     79  C         11.6800  -18.1860   -1.5650 C.2   128  ARG128      0.2591
     80  O         11.8480  -17.3540   -0.6300 O.2   128  ARG128     -0.2718
     81  CB        12.2870  -17.7100   -3.9920 C.3   128  ARG128      0.0321
     82  CG        11.4920  -16.4140   -3.8630 C.3   128  ARG128      0.0489
     83  CD        11.1560  -15.8690   -5.2500 C.3   128  ARG128      0.2205
     84  NE        12.2950  -15.9670   -6.1650 N.pl3 128  ARG128     -0.0865
     85  CZ        13.2840  -15.0530   -6.3010 C.cat 128  ARG128      0.5346
     86  NH1       13.2860  -13.9020   -5.5900 N.pl3 128  ARG128      0.1354
     87  NH2       14.2890  -15.2860   -7.1720 N.pl3 128  ARG128      0.1354
     88  N         10.6100  -18.9700   -1.6590 N.am  129  VAL129     -0.1980
     89  CA         9.5700  -18.9310   -0.6420 C.3   129  VAL129      0.1595
     90  C         10.1370  -19.1720    0.7510 C.2   129  VAL129      0.2287
     91  O          9.8590  -18.3740    1.6930 O.2   129  VAL129     -0.2864
     92  CB         8.3850  -19.9020   -0.9270 C.3   129  VAL129      0.0276
     93  CG1        7.4350  -19.8620    0.2680 C.3   129  VAL129      0.0022
     94  CG2        7.6260  -19.4810   -2.1920 C.3   129  VAL129      0.0022
     95  N         12.2800  -16.2790    1.9620 N.3   132  HIS132     -0.1226
     96  CA        11.4290  -15.1220    2.2900 C.3   132  HIS132      0.1752
     97  C         10.7670  -15.3530    3.6590 C.2   132  HIS132      0.2595
     98  O         10.7460  -14.4300    4.4870 O.2   132  HIS132     -0.2718
     99  CB        10.3970  -14.8950    1.1520 C.3   132  HIS132      0.0759
    100  CG         9.3470  -13.8690    1.4360 C.ar  132  HIS132      0.0818
    101  ND1        9.1110  -12.7860    0.5970 N.ar  132  HIS132     -0.2268
    102  CD2        8.4280  -13.7780    2.4280 C.ar  132  HIS132      0.1154
    103  CE1        8.1160  -12.0590    1.0840 C.ar  132  HIS132      0.1986
    104  NE2        7.6780  -12.6420    2.1870 N.ar  132  HIS132     -0.2212
    105  N         10.2400  -16.5750    3.8820 N.am  133  GLU133     -0.1979
    106  CA         9.5580  -16.9060    5.1680 C.3   133  GLU133      0.1602
    107  C         10.5630  -16.8880    6.2940 C.2   133  GLU133      0.2287
    108  O         10.2860  -16.3320    7.3570 O.2   133  GLU133     -0.2864
    109  CB         8.8010  -18.2470    5.0950 C.3   133  GLU133      0.0415
    110  CG         7.5950  -18.2090    4.1480 C.3   133  GLU133      0.1163
    111  CD         6.7870  -16.9100    4.3310 C.2   133  GLU133      0.3649
    112  OE1        6.6050  -16.4910    5.4870 O.co2 133  GLU133     -0.2457
    113  OE2        6.3470  -16.2810    3.3480 O.co2 133  GLU133     -0.2457
@<TRIPOS>BOND
     1    33    34   ar
     2    33    31   ar
     3    36    34   ar
     4    36    38   ar
     5    34    32   ar
     6    31    30   ar
     7    38    37   ar
     8    32    30   ar
     9    32    35   ar
    10    30    29    1
    11    37    35   ar
    12    29    26    1
    13    25    26    1
    14    26    27    1
    15    70    71    1
    16    70    67    1
    17    87    85    1
    18    66    67    1
    19    71    72   ar
    20    71    73   ar
    21    27    28    2
    22    27    39   am
    23    72    74   ar
    24    67    68    1
    25    85    84    2
    26    85    86    1
    27    73    75   ar
    28    84    83    1
    29    74    76   ar
    30    39    40    1
    31    75    76   ar
    32    83    82    1
    33    68    69    2
    34    40    41    1
    35    40    43    1
    36    42    41    2
    37    41    48   am
    38    81    82    1
    39    81    78    1
    40    44    43    1
    41    44    45    1
    42    48    49    1
    43    10     9    1
    44    47    45   ar
    45    77    78    1
    46    78    79    1
    47    45    46   ar
    48    49    50    1
    49    94    92    1
    50    11     9    1
    51     9     6    1
    52    88    79   am
    53    88    89    1
    54    79    80    2
    55    50    51    2
    56    50    52   am
    57    92    89    1
    58    92    93    1
    59     6     5    1
    60     6     7    1
    61    89    90    1
    62     5     3   am
    63     4     3    2
    64     3     2    1
    65    52    53    1
    66     1     2    1
    67     7     8    2
    68     7    12   am
    69   101   103   ar
    70   101   100   ar
    71    90    91    2
    72    53    54    1
    73    53    56    1
    74   103   104   ar
    75    99   100    1
    76    99    96    1
    77    12    13    1
    78    65    63    1
    79   100   102   ar
    80    55    54    2
    81    54    58   am
    82    56    57    1
    83    95    96    1
    84   104   102   ar
    85    58    59    1
    86    96    97    1
    87    63    64    1
    88    63    62    1
    89    13    14    1
    90    59    62    1
    91    59    60    1
    92    15    14    2
    93   113   111   ar
    94    97   105   am
    95    97    98    2
    96   105   106    1
    97    60    61    2
    98   110   111    1
    99   110   109    1
   100   111   112   ar
   101   109   106    1
   102   106   107    1
   103    24    22   am
   104   107   108    2
   105    23    22    2
   106    22    21    1
   107    21    20    1
   108    20    17    1
   109    17    18    1
   110    17    16    1
   111    19    18    2
