@<TRIPOS>MOLECULE
tmp/5cxoB01.pdb
 175 162 0 0 0
SMALL
GASTEIGER

@<TRIPOS>ATOM
      1  N         23.5360    3.2350  -22.0600 N.3    14  TYR14      -0.1227
      2  CA        23.3530    2.1010  -21.1910 C.3    14  TYR14       0.1736
      3  C         22.8270    0.8540  -21.9150 C.2    14  TYR14       0.2595
      4  O         23.3570   -0.2730  -21.7790 O.2    14  TYR14      -0.2718
      5  CB        22.4280    2.4260  -19.9930 C.3    14  TYR14       0.0548
      6  CG        21.9980    1.2310  -19.2600 C.ar   14  TYR14      -0.0200
      7  CD1       22.8620    0.6220  -18.3570 C.ar   14  TYR14      -0.0009
      8  CD2       20.7370    0.6630  -19.4780 C.ar   14  TYR14      -0.0009
      9  CE1       22.4900   -0.5040  -17.6930 C.ar   14  TYR14       0.0417
     10  CE2       20.3480   -0.4650  -18.8260 C.ar   14  TYR14       0.0417
     11  CZ        21.2250   -1.0450  -17.9310 C.ar   14  TYR14       0.1957
     12  OH        20.8770   -2.1470  -17.2120 O.3    14  TYR14      -0.2866
     13  N         21.7800    1.0380  -22.7230 N.am   15  PHE15      -0.1976
     14  CA        21.2340   -0.1590  -23.4010 C.3    15  PHE15       0.1639
     15  C         22.2520   -0.6980  -24.4800 C.2    15  PHE15       0.2290
     16  O         22.3750   -1.8830  -24.6350 O.2    15  PHE15      -0.2864
     17  CB        19.8770    0.2510  -24.0310 C.3    15  PHE15       0.0560
     18  CG        18.7600    0.3870  -22.9930 C.ar   15  PHE15      -0.0200
     19  CD1       18.5370   -0.5850  -22.1310 C.ar   15  PHE15      -0.0042
     20  CD2       17.9650    1.5090  -23.0050 C.ar   15  PHE15      -0.0042
     21  CE1       17.5160   -0.5160  -21.1640 C.ar   15  PHE15      -0.0003
     22  CE2       16.9240    1.6100  -22.0680 C.ar   15  PHE15      -0.0003
     23  CZ        16.7110    0.6110  -21.1520 C.ar   15  PHE15      -0.0000
     24  N         24.7700   -2.6610  -22.6280 N.3    18  VAL18      -0.1245
     25  CA        24.2500   -3.9180  -22.1590 C.3    18  VAL18       0.1561
     26  C         24.2920   -4.9530  -23.3060 C.2    18  VAL18       0.2260
     27  O         24.6320   -6.0790  -23.0800 O.2    18  VAL18      -0.2867
     28  CB        22.7850   -3.8440  -21.5780 C.3    18  VAL18       0.0252
     29  CG1       22.2120   -5.2530  -21.3670 C.3    18  VAL18       0.0019
     30  CG2       22.7540   -3.1400  -20.2290 C.3    18  VAL18       0.0019
     31  N         15.1910   -5.2790   -9.4580 N.3    38  ASP38      -0.1239
     32  CA        14.7130   -6.0030  -10.6340 C.3    38  ASP38       0.1674
     33  C         14.4670   -7.4480  -10.2240 C.2    38  ASP38       0.2266
     34  O         15.4400   -8.1900  -10.0470 O.2    38  ASP38      -0.2867
     35  CB        15.7990   -5.9330  -11.7110 C.3    38  ASP38       0.1410
     36  CG        15.4810   -6.8510  -12.9580 C.2    38  ASP38       0.3668
     37  OD1       14.5230   -7.6160  -12.8860 O.co2  38  ASP38      -0.2456
     38  OD2       16.2600   -6.8020  -13.9080 O.co2  38  ASP38      -0.2456
     39  N         19.0040   -4.9010   -4.8890 N.3    45  ARG45      -0.1245
     40  CA        20.4860   -4.8610   -4.9130 C.3    45  ARG45       0.1563
     41  C         20.9960   -3.4930   -4.6380 C.2    45  ARG45       0.2260
     42  O         20.3910   -2.5020   -5.0460 O.2    45  ARG45      -0.2867
     43  CB        21.1050   -5.2680   -6.2630 C.3    45  ARG45       0.0307
     44  CG        20.7190   -6.6350   -6.7420 C.3    45  ARG45       0.0489
     45  CD        20.9660   -6.7410   -8.2500 C.3    45  ARG45       0.2205
     46  NE        20.8560   -8.1310   -8.6770 N.pl3  45  ARG45      -0.0865
     47  CZ        19.7260   -8.7720   -8.9660 C.cat  45  ARG45       0.5346
     48  NH1       18.5550   -8.1470   -8.9140 N.pl3  45  ARG45       0.1354
     49  NH2       19.7670  -10.0520   -9.3570 N.pl3  45  ARG45       0.1354
     50  N         27.3300   -8.9350   -9.7940 N.3    53  GLU53      -0.1231
     51  CA        26.5360  -10.1560   -9.7970 C.3    53  GLU53       0.1699
     52  C         25.5150   -9.8870  -10.9560 C.2    53  GLU53       0.2592
     53  O         25.4430  -10.6610  -11.9240 O.2    53  GLU53      -0.2718
     54  CB        25.8400  -10.4390   -8.4260 C.3    53  GLU53       0.0402
     55  CG        25.1880  -11.8180   -8.3140 C.3    53  GLU53       0.1161
     56  CD        23.9100  -11.9790   -9.1730 C.2    53  GLU53       0.3649
     57  OE1       23.1310  -10.9930   -9.3640 O.co2  53  GLU53      -0.2457
     58  OE2       23.6730  -13.1140   -9.6630 O.co2  53  GLU53      -0.2457
     59  N         24.8180   -8.7420  -10.8870 N.am   54  TYR54      -0.1976
     60  CA        23.7540   -8.4050  -11.8560 C.3    54  TYR54       0.1639
     61  C         24.1670   -8.4580  -13.3290 C.2    54  TYR54       0.2290
     62  O         23.5420   -9.1830  -14.1360 O.2    54  TYR54      -0.2864
     63  CB        23.2110   -7.0210  -11.5810 C.3    54  TYR54       0.0560
     64  CG        21.9200   -6.6920  -12.3560 C.ar   54  TYR54      -0.0198
     65  CD1       20.7410   -7.4100  -12.1380 C.ar   54  TYR54      -0.0009
     66  CD2       21.9040   -5.6530  -13.2730 C.ar   54  TYR54      -0.0009
     67  CE1       19.5570   -7.0930  -12.8270 C.ar   54  TYR54       0.0417
     68  CE2       20.7360   -5.3070  -13.9470 C.ar   54  TYR54       0.0417
     69  CZ        19.5800   -6.0550  -13.7300 C.ar   54  TYR54       0.1957
     70  OH        18.4320   -5.7260  -14.3580 O.3    54  TYR54      -0.2866
     71  N         25.3330  -11.9270  -14.6810 N.3    57  SER57      -0.1202
     72  CA        24.3000  -12.9100  -14.9940 C.3    57  SER57       0.2020
     73  C         23.4860  -12.5250  -16.2100 C.2    57  SER57       0.2618
     74  O         22.9970  -13.4010  -16.8610 O.2    57  SER57      -0.2717
     75  CB        23.3610  -13.1490  -13.8350 C.3    57  SER57       0.2103
     76  OG        23.0460  -11.9230  -13.2130 O.3    57  SER57      -0.2182
     77  N         23.3060  -11.2250  -16.4700 N.am   58  ASN58      -0.1974
     78  CA        22.6840  -10.7930  -17.7500 C.3    58  ASN58       0.1688
     79  C         23.5070  -11.2820  -18.9240 C.2    58  ASN58       0.2292
     80  O         22.9710  -11.8890  -19.8360 O.2    58  ASN58      -0.2864
     81  CB        22.5860   -9.2600  -17.9050 C.3    58  ASN58       0.1181
     82  CG        21.4550   -8.6470  -17.1350 C.2    58  ASN58       0.2629
     83  OD1       20.4060   -9.2330  -16.9410 O.2    58  ASN58      -0.2716
     84  ND2       21.6570   -7.4070  -16.7320 N.am   58  ASN58      -0.0877
     85  N         23.0910  -14.9500  -19.2330 N.3    61  ALA61      -0.1245
     86  CA        21.7350  -15.1910  -19.7720 C.3    61  ALA61       0.1562
     87  C         21.5380  -14.8240  -21.2340 C.2    61  ALA61       0.2260
     88  O         20.4400  -14.9910  -21.7800 O.2    61  ALA61      -0.2867
     89  CB        20.6880  -14.4740  -18.9350 C.3    61  ALA61       0.0290
     90  N         21.4180  -11.8260  -22.5530 N.3    63  VAL63      -0.1245
     91  CA        20.3140  -10.8030  -22.6050 C.3    63  VAL63       0.1561
     92  C         20.5310   -9.8560  -23.7630 C.2    63  VAL63       0.2260
     93  O         21.6650   -9.4470  -24.0510 O.2    63  VAL63      -0.2867
     94  CB        20.2260  -10.0900  -21.2730 C.3    63  VAL63       0.0252
     95  CG1       19.4920   -8.7440  -21.3530 C.3    63  VAL63       0.0019
     96  CG2       19.6230  -11.0100  -20.2430 C.3    63  VAL63       0.0019
     97  N         18.4400   -6.2880  -25.3030 N.3    65  ILE65      -0.1245
     98  CA        17.3590   -5.3850  -24.9090 C.3    65  ILE65       0.1561
     99  C         16.9730   -4.6080  -26.1260 C.2    65  ILE65       0.2260
    100  O         17.8160   -4.0870  -26.8660 O.2    65  ILE65      -0.2867
    101  CB        17.7950   -4.3440  -23.8240 C.3    65  ILE65       0.0252
    102  CG1       18.2550   -4.9900  -22.5160 C.3    65  ILE65       0.0019
    103  CG2       16.6280   -3.3330  -23.6140 C.3    65  ILE65       0.0019
    104  CD1       17.3250   -5.9920  -21.8820 C.3    65  ILE65       0.0001
    105  N         10.5270   -1.7050  -22.5570 N.3    83  LEU83      -0.1245
    106  CA        11.4940   -2.4370  -23.4090 C.3    83  LEU83       0.1561
    107  C         11.1090   -3.8640  -23.5710 C.2    83  LEU83       0.2260
    108  O         10.3450   -4.4130  -22.7980 O.2    83  LEU83      -0.2867
    109  CB        12.9650   -2.2750  -22.8650 C.3    83  LEU83       0.0270
    110  CG        13.0570   -2.7550  -21.4010 C.3    83  LEU83       0.0019
    111  CD1       13.4130   -4.2290  -21.3450 C.3    83  LEU83       0.0001
    112  CD2       14.1650   -2.0210  -20.6700 C.3    83  LEU83       0.0001
    113  N         13.1100   -7.4750  -23.3650 N.3    85  ALA85      -0.1245
    114  CA        14.3940   -8.1330  -23.0140 C.3    85  ALA85       0.1562
    115  C         14.2640   -9.5400  -23.4140 C.2    85  ALA85       0.2260
    116  O         13.2690  -10.1940  -23.0850 O.2    85  ALA85      -0.2867
    117  CB        14.7270   -8.0320  -21.4930 C.3    85  ALA85       0.0290
    118  N         16.2550  -13.3860  -23.5510 N.3    87  MET87      -0.1245
    119  CA        17.3490  -14.1740  -22.9120 C.3    87  MET87       0.1570
    120  C         17.1800  -15.6260  -23.1770 C.2    87  MET87       0.2261
    121  O         16.1420  -16.1130  -23.6680 O.2    87  MET87      -0.2867
    122  CB        17.2840  -14.0220  -21.3840 C.3    87  MET87       0.0387
    123  CG        16.0480  -14.6790  -20.7600 C.3    87  MET87       0.0595
    124  SD        15.4890  -13.7380  -19.3370 S.3    87  MET87      -0.1393
    125  CE        15.1420  -12.1380  -20.1240 C.3    87  MET87       0.0692
    126  N         10.8620  -10.8430  -22.0050 N.3   100  ILE100     -0.1245
    127  CA        10.0950  -10.2300  -20.9260 C.3   100  ILE100      0.1561
    128  C          9.7760   -8.7590  -21.3540 C.2   100  ILE100      0.2260
    129  O         10.6680   -8.0060  -21.7730 O.2   100  ILE100     -0.2867
    130  CB        10.9580  -10.1590  -19.6700 C.3   100  ILE100      0.0252
    131  CG1       11.1670  -11.6110  -19.2000 C.3   100  ILE100      0.0019
    132  CG2       10.2440   -9.4160  -18.5310 C.3   100  ILE100      0.0019
    133  CD1       12.2400  -11.6940  -18.1380 C.3   100  ILE100      0.0001
    134  N          9.1000   -5.3220  -20.0790 N.3   102  ALA102     -0.1245
    135  CA         9.3790   -4.6530  -18.8080 C.3   102  ALA102      0.1562
    136  C          9.3290   -3.1450  -18.9930 C.2   102  ALA102      0.2260
    137  O          9.4810   -2.6110  -20.1120 O.2   102  ALA102     -0.2867
    138  CB        10.7810   -5.0670  -18.4040 C.3   102  ALA102      0.0290
    139  N         11.6320    0.0760  -17.5000 N.3   104  ASP104     -0.1239
    140  CA        12.7740    0.5300  -16.6510 C.3   104  ASP104      0.1674
    141  C         12.4800    1.9390  -16.2170 C.2   104  ASP104      0.2266
    142  O         12.1570    2.7850  -17.0330 O.2   104  ASP104     -0.2867
    143  CB        14.1190    0.4820  -17.4050 C.3   104  ASP104      0.1410
    144  CG        14.6710   -0.8620  -17.4880 C.2   104  ASP104      0.3668
    145  OD1       14.0400   -1.8230  -17.0510 O.co2 104  ASP104     -0.2456
    146  OD2       15.8030   -0.9670  -17.9960 O.co2 104  ASP104     -0.2456
    147  N         17.7920    2.1200  -10.4610 N.3   117  MET117     -0.1245
    148  CA        17.0330    1.4470  -11.5440 C.3   117  MET117      0.1570
    149  C         16.0160    0.4990  -10.9350 C.2   117  MET117      0.2261
    150  O         16.3190   -0.3010  -10.0050 O.2   117  MET117     -0.2867
    151  CB        18.0540    0.8810  -12.5750 C.3   117  MET117      0.0387
    152  CG        17.4650    0.0910  -13.7370 C.3   117  MET117      0.0595
    153  SD        18.7330   -0.9160  -14.6010 S.3   117  MET117     -0.1393
    154  CE        19.6320    0.3040  -15.4440 C.3   117  MET117      0.0692
    155  N         13.0110   -2.0650  -12.3130 N.3   119  VAL119     -0.1245
    156  CA        12.6520   -2.7520  -13.5510 C.3   119  VAL119      0.1561
    157  C         11.3030   -3.3900  -13.1880 C.2   119  VAL119      0.2260
    158  O         11.2320   -4.2780  -12.3330 O.2   119  VAL119     -0.2867
    159  CB        13.6990   -3.8120  -13.9250 C.3   119  VAL119      0.0252
    160  CG1       13.3700   -4.5160  -15.2530 C.3   119  VAL119      0.0019
    161  CG2       15.1430   -3.2470  -13.9490 C.3   119  VAL119      0.0019
    162  N          8.5090   -5.8730  -14.0790 N.3   121  TRP121     -0.1241
    163  CA         8.0200   -6.9980  -14.9220 C.3   121  TRP121      0.1605
    164  C          7.5000   -8.1100  -13.9520 C.2   121  TRP121      0.2264
    165  O          8.0080   -8.2580  -12.7930 O.2   121  TRP121     -0.2867
    166  CB         9.1490   -7.5010  -15.8620 C.3   121  TRP121      0.0550
    167  CG        10.3620   -8.1850  -15.1420 C.ar  121  TRP121      0.0003
    168  CD1       11.5230   -7.5970  -14.7180 C.ar  121  TRP121      0.0946
    169  CD2       10.4390   -9.5840  -14.7420 C.ar  121  TRP121      0.0152
    170  NE1       12.3440   -8.5530  -14.1030 N.ar  121  TRP121     -0.2442
    171  CE2       11.6760   -9.7560  -14.0720 C.ar  121  TRP121      0.0810
    172  CE3        9.5650  -10.6860  -14.8680 C.ar  121  TRP121      0.0012
    173  CZ2       12.0870  -11.0290  -13.5680 C.ar  121  TRP121      0.0191
    174  CZ3        9.9370  -11.9440  -14.3230 C.ar  121  TRP121      0.0001
    175  CH2       11.2110  -12.0840  -13.6950 C.ar  121  TRP121      0.0015
@<TRIPOS>BOND
     1   100    99    2
     2    99    98    1
     3    97    98    1
     4    98   101    1
     5    16    15    2
     6    15    14    1
     7    93    92    2
     8    17    14    1
     9    17    18    1
    10   101   103    1
    11   101   102    1
    12    92    91    1
    13   121   120    2
    14   107   106    1
    15   107   108    2
    16   118   119    1
    17   115   116    2
    18   115   114    1
    19   106   109    1
    20   106   105    1
    21    14    13    1
    22   113   114    1
    23    26    27    2
    24    26    25    1
    25   120   119    1
    26   114   117    1
    27    20    18   ar
    28    20    22   ar
    29    18    19   ar
    30   119   122    1
    31   109   110    1
    32    13     3   am
    33    24    25    1
    34    91    90    1
    35    91    94    1
    36   102   104    1
    37    25    28    1
    38    19    21   ar
    39    22    23   ar
    40     1     2    1
    41   126   127    1
    42     3     4    2
    43     3     2    1
    44    88    87    2
    45   129   128    2
    46    28    29    1
    47    28    30    1
    48   110   111    1
    49   110   112    1
    50   122   123    1
    51   128   127    1
    52    95    94    1
    53    94    96    1
    54    87    86    1
    55     2     5    1
    56    21    23   ar
    57   127   130    1
    58   123   124    1
    59   125   124    1
    60   137   136    2
    61   134   135    1
    62     5     6    1
    63    80    79    2
    64    86    85    1
    65    86    89    1
    66   130   131    1
    67   130   132    1
    68     8     6   ar
    69     8    10   ar
    70     6     7   ar
    71   131   133    1
    72   136   135    1
    73    79    78    1
    74    10    11   ar
    75   135   138    1
    76     7     9   ar
    77   146   144   ar
    78    11     9   ar
    79    11    12    1
    80    81    78    1
    81    81    82    1
    82    78    77    1
    83   139   140    1
    84   144   143    1
    85   144   145   ar
    86   143   140    1
    87    82    83    2
    88    82    84   am
    89   142   141    2
    90    74    73    2
    91   140   141    1
    92    77    73   am
    93    73    72    1
    94   166   167    1
    95   166   163    1
    96   154   153    1
    97   160   159    1
    98   167   169   ar
    99   167   168   ar
   100    72    71    1
   101    72    75    1
   102   163   162    1
   103   163   164    1
   104   172   169   ar
   105   172   174   ar
   106   169   171   ar
   107   168   170   ar
   108   153   152    1
   109    70    69    1
   110   174   175   ar
   111    62    61    2
   112   170   171   ar
   113   171   173   ar
   114   164   165    2
   115   161   159    1
   116    68    69   ar
   117    68    66   ar
   118   159   156    1
   119    38    36   ar
   120    75    76    1
   121   152   151    1
   122    69    67   ar
   123   175   173   ar
   124   156   157    1
   125   156   155    1
   126    61    60    1
   127    66    64   ar
   128   157   158    2
   129    36    37   ar
   130    36    35    1
   131    67    65   ar
   132   151   148    1
   133    64    65   ar
   134    64    63    1
   135    53    52    2
   136    60    63    1
   137    60    59    1
   138    35    32    1
   139   148   149    1
   140   148   147    1
   141    52    59   am
   142    52    51    1
   143   149   150    2
   144    32    33    1
   145    32    31    1
   146    33    34    2
   147    51    50    1
   148    51    54    1
   149    58    56   ar
   150    57    56   ar
   151    49    47    1
   152    56    55    1
   153    47    48    1
   154    47    46    2
   155    46    45    1
   156    54    55    1
   157    45    44    1
   158    44    43    1
   159    43    40    1
   160    42    41    2
   161    40    39    1
   162    40    41    1
