@<TRIPOS>MOLECULE
tmp/5cxoA01.pdb
 166 153 0 0 0
SMALL
GASTEIGER

@<TRIPOS>ATOM
      1  N         -9.0460    1.8580  -16.6490 N.3    14  TYR14      -0.1241
      2  CA        -8.7390    3.3000  -16.5130 C.3    14  TYR14       0.1605
      3  C         -8.4900    3.9930  -17.8350 C.2    14  TYR14       0.2264
      4  O         -9.0640    5.0610  -18.1010 O.2    14  TYR14      -0.2867
      5  CB        -7.5730    3.4830  -15.5410 C.3    14  TYR14       0.0534
      6  CG        -6.9530    4.8240  -15.6080 C.ar   14  TYR14      -0.0201
      7  CD1       -7.5140    5.8640  -14.9090 C.ar   14  TYR14      -0.0009
      8  CD2       -5.8500    5.0740  -16.4510 C.ar   14  TYR14      -0.0009
      9  CE1       -6.9830    7.1520  -14.9790 C.ar   14  TYR14       0.0417
     10  CE2       -5.2660    6.3220  -16.5190 C.ar   14  TYR14       0.0417
     11  CZ        -5.8150    7.3470  -15.8050 C.ar   14  TYR14       0.1957
     12  OH        -5.3060    8.6130  -15.8250 O.3    14  TYR14      -0.2866
     13  N        -10.6120    6.9700  -19.5370 N.3    18  VAL18      -0.1245
     14  CA       -10.0660    8.2780  -19.9450 C.3    18  VAL18       0.1561
     15  C        -10.5860    8.5870  -21.3540 C.2    18  VAL18       0.2260
     16  O        -11.0710    9.7010  -21.6250 O.2    18  VAL18      -0.2867
     17  CB        -8.5010    8.2820  -19.8860 C.3    18  VAL18       0.0252
     18  CG1       -7.9770    9.5760  -20.4610 C.3    18  VAL18       0.0019
     19  CG2       -7.9920    8.0740  -18.4590 C.3    18  VAL18       0.0019
     20  N          2.0320   14.4090  -12.0450 N.3    38  ASP38      -0.1239
     21  CA         2.0230   14.5180  -13.5320 C.3    38  ASP38       0.1674
     22  C          2.3320   16.0030  -13.9160 C.2    38  ASP38       0.2266
     23  O          1.4310   16.8500  -13.7480 O.2    38  ASP38      -0.2867
     24  CB         0.7020   14.0240  -14.1360 C.3    38  ASP38       0.1410
     25  CG         0.6500   14.1820  -15.6720 C.2    38  ASP38       0.3668
     26  OD1        1.5760   14.8290  -16.2630 O.co2  38  ASP38      -0.2456
     27  OD2       -0.3230   13.7540  -16.3100 O.co2  38  ASP38      -0.2456
     28  N         -0.5360   16.0620   -6.9090 N.3    45  ARG45      -0.1245
     29  CA        -1.9350   16.3080   -6.7310 C.3    45  ARG45       0.1563
     30  C         -2.4430   15.2510   -5.7140 C.2    45  ARG45       0.2260
     31  O         -2.0510   14.0630   -5.7420 O.2    45  ARG45      -0.2867
     32  CB        -2.6540   16.2750   -8.0680 C.3    45  ARG45       0.0307
     33  CG        -2.1700   17.2910   -9.1310 C.3    45  ARG45       0.0489
     34  CD        -3.0160   17.0340  -10.3890 C.3    45  ARG45       0.2205
     35  NE        -2.9620   17.9820  -11.5320 N.pl3  45  ARG45      -0.0865
     36  CZ        -1.9010   18.1280  -12.3270 C.cat  45  ARG45       0.5346
     37  NH1       -0.7640   17.4550  -12.0650 N.pl3  45  ARG45       0.1354
     38  NH2       -1.9630   18.9770  -13.3470 N.pl3  45  ARG45       0.1354
     39  N         -7.8770   17.5040  -12.2820 N.3    54  TYR54      -0.1227
     40  CA        -6.9030   16.9200  -13.2350 C.3    54  TYR54       0.1736
     41  C         -7.7020   16.1670  -14.3130 C.2    54  TYR54       0.2595
     42  O         -7.5180   16.3560  -15.5130 O.2    54  TYR54      -0.2718
     43  CB        -5.9630   16.0630  -12.4000 C.3    54  TYR54       0.0548
     44  CG        -5.0710   15.1140  -13.2070 C.ar   54  TYR54      -0.0200
     45  CD1       -3.8590   15.5970  -13.7620 C.ar   54  TYR54      -0.0009
     46  CD2       -5.4700   13.8050  -13.4930 C.ar   54  TYR54      -0.0009
     47  CE1       -2.9990   14.7730  -14.4850 C.ar   54  TYR54       0.0417
     48  CE2       -4.5860   12.9370  -14.2220 C.ar   54  TYR54       0.0417
     49  CZ        -3.3400   13.4420  -14.7060 C.ar   54  TYR54       0.1957
     50  OH        -2.4490   12.6800  -15.4660 O.3    54  TYR54      -0.2866
     51  N         -8.6890   15.3530  -13.9500 N.am   55  PHE55      -0.1976
     52  CA        -9.3930   14.6850  -14.9930 C.3    55  PHE55       0.1639
     53  C        -10.2930   15.5710  -15.8710 C.2    55  PHE55       0.2290
     54  O        -10.5400   15.2660  -17.0590 O.2    55  PHE55      -0.2864
     55  CB       -10.0940   13.4220  -14.4490 C.3    55  PHE55       0.0560
     56  CG        -9.1230   12.3830  -14.1030 C.ar   55  PHE55      -0.0200
     57  CD1       -8.3520   11.8180  -15.1290 C.ar   55  PHE55      -0.0042
     58  CD2       -8.8490   12.0730  -12.8310 C.ar   55  PHE55      -0.0042
     59  CE1       -7.3850   10.9180  -14.8440 C.ar   55  PHE55      -0.0003
     60  CE2       -7.9120   11.1200  -12.5350 C.ar   55  PHE55      -0.0003
     61  CZ        -7.1560   10.5640  -13.5440 C.ar   55  PHE55      -0.0000
     62  N         -9.4990   18.5680  -16.6290 N.3    57  SER57      -0.1202
     63  CA        -8.4730   19.1890  -17.5510 C.3    57  SER57       0.2020
     64  C         -8.1580   18.2120  -18.7210 C.2    57  SER57       0.2618
     65  O         -8.2030   18.6000  -19.8570 O.2    57  SER57      -0.2717
     66  CB        -7.2520   19.6500  -16.7710 C.3    57  SER57       0.2103
     67  OG        -6.2660   20.1140  -17.6640 O.3    57  SER57      -0.2182
     68  N         -8.0060   16.9320  -18.4500 N.am   58  ASN58      -0.1974
     69  CA        -7.7540   15.9040  -19.4880 C.3    58  ASN58       0.1688
     70  C         -8.9200   15.7240  -20.4440 C.2    58  ASN58       0.2292
     71  O         -8.7080   15.6680  -21.6870 O.2    58  ASN58      -0.2864
     72  CB        -7.3570   14.5300  -18.7890 C.3    58  ASN58       0.1181
     73  CG        -5.9030   14.4670  -18.4450 C.2    58  ASN58       0.2629
     74  OD1       -5.1040   14.1540  -19.2840 O.2    58  ASN58      -0.2716
     75  ND2       -5.5530   14.7700  -17.2240 N.am   58  ASN58      -0.0877
     76  N         -9.1680   18.7270  -22.5950 N.3    61  ALA61      -0.1245
     77  CA        -8.1240   18.6590  -23.6170 C.3    61  ALA61       0.1562
     78  C         -8.3480   17.5240  -24.6170 C.2    61  ALA61       0.2260
     79  O         -7.4960   17.2730  -25.4790 O.2    61  ALA61      -0.2867
     80  CB        -6.7450   18.5800  -22.9520 C.3    61  ALA61       0.0290
     81  N         -8.1360   14.4280  -24.4280 N.3    63  VAL63      -0.1301
     82  CA        -7.0570   13.4220  -24.4180 C.3    63  VAL63       0.1246
     83  C         -7.5320   12.0950  -24.9990 C.3    63  VAL63       0.2009
     84  O         -8.6890   11.5780  -24.6740 O.3    63  VAL63      -0.2188
     85  CB        -6.4920   13.2470  -23.0130 C.3    63  VAL63       0.0202
     86  CG1       -5.6000   12.0100  -22.9120 C.3    63  VAL63       0.0016
     87  CG2       -5.7260   14.4970  -22.6140 C.3    63  VAL63       0.0016
     88  N         -5.7520    8.1120  -25.2540 N.3    65  ILE65      -0.1245
     89  CA        -4.4900    7.3860  -24.8700 C.3    65  ILE65       0.1561
     90  C         -4.4210    6.1030  -25.6060 C.2    65  ILE65       0.2260
     91  O         -5.4570    5.4410  -25.7220 O.2    65  ILE65      -0.2867
     92  CB        -4.4820    7.0880  -23.3800 C.3    65  ILE65       0.0252
     93  CG1       -4.5630    8.4270  -22.6070 C.3    65  ILE65       0.0019
     94  CG2       -3.2090    6.2920  -23.0310 C.3    65  ILE65       0.0019
     95  CD1       -4.2050    8.4280  -21.1580 C.3    65  ILE65       0.0001
     96  N          2.8300    4.8660  -22.9810 N.3    83  LEU83      -0.1245
     97  CA         1.6490    5.2440  -23.6700 C.3    83  LEU83       0.1561
     98  C          1.8910    6.3620  -24.6600 C.2    83  LEU83       0.2260
     99  O          2.8120    7.1850  -24.4950 O.2    83  LEU83      -0.2867
    100  CB         0.5750    5.5710  -22.7050 C.3    83  LEU83       0.0270
    101  CG         0.9020    6.6950  -21.7760 C.3    83  LEU83       0.0019
    102  CD1        0.2850    7.9320  -22.3890 C.3    83  LEU83       0.0001
    103  CD2        0.2340    6.2950  -20.4930 C.3    83  LEU83       0.0001
    104  N         -0.1030    9.6370  -25.7310 N.3    85  ALA85      -0.1245
    105  CA        -1.3130   10.4330  -25.3750 C.3    85  ALA85       0.1562
    106  C         -1.4120   11.4330  -26.5090 C.2    85  ALA85       0.2260
    107  O         -0.3620   11.8520  -27.0670 O.2    85  ALA85      -0.2867
    108  CB        -1.1250   11.0890  -24.0290 C.3    85  ALA85       0.0290
    109  N         -3.5740   15.1490  -27.4060 N.3    87  MET87      -0.1245
    110  CA        -4.4570   16.0540  -26.6960 C.3    87  MET87       0.1570
    111  C         -4.3900   17.3650  -27.3930 C.2    87  MET87       0.2261
    112  O         -3.4710   17.6010  -28.1810 O.2    87  MET87      -0.2867
    113  CB        -3.8990   16.3470  -25.3270 C.3    87  MET87       0.0387
    114  CG        -2.4720   16.7810  -25.4680 C.3    87  MET87       0.0595
    115  SD        -1.7870   17.0840  -23.8830 S.3    87  MET87      -0.1393
    116  CE        -1.8020   18.8950  -23.9740 C.3    87  MET87       0.0692
    117  N          2.0960   13.1250  -26.8440 N.3   100  ILE100     -0.1245
    118  CA         3.1010   13.0380  -25.8260 C.3   100  ILE100      0.1561
    119  C          3.4060   11.5370  -25.5800 C.2   100  ILE100      0.2260
    120  O          2.4880   10.7310  -25.3580 O.2   100  ILE100     -0.2867
    121  CB         2.6130   13.6800  -24.5280 C.3   100  ILE100      0.0252
    122  CG1        2.3060   15.1690  -24.8200 C.3   100  ILE100      0.0019
    123  CG2        3.6500   13.5060  -23.4150 C.3   100  ILE100      0.0019
    124  CD1        1.7960   15.9350  -23.5920 C.3   100  ILE100      0.0001
    125  N          4.6700    9.1100  -23.0690 N.3   102  ALA102     -0.1245
    126  CA         4.8580    9.1270  -21.6330 C.3   102  ALA102      0.1562
    127  C          4.9920    7.7210  -21.0650 C.2   102  ALA102      0.2260
    128  O          4.7390    6.7030  -21.7720 O.2   102  ALA102     -0.2867
    129  CB         3.6180    9.7430  -20.9340 C.3   102  ALA102      0.0290
    130  N          3.5660    5.7020  -17.4870 N.3   104  ASP104     -0.1239
    131  CA         2.6730    5.8460  -16.2600 C.3   104  ASP104      0.1674
    132  C          3.0480    4.7330  -15.3600 C.2   104  ASP104      0.2266
    133  O          3.2340    3.5610  -15.7810 O.2   104  ASP104     -0.2867
    134  CB         1.1990    5.6550  -16.6710 C.3   104  ASP104      0.1410
    135  CG         0.4790    6.9080  -17.1020 C.2   104  ASP104      0.3668
    136  OD1        1.1030    7.9370  -17.3700 O.co2 104  ASP104     -0.2456
    137  OD2       -0.7620    6.8520  -17.3410 O.co2 104  ASP104     -0.2456
    138  N         -0.5530    7.5330   -9.0120 N.3   117  MET117     -0.1245
    139  CA        -0.1530    7.4750  -10.4230 C.3   117  MET117      0.1570
    140  C          0.9620    8.4380  -10.6180 C.2   117  MET117      0.2261
    141  O          0.8660    9.6110  -10.1740 O.2   117  MET117     -0.2867
    142  CB        -1.3120    7.8720  -11.2690 C.3   117  MET117      0.0387
    143  CG        -1.0890    7.6990  -12.7400 C.3   117  MET117      0.0595
    144  SD        -2.5810    8.0580  -13.6900 S.3   117  MET117     -0.1393
    145  CE        -2.9140    9.6910  -13.0230 C.3   117  MET117      0.0692
    146  N          3.4350   10.1240  -13.6720 N.3   119  VAL119     -0.1245
    147  CA         3.4670   10.2170  -15.1430 C.3   119  VAL119      0.1561
    148  C          4.7860   10.8180  -15.5850 C.2   119  VAL119      0.2260
    149  O          5.1290   12.0030  -15.2880 O.2   119  VAL119     -0.2867
    150  CB         2.3000   10.9980  -15.6950 C.3   119  VAL119      0.0252
    151  CG1        2.3210   10.8850  -17.2330 C.3   119  VAL119      0.0019
    152  CG2        0.9480   10.4870  -15.0830 C.3   119  VAL119      0.0019
    153  N          6.8480   12.3800  -18.3580 N.3   121  TRP121     -0.1241
    154  CA         6.9860   12.9350  -19.6850 C.3   121  TRP121      0.1605
    155  C          7.6860   14.2460  -19.5310 C.2   121  TRP121      0.2264
    156  O          7.5200   14.9050  -18.4980 O.2   121  TRP121     -0.2867
    157  CB         5.6370   13.1470  -20.3840 C.3   121  TRP121      0.0550
    158  CG         4.7450   14.2290  -19.6290 C.ar  121  TRP121      0.0003
    159  CD1        3.9080   14.0160  -18.5550 C.ar  121  TRP121      0.0946
    160  CD2        4.7260   15.6460  -19.8750 C.ar  121  TRP121      0.0152
    161  NE1        3.3740   15.1790  -18.1500 N.ar  121  TRP121     -0.2442
    162  CE2        3.8300   16.2090  -18.9440 C.ar  121  TRP121      0.0810
    163  CE3        5.3500   16.4880  -20.8150 C.ar  121  TRP121      0.0012
    164  CZ2        3.5820   17.5590  -18.8890 C.ar  121  TRP121      0.0191
    165  CZ3        5.0860   17.8500  -20.7820 C.ar  121  TRP121      0.0001
    166  CH2        4.1860   18.3860  -19.8410 C.ar  121  TRP121      0.0015
@<TRIPOS>BOND
     1   112   111    2
     2   109   110    1
     3   111   110    1
     4   107   106    2
     5   117   118    1
     6   110   113    1
     7   106   105    1
     8   118   119    1
     9   118   121    1
    10   104   105    1
    11    91    90    2
    12    90    89    1
    13   119   120    2
    14    79    78    2
    15   114   113    1
    16   114   115    1
    17   105   108    1
    18    88    89    1
    19    83    84    1
    20    83    82    1
    21    89    92    1
    22   122   121    1
    23   122   124    1
    24    98    99    2
    25    98    97    1
    26    78    77    1
    27   121   123    1
    28    81    82    1
    29    82    85    1
    30   116   115    1
    31    97    96    1
    32    97   100    1
    33    77    80    1
    34    77    76    1
    35    92    94    1
    36    92    93    1
    37   125   126    1
    38    85    86    1
    39    85    87    1
    40   100   101    1
    41    93    95    1
    42   102   101    1
    43   101   103    1
    44   128   127    2
    45    71    70    2
    46   126   127    1
    47   126   129    1
    48    16    15    2
    49    15    14    1
    50   163   165   ar
    51   163   160   ar
    52   165   166   ar
    53    18    17    1
    54    70    69    1
    55   157   154    1
    56   157   158    1
    57    14    17    1
    58    14    13    1
    59    17    19    1
    60   160   158   ar
    61   160   162   ar
    62    65    64    2
    63   166   164   ar
    64   154   155    1
    65   154   153    1
    66   158   159   ar
    67   155   156    2
    68    69    72    1
    69    69    68    1
    70    74    73    2
    71   162   164   ar
    72   162   161   ar
    73    72    73    1
    74    64    68   am
    75    64    63    1
    76   159   161   ar
    77    73    75   am
    78     4     3    2
    79     3     2    1
    80    67    66    1
    81    63    66    1
    82    63    62    1
    83   130   131    1
    84   136   135   ar
    85   137   135   ar
    86   151   150    1
    87   135   134    1
    88    54    53    2
    89   134   131    1
    90     1     2    1
    91    10     8   ar
    92    10    11   ar
    93     2     5    1
    94     8     6   ar
    95    27    25   ar
    96    26    25   ar
    97   131   132    1
    98    53    52    1
    99    12    11    1
   100    11     9   ar
   101   133   132    2
   102   150   147    1
   103   150   152    1
   104    25    24    1
   105     6     5    1
   106     6     7   ar
   107   148   149    2
   108   148   147    1
   109    42    41    2
   110    50    49    1
   111   147   146    1
   112    57    59   ar
   113    57    56   ar
   114    52    55    1
   115    52    51    1
   116     9     7   ar
   117    59    61   ar
   118    49    47   ar
   119    49    48   ar
   120    47    45   ar
   121    55    56    1
   122    41    51   am
   123    41    40    1
   124    48    46   ar
   125    24    21    1
   126    56    58   ar
   127    22    23    2
   128    22    21    1
   129    45    44   ar
   130   144   145    1
   131   144   143    1
   132    61    60   ar
   133    21    20    1
   134    46    44   ar
   135    38    36    1
   136    40    43    1
   137    40    39    1
   138    44    43    1
   139    58    60   ar
   140   143   142    1
   141    36    37    1
   142    36    35    2
   143    35    34    1
   144   142   139    1
   145   140   139    1
   146   140   141    2
   147   139   138    1
   148    34    33    1
   149    33    32    1
   150    32    29    1
   151    28    29    1
   152    29    30    1
   153    31    30    2
