@<TRIPOS>MOLECULE
tmp/5cxpA00.pdb
 133 134 0 0 0
SMALL
GASTEIGER

@<TRIPOS>ATOM
      1  N          1.0990   18.4730    1.1360 N.3    24  TRP24      -0.1241
      2  CA        -0.2880   18.1130    0.8130 C.3    24  TRP24       0.1605
      3  C         -1.2860   18.4490    1.9480 C.2    24  TRP24       0.2264
      4  O         -2.3560   17.8120    2.0580 O.2    24  TRP24      -0.2867
      5  CB        -0.4300   16.6170    0.4120 C.3    24  TRP24       0.0550
      6  CG         0.1580   16.2470   -0.9130 C.ar   24  TRP24       0.0003
      7  CD1       -0.3400   16.5660   -2.1570 C.ar   24  TRP24       0.0946
      8  CD2        1.3530   15.4640   -1.1570 C.ar   24  TRP24       0.0152
      9  NE1        0.4440   16.0330   -3.1360 N.ar   24  TRP24      -0.2442
     10  CE2        1.4990   15.3640   -2.5630 C.ar   24  TRP24       0.0810
     11  CE3        2.3220   14.8900   -0.3340 C.ar   24  TRP24       0.0012
     12  CZ2        2.5170   14.6420   -3.1640 C.ar   24  TRP24       0.0191
     13  CZ3        3.3860   14.1150   -0.9580 C.ar   24  TRP24       0.0001
     14  CH2        3.4890   14.0720   -2.3470 C.ar   24  TRP24       0.0015
     15  N          9.1560   16.1590   -4.4290 N.3    85  TRP85      -0.1241
     16  CA         8.8570   14.7850   -4.6710 C.3    85  TRP85       0.1605
     17  C          9.0490   14.4870   -6.1800 C.2    85  TRP85       0.2264
     18  O          9.3230   13.3510   -6.5310 O.2    85  TRP85      -0.2867
     19  CB         7.4500   14.3770   -4.2080 C.3    85  TRP85       0.0550
     20  CG         7.2440   13.9330   -2.7880 C.ar   85  TRP85       0.0003
     21  CD1        6.8440   12.6890   -2.3930 C.ar   85  TRP85       0.0946
     22  CD2        7.3570   14.7080   -1.5770 C.ar   85  TRP85       0.0152
     23  NE1        6.7330   12.6460   -1.0270 N.ar   85  TRP85      -0.2442
     24  CE2        7.0100   13.8760   -0.5090 C.ar   85  TRP85       0.0810
     25  CE3        7.7370   16.0240   -1.2960 C.ar   85  TRP85       0.0012
     26  CZ2        7.1040   14.2840    0.8010 C.ar   85  TRP85       0.0191
     27  CZ3        7.7690   16.4300   -0.0330 C.ar   85  TRP85       0.0001
     28  CH2        7.4070   15.5930    1.0030 C.ar   85  TRP85       0.0015
     29  N         12.6650   13.4960   -2.7020 N.3   138  ASN138     -0.1225
     30  CA        12.0680   12.5040   -1.8120 C.3   138  ASN138      0.1785
     31  C         12.2440   11.0650   -2.2750 C.2   138  ASN138      0.2597
     32  O         11.8120   10.7690   -3.3670 O.2   138  ASN138     -0.2718
     33  CB        10.5600   12.7130   -1.7810 C.3   138  ASN138      0.1169
     34  CG         9.9180   11.8160   -0.8040 C.2   138  ASN138      0.2627
     35  OD1       10.1590   11.9570    0.3700 O.2   138  ASN138     -0.2716
     36  ND2        9.2050   10.8230   -1.2820 N.am  138  ASN138     -0.0877
     37  N         12.7620   10.1570   -1.4360 N.am  139  GLU139     -0.1979
     38  CA        12.7080    8.6800   -1.6840 C.3   139  GLU139      0.1602
     39  C         13.0750    8.3520   -3.1610 C.2   139  GLU139      0.2287
     40  O         12.2860    7.7580   -3.9430 O.2   139  GLU139     -0.2864
     41  CB        11.3530    8.1120   -1.2820 C.3   139  GLU139      0.0415
     42  CG        11.1540    8.3590    0.2150 C.3   139  GLU139      0.1163
     43  CD         9.8350    7.8900    0.7940 C.2   139  GLU139      0.3649
     44  OE1        8.8250    7.7910    0.0910 O.co2 139  GLU139     -0.2457
     45  OE2        9.7330    7.6990    2.0380 O.co2 139  GLU139     -0.2457
     46  N         12.1540    4.8610   -4.4570 N.3   142  TRP142     -0.1241
     47  CA        10.7300    4.4300   -4.4770 C.3   142  TRP142      0.1605
     48  C         10.0210    5.1340   -5.6250 C.2   142  TRP142      0.2264
     49  O         10.2460    6.3450   -5.8780 O.2   142  TRP142     -0.2867
     50  CB        10.0350    4.7500   -3.1220 C.3   142  TRP142      0.0550
     51  CG         8.8480    3.9220   -2.8450 C.ar  142  TRP142      0.0003
     52  CD1        7.6080    4.3570   -2.5170 C.ar  142  TRP142      0.0946
     53  CD2        8.7890    2.4790   -2.7910 C.ar  142  TRP142      0.0152
     54  NE1        6.7820    3.2870   -2.2750 N.ar  142  TRP142     -0.2442
     55  CE2        7.4900    2.1280   -2.4710 C.ar  142  TRP142      0.0810
     56  CE3        9.7340    1.4520   -3.0140 C.ar  142  TRP142      0.0012
     57  CZ2        7.0790    0.7910   -2.3740 C.ar  142  TRP142      0.0191
     58  CZ3        9.3240    0.1160   -2.9360 C.ar  142  TRP142      0.0001
     59  CH2        8.0040   -0.1970   -2.6250 C.ar  142  TRP142      0.0015
     60  N          6.2720    5.3190   -6.6110 N.3   144  PRO144     -0.2116
     61  CA         4.8580    5.1060   -6.4600 C.3   144  PRO144      0.1372
     62  C          4.0110    5.8930   -7.4630 C.2   144  PRO144      0.2244
     63  O          4.5870    6.5810   -8.3380 O.2   144  PRO144     -0.2868
     64  CB         4.6120    5.5290   -5.0010 C.3   144  PRO144      0.0268
     65  CG         5.5050    6.7330   -4.8650 C.3   144  PRO144      0.0207
     66  CD         6.7810    6.2140   -5.5670 C.3   144  PRO144      0.0892
     67  N          2.1650    8.5510   -7.0700 N.3   146  TYR146     -0.1241
     68  CA         1.9360    9.9530   -6.7090 C.3   146  TYR146      0.1605
     69  C          3.3260   10.6100   -7.0440 C.2   146  TYR146      0.2264
     70  O          4.2130    9.9150   -7.5610 O.2   146  TYR146     -0.2867
     71  CB         1.5030   10.1490   -5.2700 C.3   146  TYR146      0.0534
     72  CG         2.3800    9.4720   -4.2540 C.ar  146  TYR146     -0.0201
     73  CD1        3.6210   10.0130   -3.9000 C.ar  146  TYR146     -0.0009
     74  CD2        1.9640    8.2800   -3.6360 C.ar  146  TYR146     -0.0009
     75  CE1        4.4330    9.3850   -2.9410 C.ar  146  TYR146      0.0417
     76  CE2        2.7740    7.6340   -2.6600 C.ar  146  TYR146      0.0417
     77  CZ         3.9990    8.1920   -2.3080 C.ar  146  TYR146      0.1957
     78  OH         4.8290    7.5320   -1.3730 O.3   146  TYR146     -0.2866
     79  N         14.2790    5.8690    1.2380 N.3   179  LEU179     -0.1245
     80  CA        13.1560    5.1350    1.8790 C.3   179  LEU179      0.1561
     81  C         13.4560    4.5690    3.2470 C.2   179  LEU179      0.2260
     82  O         12.6730    4.7540    4.1860 O.2   179  LEU179     -0.2867
     83  CB        12.7950    3.9780    0.9310 C.3   179  LEU179      0.0270
     84  CG        11.7560    2.9700    1.2360 C.3   179  LEU179      0.0019
     85  CD1       10.4130    3.6850    1.3100 C.3   179  LEU179      0.0001
     86  CD2       11.7310    1.9590    0.1530 C.3   179  LEU179      0.0001
     87  N         11.4790    3.7290    6.6230 N.3   207  TYR207     -0.1241
     88  CA        10.5680    2.6910    6.1730 C.3   207  TYR207      0.1605
     89  C         11.3410    1.4150    5.8560 C.2   207  TYR207      0.2264
     90  O         12.0360    1.3400    4.8790 O.2   207  TYR207     -0.2867
     91  CB         9.7260    3.1100    4.9890 C.3   207  TYR207      0.0534
     92  CG         8.9530    4.3850    5.2130 C.ar  207  TYR207     -0.0201
     93  CD1        7.7240    4.3580    5.8430 C.ar  207  TYR207     -0.0009
     94  CD2        9.4400    5.6350    4.7920 C.ar  207  TYR207     -0.0009
     95  CE1        7.0070    5.5000    6.0910 C.ar  207  TYR207      0.0417
     96  CE2        8.7590    6.7750    5.0980 C.ar  207  TYR207      0.0417
     97  CZ         7.5360    6.7390    5.7140 C.ar  207  TYR207      0.1957
     98  OH         6.7890    7.9370    5.9430 O.3   207  TYR207     -0.2866
     99  N         11.5080   11.9610    7.4150 N.3   228  GLU228     -0.1245
    100  CA        10.1530   11.4980    7.2980 C.3   228  GLU228      0.1567
    101  C          9.9360   10.1130    7.9010 C.2   228  GLU228      0.2260
    102  O         10.5940    9.1620    7.4890 O.2   228  GLU228     -0.2867
    103  CB         9.7340   11.3990    5.8280 C.3   228  GLU228      0.0388
    104  CG         8.2280   11.1710    5.6360 C.3   228  GLU228      0.1160
    105  CD         7.8880   10.7390    4.2260 C.2   228  GLU228      0.3649
    106  OE1        8.1390   11.5100    3.2700 O.co2 228  GLU228     -0.2457
    107  OE2        7.4130    9.5790    4.0550 O.co2 228  GLU228     -0.2457
    108  N          6.2510    7.9490    9.9220 N.3   230  TYR230     -0.1241
    109  CA         4.9720    7.9900   10.7180 C.3   230  TYR230      0.1605
    110  C          4.7220    6.5990   11.2990 C.2   230  TYR230      0.2264
    111  O          5.2910    5.5730   10.8580 O.2   230  TYR230     -0.2867
    112  CB         3.7640    8.4520    9.8580 C.3   230  TYR230      0.0534
    113  CG         3.2760    7.4420    8.9080 C.ar  230  TYR230     -0.0201
    114  CD1        3.8750    7.3050    7.6330 C.ar  230  TYR230     -0.0009
    115  CD2        2.2160    6.5920    9.2380 C.ar  230  TYR230     -0.0009
    116  CE1        3.4350    6.3420    6.7600 C.ar  230  TYR230      0.0417
    117  CE2        1.7640    5.6110    8.3610 C.ar  230  TYR230      0.0417
    118  CZ         2.3760    5.5010    7.1020 C.ar  230  TYR230      0.1957
    119  OH         1.9420    4.5050    6.2080 O.3   230  TYR230     -0.2866
    120  N          6.2450   12.7510    9.5610 N.3   261  TRP261     -0.1241
    121  CA         5.4970   12.9720    8.2950 C.3   261  TRP261      0.1605
    122  C          4.3810   14.0180    8.4980 C.2   261  TRP261      0.2264
    123  O          4.5470   15.0090    9.2600 O.2   261  TRP261     -0.2867
    124  CB         5.0710   11.5860    7.7290 C.3   261  TRP261      0.0550
    125  CG         4.2940   11.5150    6.4800 C.ar  261  TRP261      0.0003
    126  CD1        3.2140   10.6900    6.2620 C.ar  261  TRP261      0.0946
    127  CD2        4.3930   12.3560    5.3200 C.ar  261  TRP261      0.0152
    128  NE1        2.6650   10.9280    5.0250 N.ar  261  TRP261     -0.2442
    129  CE2        3.3580   11.9620    4.4370 C.ar  261  TRP261      0.0810
    130  CE3        5.2300   13.4300    4.9480 C.ar  261  TRP261      0.0012
    131  CZ2        3.1410   12.6110    3.1990 C.ar  261  TRP261      0.0191
    132  CZ3        5.0220   14.0680    3.7290 C.ar  261  TRP261      0.0001
    133  CH2        3.9840   13.6350    2.8550 C.ar  261  TRP261      0.0015
@<TRIPOS>BOND
     1    63    62    2
     2    70    69    2
     3    62    61    1
     4    67    68    1
     5    69    68    1
     6    68    71    1
     7    60    61    1
     8    60    66    1
     9    18    17    2
    10    61    64    1
    11    17    16    1
    12    49    48    2
    13    48    47    1
    14    66    65    1
    15    71    72    1
    16    64    65    1
    17    16    15    1
    18    16    19    1
    19    47    46    1
    20    47    50    1
    21    72    73   ar
    22    72    74   ar
    23    19    20    1
    24    40    39    2
    25    73    75   ar
    26    74    76   ar
    27    32    31    2
    28    12    10   ar
    29    12    14   ar
    30    39    38    1
    31     9    10   ar
    32     9     7   ar
    33    50    51    1
    34    56    58   ar
    35    56    53   ar
    36    75    77   ar
    37    58    59   ar
    38    51    53   ar
    39    51    52   ar
    40    53    55   ar
    41    20    21   ar
    42    20    22   ar
    43    29    30    1
    44    76    77   ar
    45    59    57   ar
    46    10     8   ar
    47    52    54   ar
    48    55    57   ar
    49    55    54   ar
    50    21    23   ar
    51    14    13   ar
    52    77    78    1
    53    31    30    1
    54    31    37   am
    55     7     6   ar
    56    30    33    1
    57    33    34    1
    58    38    37    1
    59    38    41    1
    60    22    25   ar
    61    22    24   ar
    62    25    27   ar
    63    36    34   am
    64    41    42    1
    65     8     6   ar
    66     8    11   ar
    67    23    24   ar
    68    13    11   ar
    69     6     5    1
    70    34    35    2
    71    24    26   ar
    72    27    28   ar
    73    44    43   ar
    74    86    84    1
    75    42    43    1
    76     5     2    1
    77    43    45   ar
    78    26    28   ar
    79     2     1    1
    80     2     3    1
    81    83    84    1
    82    83    80    1
    83    84    85    1
    84    79    80    1
    85    80    81    1
    86     3     4    2
    87   133   131   ar
    88   133   132   ar
    89   131   129   ar
    90    81    82    2
    91   106   105   ar
    92   132   130   ar
    93   107   105   ar
    94   105   104    1
    95   129   128   ar
    96   129   127   ar
    97    94    96   ar
    98    94    92   ar
    99    90    89    2
   100   130   127   ar
   101    91    92    1
   102    91    88    1
   103   128   126   ar
   104    96    97   ar
   105    92    93   ar
   106   127   125   ar
   107   104   103    1
   108    97    98    1
   109    97    95   ar
   110   103   100    1
   111    93    95   ar
   112    89    88    1
   113    88    87    1
   114   119   118    1
   115   126   125   ar
   116   125   124    1
   117   116   118   ar
   118   116   114   ar
   119   118   117   ar
   120   100    99    1
   121   100   101    1
   122   102   101    2
   123   114   113   ar
   124   124   121    1
   125   121   122    1
   126   121   120    1
   127   117   115   ar
   128   122   123    2
   129   113   115   ar
   130   113   112    1
   131   112   109    1
   132   108   109    1
   133   109   110    1
   134   111   110    2
