@<TRIPOS>MOLECULE
tmp/5cxsA00.pdb
 112 106 0 0 0
SMALL
GASTEIGER

@<TRIPOS>ATOM
      1  N         -5.2240  -32.0120    0.8170 N.3    30  GLY30      -0.1210
      2  CA        -4.4050  -31.5080   -0.2740 C.3    30  GLY30       0.1956
      3  C         -3.5570  -32.5660   -0.9810 C.2    30  GLY30       0.2612
      4  O         -3.4030  -33.6890   -0.5130 O.2    30  GLY30      -0.2717
      5  N         -2.9930  -32.2050   -2.1320 N.am   31  SER31      -0.1952
      6  CA        -2.1830  -33.1330   -2.9140 C.3    31  SER31       0.1924
      7  C         -1.0180  -33.7200   -2.1210 C.2    31  SER31       0.2314
      8  O         -0.2220  -32.9730   -1.5510 O.2    31  SER31      -0.2863
      9  CB        -1.6440  -32.3930   -4.1250 C.3    31  SER31       0.2116
     10  OG        -1.0780  -31.1780   -3.6520 O.3    31  SER31      -0.2180
     11  N         -9.9750  -34.3510   -5.1430 N.3    82  ARG82      -0.1245
     12  CA       -10.5150  -33.0160   -4.8500 C.3    82  ARG82       0.1563
     13  C        -10.8770  -32.3550   -6.1710 C.2    82  ARG82       0.2260
     14  O        -10.2100  -32.6740   -7.1510 O.2    82  ARG82      -0.2867
     15  CB        -9.3850  -32.2330   -4.1820 C.3    82  ARG82       0.0307
     16  CG        -9.6940  -30.8750   -3.7900 C.3    82  ARG82       0.0489
     17  CD        -8.6890  -30.4940   -2.7330 C.3    82  ARG82       0.2205
     18  NE        -9.1430  -29.2970   -2.0620 N.pl3  82  ARG82      -0.0865
     19  CZ        -8.4200  -28.6650   -1.1620 C.cat  82  ARG82       0.5346
     20  NH1       -7.2210  -29.1360   -0.8500 N.pl3  82  ARG82       0.1354
     21  NH2       -8.8900  -27.5800   -0.5970 N.pl3  82  ARG82       0.1354
     22  N        -10.9250  -28.9200   -8.1870 N.3    84  HIS84      -0.1241
     23  CA       -10.3630  -27.5750   -8.1850 C.3    84  HIS84       0.1621
     24  C        -10.9290  -26.7510   -9.3180 C.2    84  HIS84       0.2264
     25  O        -11.1280  -27.2510  -10.4370 O.2    84  HIS84      -0.2867
     26  CB        -8.8560  -27.6460   -8.3360 C.3    84  HIS84       0.0745
     27  CG        -8.1480  -28.1960   -7.1420 C.ar   84  HIS84       0.0817
     28  ND1       -7.5490  -29.4450   -7.1340 N.ar   84  HIS84      -0.2268
     29  CD2       -7.9720  -27.6880   -5.9050 C.ar   84  HIS84       0.1154
     30  CE1       -7.0020  -29.6590   -5.9500 C.ar   84  HIS84       0.1986
     31  NE2       -7.2550  -28.6150   -5.1780 N.ar   84  HIS84      -0.2212
     32  N         -9.5480  -24.4500  -11.0790 N.3    86  TYR86      -0.1241
     33  CA        -8.6980  -24.2630  -12.2680 C.3    86  TYR86       0.1605
     34  C         -8.8870  -25.3930  -13.2710 C.2    86  TYR86       0.2264
     35  O         -8.4360  -25.2500  -14.4070 O.2    86  TYR86      -0.2867
     36  CB        -7.1760  -24.1200  -11.9320 C.3    86  TYR86       0.0534
     37  CG        -6.6400  -25.2420  -11.1140 C.ar   86  TYR86      -0.0201
     38  CD1       -6.4120  -26.5180  -11.6710 C.ar   86  TYR86      -0.0009
     39  CD2       -6.3570  -25.0310   -9.7660 C.ar   86  TYR86      -0.0009
     40  CE1       -5.9500  -27.5620  -10.8690 C.ar   86  TYR86       0.0417
     41  CE2       -5.8700  -26.0890   -8.9190 C.ar   86  TYR86       0.0417
     42  CZ        -5.6640  -27.3510   -9.5120 C.ar   86  TYR86       0.1957
     43  OH        -5.2000  -28.3560   -8.7090 O.3    86  TYR86      -0.2866
     44  N         -4.2030  -27.9640    2.4260 N.3   113  ASN113     -0.1225
     45  CA        -3.7630  -27.6700    1.0770 C.3   113  ASN113      0.1785
     46  C         -2.2690  -27.3880    1.1210 C.2   113  ASN113      0.2597
     47  O         -1.7050  -27.2430    2.2000 O.2   113  ASN113     -0.2718
     48  CB        -4.4820  -26.4440    0.4750 C.3   113  ASN113      0.1169
     49  CG        -4.2590  -25.1800    1.2930 C.2   113  ASN113      0.2627
     50  OD1       -3.1340  -24.6820    1.3850 O.2   113  ASN113     -0.2716
     51  ND2       -5.3450  -24.6080    1.8410 N.am  113  ASN113     -0.0877
     52  N         -1.6580  -27.3170   -0.0720 N.am  114  LEU114     -0.1966
     53  CA        -0.2540  -26.9000   -0.1790 C.3   114  LEU114      0.1728
     54  C         -0.3080  -25.4520   -0.6570 C.2   114  LEU114      0.2616
     55  O         -1.1470  -25.1200   -1.5200 O.2   114  LEU114     -0.2715
     56  CB         0.5110  -27.7220   -1.1970 C.3   114  LEU114      0.0311
     57  CG         1.1760  -29.0330   -0.7550 C.3   114  LEU114      0.0022
     58  CD1        2.3730  -28.7150    0.1200 C.3   114  LEU114      0.0001
     59  CD2        0.2380  -29.9260   -0.0150 C.3   114  LEU114      0.0001
     60  N          0.5470  -24.5870   -0.1370 N.am  115  ALA115     -0.1977
     61  CA         0.4340  -23.1510   -0.5220 C.3   115  ALA115      0.1597
     62  C          1.7730  -22.4710   -0.5510 C.2   115  ALA115      0.2287
     63  O          2.7560  -23.0420   -0.0460 O.2   115  ALA115     -0.2864
     64  CB        -0.4810  -22.4210    0.4040 C.3   115  ALA115      0.0319
     65  N          1.3080  -20.7190  -11.2070 N.3   198  TYR198     -0.1241
     66  CA         1.7360  -20.1610   -9.9580 C.3   198  TYR198      0.1605
     67  C          1.7240  -18.6600  -10.0200 C.2   198  TYR198      0.2264
     68  O          1.9270  -18.0710  -11.1170 O.2   198  TYR198     -0.2867
     69  CB         3.1430  -20.6500   -9.6430 C.3   198  TYR198      0.0534
     70  CG         3.1450  -22.1200   -9.2750 C.ar  198  TYR198     -0.0201
     71  CD1        2.4840  -22.5450   -8.1450 C.ar  198  TYR198     -0.0009
     72  CD2        3.7340  -23.0730  -10.0990 C.ar  198  TYR198     -0.0009
     73  CE1        2.4670  -23.9040   -7.7930 C.ar  198  TYR198      0.0417
     74  CE2        3.7170  -24.4440   -9.7160 C.ar  198  TYR198      0.0417
     75  CZ         3.0500  -24.8060   -8.5730 C.ar  198  TYR198      0.1957
     76  OH         2.9800  -26.1260   -8.1830 O.3   198  TYR198     -0.2866
     77  N         -4.3050  -22.1370   -4.7080 N.3   217  MET217     -0.1230
     78  CA        -5.3190  -22.2560   -5.7650 C.3   217  MET217      0.1702
     79  C         -6.5300  -23.0650   -5.3620 C.2   217  MET217      0.2593
     80  O         -7.2350  -23.5600   -6.2220 O.2   217  MET217     -0.2718
     81  CB        -4.6880  -22.9480   -6.9960 C.3   217  MET217      0.0401
     82  CG        -3.5740  -22.2340   -7.5210 C.3   217  MET217      0.0596
     83  SD        -2.8320  -23.3260   -8.8370 S.3   217  MET217     -0.1393
     84  CE        -1.2600  -22.4970   -8.8570 C.3   217  MET217      0.0692
     85  N         -6.7500  -23.2270   -4.0540 N.am  218  SER218     -0.1952
     86  CA        -7.8370  -24.1200   -3.6190 C.3   218  SER218      0.1924
     87  C         -8.5190  -23.5810   -2.3950 C.2   218  SER218      0.2314
     88  O         -8.3040  -22.4420   -2.0360 O.2   218  SER218     -0.2863
     89  CB        -7.2860  -25.5170   -3.3010 C.3   218  SER218      0.2116
     90  OG        -6.5050  -25.4870   -2.1030 O.3   218  SER218     -0.2180
     91  N          4.8240  -24.7850    0.8600 N.3   240  ALA240     -0.1245
     92  CA         5.7190  -25.5230   -0.0140 C.3   240  ALA240      0.1562
     93  C          7.0050  -24.7310   -0.3590 C.2   240  ALA240      0.2260
     94  O          8.0390  -25.3300   -0.6590 O.2   240  ALA240     -0.2867
     95  CB         4.9860  -25.9100   -1.3000 C.3   240  ALA240      0.0290
     96  N          5.8920  -28.1380   -9.4090 N.3   255  HIS255     -0.1241
     97  CA         5.0120  -29.0440   -8.6770 C.3   255  HIS255      0.1621
     98  C          5.8240  -30.1810   -7.9760 C.2   255  HIS255      0.2264
     99  O          5.4410  -30.6860   -6.9140 O.2   255  HIS255     -0.2867
    100  CB         3.9460  -29.6160   -9.6240 C.3   255  HIS255      0.0745
    101  CG         2.8140  -30.2670   -8.9060 C.ar  255  HIS255      0.0817
    102  ND1        2.4750  -31.5880   -9.0880 N.ar  255  HIS255     -0.2268
    103  CD2        1.9620  -29.7870   -7.9730 C.ar  255  HIS255      0.1154
    104  CE1        1.4480  -31.8890   -8.3130 C.ar  255  HIS255      0.1986
    105  NE2        1.1250  -30.8160   -7.6160 N.ar  255  HIS255     -0.2212
    106  N          7.1080  -29.0520   -4.7520 N.3   258  VAL258     -0.1245
    107  CA         5.9460  -28.9680   -3.9050 C.3   258  VAL258      0.1561
    108  C          5.5630  -30.3310   -3.3130 C.2   258  VAL258      0.2260
    109  O          5.3800  -30.4330   -2.0950 O.2   258  VAL258     -0.2867
    110  CB         4.7570  -28.3570   -4.6730 C.3   258  VAL258      0.0252
    111  CG1        3.5010  -28.4880   -3.8720 C.3   258  VAL258      0.0019
    112  CG2        5.0750  -26.8830   -5.0150 C.3   258  VAL258      0.0019
@<TRIPOS>BOND
     1    35    34    2
     2    34    33    1
     3    33    36    1
     4    33    32    1
     5    36    37    1
     6    38    37   ar
     7    38    40   ar
     8    65    66    1
     9    68    67    2
    10    37    39   ar
    11    40    42   ar
    12    25    24    2
    13    72    74   ar
    14    72    70   ar
    15    67    66    1
    16    66    69    1
    17    39    41   ar
    18    74    75   ar
    19    69    70    1
    20   100   101    1
    21   100    97    1
    22    42    41   ar
    23    42    43    1
    24    96    97    1
    25    24    23    1
    26    70    71   ar
    27   102   101   ar
    28   102   104   ar
    29   101   103   ar
    30    84    83    1
    31    83    82    1
    32    97    98    1
    33    75    76    1
    34    75    73   ar
    35    26    23    1
    36    26    27    1
    37   104   105   ar
    38    22    23    1
    39    71    73   ar
    40    98    99    2
    41   103   105   ar
    42    82    81    1
    43    14    13    2
    44    27    28   ar
    45    27    29   ar
    46    28    30   ar
    47    81    78    1
    48    80    79    2
    49    13    12    1
    50    30    31   ar
    51    29    31   ar
    52    78    79    1
    53    78    77    1
    54    79    85   am
    55    11    12    1
    56   112   110    1
    57    12    15    1
    58   106   107    1
    59   110   107    1
    60   110   111    1
    61    15    16    1
    62     9    10    1
    63     9     6    1
    64    85    86    1
    65   107   108    1
    66    16    17    1
    67    86    89    1
    68    86    87    1
    69   108   109    2
    70    89    90    1
    71     6     5    1
    72     6     7    1
    73    17    18    1
    74    87    88    2
    75     5     3   am
    76     7     8    2
    77    18    19    2
    78    55    54    2
    79    95    92    1
    80    56    57    1
    81    56    53    1
    82    19    20    1
    83    19    21    1
    84     3     4    2
    85     3     2    1
    86    57    59    1
    87    57    58    1
    88    94    93    2
    89    54    53    1
    90    54    60   am
    91    62    61    1
    92    62    63    2
    93    61    60    1
    94    61    64    1
    95    93    92    1
    96     2     1    1
    97    53    52    1
    98    52    46   am
    99    92    91    1
   100    48    45    1
   101    48    49    1
   102    45    46    1
   103    45    44    1
   104    46    47    2
   105    49    50    2
   106    49    51   am
