@<TRIPOS>MOLECULE
tmp/5cxtK00.pdb
 152 147 0 0 0
SMALL
GASTEIGER

@<TRIPOS>ATOM
      1  N         64.1760   40.8210    2.9130 N.3    12  LEU12      -0.1245
      2  CA        63.7550   40.2790    4.1760 C.3    12  LEU12       0.1561
      3  C         64.0640   38.7890    4.1280 C.2    12  LEU12       0.2260
      4  O         63.9300   38.1650    3.0760 O.2    12  LEU12      -0.2867
      5  CB        62.2620   40.4570    4.4150 C.3    12  LEU12       0.0270
      6  CG        61.7740   41.8970    4.5020 C.3    12  LEU12       0.0019
      7  CD1       60.2990   41.9120    4.4920 C.3    12  LEU12       0.0001
      8  CD2       62.2770   42.5900    5.7250 C.3    12  LEU12       0.0001
      9  N         61.1550   34.7570    6.7700 N.3    15  MET15      -0.1245
     10  CA        59.7110   35.0860    6.7100 C.3    15  MET15       0.1570
     11  C         58.7840   33.8550    6.5640 C.2    15  MET15       0.2261
     12  O         57.5940   33.9400    6.8180 O.2    15  MET15      -0.2867
     13  CB        59.4400   35.9940    5.5020 C.3    15  MET15       0.0387
     14  CG        60.0410   37.3770    5.6050 C.3    15  MET15       0.0595
     15  SD        59.1750   38.4500    6.7460 S.3    15  MET15      -0.1393
     16  CE        57.6400   38.6700    5.8950 C.3    15  MET15       0.0692
     17  N         49.8540   30.9010   -0.4660 N.3    26  TRP26      -0.1241
     18  CA        50.5630   31.3650    0.7410 C.3    26  TRP26       0.1605
     19  C         51.5250   32.5220    0.4580 C.2    26  TRP26       0.2264
     20  O         51.6840   33.4230    1.2760 O.2    26  TRP26      -0.2867
     21  CB        51.3360   30.2140    1.4040 C.3    26  TRP26       0.0550
     22  CG        52.4630   29.6280    0.5590 C.ar   26  TRP26       0.0003
     23  CD1       52.3870   28.5590   -0.2770 C.ar   26  TRP26       0.0946
     24  CD2       53.8260   30.0560    0.5290 C.ar   26  TRP26       0.0152
     25  NE1       53.5980   28.3090   -0.8420 N.ar   26  TRP26      -0.2442
     26  CE2       54.5050   29.2090   -0.3650 C.ar   26  TRP26       0.0810
     27  CE3       54.5320   31.0970    1.1480 C.ar   26  TRP26       0.0012
     28  CZ2       55.8610   29.3650   -0.6670 C.ar   26  TRP26       0.0191
     29  CZ3       55.8900   31.2390    0.8680 C.ar   26  TRP26       0.0001
     30  CH2       56.5390   30.3810   -0.0310 C.ar   26  TRP26       0.0015
     31  N         49.8050   35.8560    0.2760 N.3    29  GLU29      -0.1231
     32  CA        49.4940   36.3660    1.5890 C.3    29  GLU29       0.1699
     33  C         50.7210   37.0020    2.2630 C.2    29  GLU29       0.2592
     34  O         50.5820   38.0340    2.9170 O.2    29  GLU29      -0.2718
     35  CB        48.9200   35.2670    2.4880 C.3    29  GLU29       0.0402
     36  CG        47.5990   34.6240    1.9910 C.3    29  GLU29       0.1161
     37  CD        46.4090   35.6090    1.9630 C.2    29  GLU29       0.3649
     38  OE1       46.1430   36.2760    3.0110 O.co2  29  GLU29      -0.2457
     39  OE2       45.7380   35.7090    0.8950 O.co2  29  GLU29      -0.2457
     40  N         51.8970   36.3930    2.0910 N.am   30  ILE30      -0.1980
     41  CA        53.1530   36.9810    2.5580 C.3    30  ILE30       0.1595
     42  C         53.3760   38.3530    1.8840 C.2    30  ILE30       0.2287
     43  O         53.7070   39.3210    2.5340 O.2    30  ILE30      -0.2864
     44  CB        54.3720   36.0700    2.2940 C.3    30  ILE30       0.0276
     45  CG1       54.2870   34.7660    3.1250 C.3    30  ILE30       0.0022
     46  CG2       55.6760   36.7950    2.5840 C.3    30  ILE30       0.0022
     47  CD1       54.4120   34.9010    4.5720 C.3    30  ILE30       0.0001
     48  N         51.1710   40.8200    3.4220 N.3    33  ASP33      -0.1225
     49  CA        51.6580   41.1580    4.7660 C.3    33  ASP33       0.1805
     50  C         52.7440   42.2120    4.6790 C.2    33  ASP33       0.2597
     51  O         52.8230   43.0950    5.5190 O.2    33  ASP33      -0.2718
     52  CB        52.2530   39.9330    5.4830 C.3    33  ASP33       0.1424
     53  CG        51.2150   38.8250    5.7630 C.2    33  ASP33       0.3668
     54  OD1       50.0240   39.1180    6.0140 O.co2  33  ASP33      -0.2456
     55  OD2       51.6170   37.6320    5.7740 O.co2  33  ASP33      -0.2456
     56  N         53.6320   42.0750    3.7060 N.am   34  VAL34      -0.1980
     57  CA        54.7740   43.0050    3.5820 C.3    34  VAL34       0.1595
     58  C         54.3270   44.3640    3.0670 C.2    34  VAL34       0.2287
     59  O         54.8010   45.4200    3.5230 O.2    34  VAL34      -0.2864
     60  CB        55.8750   42.4140    2.7260 C.3    34  VAL34       0.0276
     61  CG1       57.0190   43.4020    2.5050 C.3    34  VAL34       0.0022
     62  CG2       56.4520   41.1250    3.4090 C.3    34  VAL34       0.0022
     63  N         51.2740   45.7180    3.3380 N.3    36  GLU36      -0.1231
     64  CA        50.5070   46.3910    4.4080 C.3    36  GLU36       0.1699
     65  C         51.4340   47.0270    5.4350 C.2    36  GLU36       0.2592
     66  O         51.2580   48.1810    5.7890 O.2    36  GLU36      -0.2718
     67  CB        49.5440   45.4290    5.1160 C.3    36  GLU36       0.0402
     68  CG        48.2840   45.1040    4.2860 C.3    36  GLU36       0.1161
     69  CD        47.4190   43.9290    4.8440 C.2    36  GLU36       0.3649
     70  OE1       47.8010   43.2810    5.8490 O.co2  36  GLU36      -0.2457
     71  OE2       46.3490   43.6490    4.2300 O.co2  36  GLU36      -0.2457
     72  N         52.4610   46.2920    5.8550 N.am   37  GLU37      -0.1979
     73  CA        53.4120   46.8170    6.8330 C.3    37  GLU37       0.1602
     74  C         54.2940   47.9450    6.2800 C.2    37  GLU37       0.2287
     75  O         54.4950   48.9410    6.9470 O.2    37  GLU37      -0.2864
     76  CB        54.2830   45.6940    7.3450 C.3    37  GLU37       0.0415
     77  CG        54.9800   46.0050    8.6530 C.3    37  GLU37       0.1163
     78  CD        54.0340   46.2410    9.8260 C.2    37  GLU37       0.3649
     79  OE1       52.8760   45.7610    9.8190 O.co2  37  GLU37      -0.2457
     80  OE2       54.4830   46.9280   10.7780 O.co2  37  GLU37      -0.2457
     81  N         61.5210   47.0240   10.2460 N.3    75  LEU75      -0.1245
     82  CA        61.2660   45.6150   10.0220 C.3    75  LEU75       0.1561
     83  C         62.3450   44.6970   10.5810 C.2    75  LEU75       0.2260
     84  O         62.0570   43.5730   10.9840 O.2    75  LEU75      -0.2867
     85  CB        61.0470   45.3050    8.5430 C.3    75  LEU75       0.0270
     86  CG        59.8220   45.9450    7.9490 C.3    75  LEU75       0.0019
     87  CD1       59.6850   45.6210    6.4500 C.3    75  LEU75       0.0001
     88  CD2       58.5610   45.5520    8.6190 C.3    75  LEU75       0.0001
     89  N         62.1610   42.1950   13.8580 N.3    78  ARG78      -0.1231
     90  CA        60.7900   41.9440   14.2800 C.3    78  ARG78       0.1694
     91  C         60.5160   40.4470   14.2700 C.2    78  ARG78       0.2592
     92  O         61.1240   39.6790   13.5280 O.2    78  ARG78      -0.2718
     93  CB        59.7810   42.5880   13.3300 C.3    78  ARG78       0.0321
     94  CG        59.8640   44.1190   13.2270 C.3    78  ARG78       0.0489
     95  CD        59.0690   44.8060   14.2870 C.3    78  ARG78       0.2205
     96  NE        57.6220   44.7530   13.9900 N.pl3  78  ARG78      -0.0865
     97  CZ        56.9690   45.5020   13.1000 C.cat  78  ARG78       0.5346
     98  NH1       57.6230   46.3360   12.2930 N.pl3  78  ARG78       0.1354
     99  NH2       55.6590   45.3580   12.9630 N.pl3  78  ARG78       0.1354
    100  N         59.5610   40.0620   15.0840 N.am   79  TRP79      -0.1962
    101  CA        59.0190   38.7480   15.0560 C.3    79  TRP79       0.1771
    102  C         58.0260   38.6930   13.9190 C.2    79  TRP79       0.2620
    103  O         57.1860   39.5920   13.7780 O.2    79  TRP79      -0.2715
    104  CB        58.2300   38.4300   16.3340 C.3    79  TRP79       0.0590
    105  CG        58.9670   38.2620   17.6350 C.ar   79  TRP79       0.0006
    106  CD1       58.7350   38.9440   18.8000 C.ar   79  TRP79       0.0946
    107  CD2       59.9900   37.3240   17.9380 C.ar   79  TRP79       0.0152
    108  NE1       59.5590   38.4880   19.7990 N.ar   79  TRP79      -0.2442
    109  CE2       60.3160   37.4700   19.2950 C.ar   79  TRP79       0.0810
    110  CE3       60.6450   36.3380   17.1900 C.ar   79  TRP79       0.0012
    111  CZ2       61.2920   36.6910   19.9110 C.ar   79  TRP79       0.0191
    112  CZ3       61.5830   35.5560   17.8160 C.ar   79  TRP79       0.0001
    113  CH2       61.8900   35.7370   19.1570 C.ar   79  TRP79       0.0015
    114  N         58.0480   37.6050   13.1590 N.am   80  PHE80      -0.1960
    115  CA        56.9940   37.3130   12.1560 C.3    80  PHE80       0.1771
    116  C         56.6800   35.8240   12.2600 C.2    80  PHE80       0.2619
    117  O         57.5820   34.9890   12.0860 O.2    80  PHE80      -0.2715
    118  CB        57.4860   37.6370   10.7590 C.3    80  PHE80       0.0574
    119  CG        56.4120   37.5000    9.6780 C.ar   80  PHE80      -0.0200
    120  CD1       55.4630   38.4740    9.5180 C.ar   80  PHE80      -0.0042
    121  CD2       56.3310   36.3680    8.9150 C.ar   80  PHE80      -0.0042
    122  CE1       54.4780   38.3300    8.5810 C.ar   80  PHE80      -0.0003
    123  CE2       55.3500   36.2320    7.9660 C.ar   80  PHE80      -0.0003
    124  CZ        54.4000   37.2080    7.8080 C.ar   80  PHE80      -0.0000
    125  N         55.4540   35.4820   12.6330 N.am   81  ALA81      -0.1963
    126  CA        55.0470   34.0730   12.8540 C.3    81  ALA81       0.1728
    127  C         55.9910   33.2850   13.7460 C.2    81  ALA81       0.2616
    128  O         56.3370   32.1540   13.4370 O.2    81  ALA81      -0.2715
    129  CB        54.8710   33.3610   11.4870 C.3    81  ALA81       0.0334
    130  N         56.4150   33.8840   14.8590 N.am   82  GLY82      -0.1955
    131  CA        57.2550   33.1870   15.8430 C.3    82  GLY82       0.1869
    132  C         58.7400   33.0620   15.5290 C.2    82  GLY82       0.2309
    133  O         59.4320   32.2930   16.1750 O.2    82  GLY82      -0.2863
    134  N         62.9840   38.0950   12.0250 N.3    85  ILE85      -0.1245
    135  CA        63.3020   38.4470   10.6370 C.3    85  ILE85       0.1561
    136  C         64.4710   39.4150   10.5600 C.2    85  ILE85       0.2260
    137  O         64.6500   40.2320   11.4540 O.2    85  ILE85      -0.2867
    138  CB        62.0800   38.9320    9.8040 C.3    85  ILE85       0.0252
    139  CG1       61.7090   40.3500   10.1330 C.3    85  ILE85       0.0019
    140  CG2       60.9290   37.9420   10.0250 C.3    85  ILE85       0.0019
    141  CD1       60.7000   40.9560    9.1920 C.3    85  ILE85       0.0001
    142  N         44.1400   41.6730   -1.0820 N.3   113  ARG113     -0.1245
    143  CA        42.9480   41.3670   -0.2400 C.3   113  ARG113      0.1563
    144  C         42.1450   42.5550    0.2950 C.2   113  ARG113      0.2260
    145  O         42.6360   43.6770    0.3610 O.2   113  ARG113     -0.2867
    146  CB        43.3540   40.4540    0.9330 C.3   113  ARG113      0.0307
    147  CG        44.3060   41.0670    1.9760 C.3   113  ARG113      0.0489
    148  CD        45.1320   39.9750    2.6520 C.3   113  ARG113      0.2205
    149  NE        45.9380   40.5200    3.7420 N.pl3 113  ARG113     -0.0865
    150  CZ        47.0390   39.9610    4.2600 C.cat 113  ARG113      0.5346
    151  NH1       47.5130   38.8000    3.8140 N.pl3 113  ARG113      0.1354
    152  NH2       47.6870   40.5830    5.2400 N.pl3 113  ARG113      0.1354
@<TRIPOS>BOND
     1   142   143    1
     2    25    26   ar
     3    25    23   ar
     4    28    26   ar
     5    28    30   ar
     6    17    18    1
     7    26    24   ar
     8    23    22   ar
     9   143   144    1
    10   143   146    1
    11    30    29   ar
    12    31    32    1
    13   144   145    2
    14    19    18    1
    15    19    20    2
    16    24    22   ar
    17    24    27   ar
    18    22    21    1
    19    18    21    1
    20    29    27   ar
    21    39    37   ar
    22   146   147    1
    23    32    33    1
    24    32    35    1
    25    42    43    2
    26    42    41    1
    27    37    36    1
    28    37    38   ar
    29   147   148    1
    30    36    35    1
    31    40    33   am
    32    40    41    1
    33    33    34    2
    34    44    41    1
    35    44    46    1
    36    44    45    1
    37    61    60    1
    38   148   149    1
    39    60    62    1
    40    60    57    1
    41     1     2    1
    42    58    59    2
    43    58    57    1
    44     4     3    2
    45    45    47    1
    46    63    64    1
    47    48    49    1
    48    57    56    1
    49    56    50   am
    50   149   150    2
    51   151   150    1
    52     3     2    1
    53     2     5    1
    54    71    69   ar
    55   150   152    1
    56    68    69    1
    57    68    67    1
    58    64    67    1
    59    64    65    1
    60     5     6    1
    61     7     6    1
    62     6     8    1
    63    50    49    1
    64    50    51    2
    65    49    52    1
    66    69    70   ar
    67    65    66    2
    68    65    72   am
    69    52    53    1
    70    13    14    1
    71    13    10    1
    72    14    15    1
    73    53    55   ar
    74    53    54   ar
    75    72    73    1
    76    16    15    1
    77    74    73    1
    78    74    75    2
    79    87    86    1
    80    11    10    1
    81    11    12    2
    82    10     9    1
    83    73    76    1
    84    76    77    1
    85   124   123   ar
    86   124   122   ar
    87    86    85    1
    88    86    88    1
    89   123   121   ar
    90    85    82    1
    91   122   120   ar
    92    77    78    1
    93   121   119   ar
    94   141   139    1
    95   120   119   ar
    96   119   118    1
    97   138   140    1
    98   138   139    1
    99   138   135    1
   100    79    78   ar
   101    78    80   ar
   102    82    81    1
   103    82    83    1
   104   136   135    1
   105   136   137    2
   106    83    84    2
   107   135   134    1
   108   118   115    1
   109   129   126    1
   110   117   116    2
   111   115   116    1
   112   115   114    1
   113   116   125   am
   114    98    97    1
   115   125   126    1
   116   126   127    1
   117    99    97    1
   118    97    96    2
   119   114   102   am
   120    94    93    1
   121    94    95    1
   122    93    90    1
   123   128   127    2
   124    92    91    2
   125   127   130   am
   126   103   102    2
   127    89    90    1
   128   102   101    1
   129    96    95    1
   130    91    90    1
   131    91   100   am
   132   130   131    1
   133   101   100    1
   134   101   104    1
   135   132   131    1
   136   132   133    2
   137   104   105    1
   138   110   112   ar
   139   110   107   ar
   140   105   107   ar
   141   105   106   ar
   142   112   113   ar
   143   107   109   ar
   144   106   108   ar
   145   113   111   ar
   146   109   108   ar
   147   109   111   ar
