@<TRIPOS>MOLECULE
tmp/5cxvA01.pdb
 170 166 0 0 0
SMALL
GASTEIGER

@<TRIPOS>ATOM
      1  N         -2.2580  -12.8060   38.2530 N.3    86  ASP86      -0.1225
      2  CA        -3.5110  -12.2370   38.7370 C.3    86  ASP86       0.1805
      3  C         -4.5060  -13.3270   39.1200 C.2    86  ASP86       0.2597
      4  O         -5.0990  -13.2880   40.2050 O.2    86  ASP86      -0.2718
      5  CB        -4.0990  -11.3080   37.6730 C.3    86  ASP86       0.1424
      6  CG        -4.9440  -10.2040   38.2700 C.2    86  ASP86       0.3668
      7  OD1       -4.9140  -10.0410   39.5070 O.co2  86  ASP86      -0.2456
      8  OD2       -5.6230   -9.4910   37.5020 O.co2  86  ASP86      -0.2456
      9  N         -4.6910  -14.3200   38.2460 N.am   87  TYR87      -0.1976
     10  CA        -5.6850  -15.3540   38.5250 C.3    87  TYR87       0.1639
     11  C         -5.2330  -16.2770   39.6520 C.2    87  TYR87       0.2290
     12  O         -6.0570  -16.7280   40.4590 O.2    87  TYR87      -0.2864
     13  CB        -5.9890  -16.1410   37.2520 C.3    87  TYR87       0.0560
     14  CG        -7.0200  -15.4630   36.3790 C.ar   87  TYR87      -0.0198
     15  CD1       -6.7310  -14.2710   35.7280 C.ar   87  TYR87      -0.0009
     16  CD2       -8.2860  -16.0090   36.2120 C.ar   87  TYR87      -0.0009
     17  CE1       -7.6730  -13.6420   34.9340 C.ar   87  TYR87       0.0417
     18  CE2       -9.2350  -15.3870   35.4180 C.ar   87  TYR87       0.0417
     19  CZ        -8.9220  -14.2040   34.7810 C.ar   87  TYR87       0.1957
     20  OH        -9.8600  -13.5790   33.9910 O.3    87  TYR87      -0.2866
     21  N         -5.7740  -14.2370   42.8950 N.3    90  SER90      -0.1202
     22  CA        -7.1850  -14.0750   43.2360 C.3    90  SER90       0.2020
     23  C         -7.8000  -15.3920   43.7010 C.2    90  SER90       0.2618
     24  O         -8.4950  -15.4380   44.7280 O.2    90  SER90      -0.2717
     25  CB        -7.9460  -13.5150   42.0380 C.3    90  SER90       0.2103
     26  OG        -7.3780  -12.2960   41.5900 O.3    90  SER90      -0.2182
     27  N         -7.5660  -16.4760   42.9530 N.am   91  GLN91      -0.1979
     28  CA        -8.0510  -17.7800   43.3960 C.3    91  GLN91       0.1601
     29  C         -7.4680  -18.1400   44.7550 C.2    91  GLN91       0.2287
     30  O         -8.1360  -18.7770   45.5790 O.2    91  GLN91      -0.2864
     31  CB        -7.7070  -18.8550   42.3680 C.3    91  GLN91       0.0394
     32  CG        -8.2060  -20.2390   42.7540 C.3    91  GLN91       0.0908
     33  CD        -9.7230  -20.3300   42.7160 C.2    91  GLN91       0.2608
     34  OE1      -10.2610  -20.7390   41.5750 O.2    91  GLN91      -0.2717
     35  NE2      -10.4020  -20.0200   43.6940 N.am   91  GLN91      -0.0878
     36  N         -9.6340  -16.3620   47.3250 N.3    94  VAL94      -0.1245
     37  CA       -10.8570  -17.1330   47.5550 C.3    94  VAL94       0.1561
     38  C        -10.5660  -18.3480   48.4310 C.2    94  VAL94       0.2260
     39  O        -11.3010  -18.6480   49.3830 O.2    94  VAL94      -0.2867
     40  CB       -11.4890  -17.5500   46.2140 C.3    94  VAL94       0.0252
     41  CG1      -12.5660  -18.5880   46.4410 C.3    94  VAL94       0.0019
     42  CG2      -12.0600  -16.3400   45.4950 C.3    94  VAL94       0.0019
     43  N         -4.5380  -22.4520   37.7830 N.3   138  TRP138     -0.1241
     44  CA        -4.5870  -21.3640   36.8060 C.3   138  TRP138      0.1605
     45  C         -3.3370  -21.1840   35.9530 C.2   138  TRP138      0.2264
     46  O         -3.4600  -20.8640   34.7680 O.2   138  TRP138     -0.2867
     47  CB        -4.9280  -20.0510   37.5190 C.3   138  TRP138      0.0550
     48  CG        -6.3850  -19.9820   37.8450 C.ar  138  TRP138      0.0003
     49  CD1       -6.9680  -20.1800   39.0620 C.ar  138  TRP138      0.0946
     50  CD2       -7.4540  -19.7400   36.9210 C.ar  138  TRP138      0.0152
     51  NE1       -8.3330  -20.0550   38.9570 N.ar  138  TRP138     -0.2442
     52  CE2       -8.6560  -19.7860   37.6530 C.ar  138  TRP138      0.0810
     53  CE3       -7.5090  -19.4780   35.5490 C.ar  138  TRP138      0.0012
     54  CZ2       -9.9000  -19.5780   37.0590 C.ar  138  TRP138      0.0191
     55  CZ3       -8.7430  -19.2740   34.9610 C.ar  138  TRP138      0.0001
     56  CH2       -9.9220  -19.3240   35.7150 C.ar  138  TRP138      0.0015
     57  N        -10.3840  -19.4640   27.6310 N.3   164  LEU164     -0.1245
     58  CA       -11.7390  -19.0310   27.9740 C.3   164  LEU164      0.1561
     59  C        -12.4310  -18.4520   26.7390 C.2   164  LEU164      0.2260
     60  O        -12.9080  -17.3170   26.7170 O.2   164  LEU164     -0.2867
     61  CB       -11.7040  -18.0300   29.1250 C.3   164  LEU164      0.0270
     62  CG       -11.2810  -18.6040   30.4820 C.3   164  LEU164      0.0019
     63  CD1      -11.0940  -17.5160   31.5240 C.3   164  LEU164      0.0001
     64  CD2      -12.2820  -19.6280   30.9750 C.3   164  LEU164      0.0001
     65  N        -16.2720  -19.9340   30.3250 N.3   170  THR170     -0.1218
     66  CA       -15.8740  -19.0640   31.4300 C.3   170  THR170      0.1862
     67  C        -16.9090  -19.0330   32.5500 C.2   170  THR170      0.2287
     68  O        -16.5560  -18.7220   33.6930 O.2   170  THR170     -0.2866
     69  CB       -15.5860  -17.6350   30.9460 C.3   170  THR170      0.1770
     70  OG1      -15.4080  -16.7720   32.0780 O.3   170  THR170     -0.2211
     71  CG2      -16.7130  -17.0970   30.1090 C.3   170  THR170      0.0375
     72  N        -16.2000  -22.1940   34.6720 N.3   173  THR173     -0.1203
     73  CA       -15.0810  -21.8680   35.5530 C.3   173  THR173      0.1994
     74  C        -15.4850  -20.8650   36.6270 C.2   173  THR173      0.2617
     75  O        -14.9580  -20.9110   37.7430 O.2   173  THR173     -0.2717
     76  CB       -13.8980  -21.3210   34.7550 C.3   173  THR173      0.1784
     77  OG1      -14.1310  -19.9440   34.4350 O.3   173  THR173     -0.2211
     78  CG2      -13.6990  -22.1130   33.4760 C.3   173  THR173      0.0376
     79  N        -16.4100  -19.9540   36.3120 N.am  174  ALA174     -0.1979
     80  CA       -16.8870  -19.0160   37.3220 C.3   174  ALA174      0.1597
     81  C        -17.6740  -19.7260   38.4140 C.2   174  ALA174      0.2287
     82  O        -17.6490  -19.2940   39.5740 O.2   174  ALA174     -0.2864
     83  CB       -17.7410  -17.9250   36.6760 C.3   174  ALA174      0.0319
     84  N        -14.9340  -21.6930   40.5260 N.3   177  ALA177     -0.1231
     85  CA       -13.9690  -20.8230   41.1840 C.3   177  ALA177      0.1694
     86  C        -14.6010  -19.8040   42.1220 C.2   177  ALA177      0.2592
     87  O        -13.9570  -19.3980   43.0970 O.2   177  ALA177     -0.2718
     88  CB       -13.1310  -20.0840   40.1370 C.3   177  ALA177      0.0304
     89  N        -15.8340  -19.3680   41.8580 N.am  178  PHE178     -0.1976
     90  CA       -16.4320  -18.2920   42.6420 C.3   178  PHE178      0.1639
     91  C        -17.7450  -18.6980   43.3000 C.2   178  PHE178      0.2290
     92  O        -17.8640  -18.6010   44.5250 O.2   178  PHE178     -0.2864
     93  CB       -16.6350  -17.0510   41.7630 C.3   178  PHE178      0.0560
     94  CG       -17.2790  -15.8990   42.4820 C.ar  178  PHE178     -0.0200
     95  CD1      -16.5440  -15.1160   43.3560 C.ar  178  PHE178     -0.0042
     96  CD2      -18.6170  -15.5960   42.2830 C.ar  178  PHE178     -0.0042
     97  CE1      -17.1300  -14.0560   44.0220 C.ar  178  PHE178     -0.0003
     98  CE2      -19.2090  -14.5350   42.9450 C.ar  178  PHE178     -0.0003
     99  CZ       -18.4640  -13.7640   43.8150 C.ar  178  PHE178     -0.0000
    100  N        -16.8450   -8.4680   44.1420 N.3   383  TRP383     -0.1241
    101  CA       -16.6380   -9.5230   43.1600 C.3   383  TRP383      0.1605
    102  C        -17.9120   -9.9840   42.4650 C.2   383  TRP383      0.2264
    103  O        -17.8250  -10.6190   41.4100 O.2   383  TRP383     -0.2867
    104  CB       -15.9780  -10.7370   43.8260 C.3   383  TRP383      0.0550
    105  CG       -14.5050  -10.5890   44.0250 C.ar  383  TRP383      0.0003
    106  CD1      -13.8520   -9.5240   44.5760 C.ar  383  TRP383      0.0946
    107  CD2      -13.5000  -11.5520   43.7020 C.ar  383  TRP383      0.0152
    108  NE1      -12.4990   -9.7600   44.6000 N.ar  383  TRP383     -0.2442
    109  CE2      -12.2580  -11.0000   44.0700 C.ar  383  TRP383      0.0810
    110  CE3      -13.5290  -12.8280   43.1300 C.ar  383  TRP383      0.0012
    111  CZ2      -11.0570  -11.6790   43.8850 C.ar  383  TRP383      0.0191
    112  CZ3      -12.3380  -13.4990   42.9470 C.ar  383  TRP383      0.0001
    113  CH2      -11.1180  -12.9250   43.3230 C.ar  383  TRP383      0.0015
    114  N        -19.0040   -8.7230   38.4820 N.3   386  TYR386     -0.1227
    115  CA       -18.3100   -9.3610   37.3670 C.3   386  TYR386      0.1736
    116  C        -18.8930  -10.7360   37.0670 C.2   386  TYR386      0.2595
    117  O        -19.1920  -11.0600   35.9110 O.2   386  TYR386     -0.2718
    118  CB       -16.8150   -9.4600   37.6730 C.3   386  TYR386      0.0548
    119  CG       -15.9970  -10.0310   36.5380 C.ar  386  TYR386     -0.0200
    120  CD1      -15.4960   -9.2110   35.5370 C.ar  386  TYR386     -0.0009
    121  CD2      -15.7260  -11.3900   36.4680 C.ar  386  TYR386     -0.0009
    122  CE1      -14.7490   -9.7290   34.4970 C.ar  386  TYR386      0.0417
    123  CE2      -14.9830  -11.9170   35.4330 C.ar  386  TYR386      0.0417
    124  CZ       -14.4950  -11.0840   34.4500 C.ar  386  TYR386      0.1957
    125  OH       -13.7520  -11.6090   33.4190 O.3   386  TYR386     -0.2866
    126  N        -19.0660  -11.5630   38.1010 N.am  387  ASN387     -0.1974
    127  CA       -19.5500  -12.9220   37.8830 C.3   387  ASN387      0.1688
    128  C        -21.0190  -12.9400   37.4720 C.2   387  ASN387      0.2292
    129  O        -21.4360  -13.8180   36.7030 O.2   387  ASN387     -0.2864
    130  CB       -19.3140  -13.7610   39.1390 C.3   387  ASN387      0.1181
    131  CG       -17.8360  -14.0300   39.3880 C.2   387  ASN387      0.2629
    132  OD1      -17.2290  -14.8760   38.7310 O.2   387  ASN387     -0.2716
    133  ND2      -17.2520  -13.3050   40.3360 N.am  387  ASN387     -0.0877
    134  N        -20.7660  -12.3850   33.8410 N.3   390  VAL390     -0.1245
    135  CA       -20.5040  -13.6530   33.1610 C.3   390  VAL390      0.1561
    136  C        -21.8040  -14.4320   32.9920 C.2   390  VAL390      0.2260
    137  O        -22.1780  -14.8280   31.8760 O.2   390  VAL390     -0.2867
    138  CB       -19.4500  -14.4670   33.9370 C.3   390  VAL390      0.0252
    139  CG1      -19.2570  -15.8260   33.3000 C.3   390  VAL390      0.0019
    140  CG2      -18.1300  -13.7130   34.0000 C.3   390  VAL390      0.0019
    141  N        -14.3980   -5.8950   36.0840 N.3   409  TYR409     -0.1241
    142  CA       -13.0860   -6.4990   36.2850 C.3   409  TYR409      0.1605
    143  C        -12.2570   -5.6720   37.2590 C.2   409  TYR409      0.2264
    144  O        -11.6350   -6.2150   38.1790 O.2   409  TYR409     -0.2867
    145  CB       -12.3650   -6.6330   34.9410 C.3   409  TYR409      0.0534
    146  CG       -11.1450   -7.5340   34.9490 C.ar  409  TYR409     -0.0201
    147  CD1       -9.9060   -7.0660   35.3730 C.ar  409  TYR409     -0.0009
    148  CD2      -11.2300   -8.8460   34.5050 C.ar  409  TYR409     -0.0009
    149  CE1       -8.7900   -7.8860   35.3680 C.ar  409  TYR409      0.0417
    150  CE2      -10.1230   -9.6710   34.4940 C.ar  409  TYR409      0.0417
    151  CZ        -8.9080   -9.1890   34.9300 C.ar  409  TYR409      0.1957
    152  OH        -7.8060  -10.0140   34.9210 O.3   409  TYR409     -0.2866
    153  N        -13.0600   -5.8770   41.2660 N.3   412  CYS412     -0.1221
    154  CA       -12.6430   -7.0180   42.0750 C.3   412  CYS412      0.1808
    155  C        -11.3450   -6.7500   42.8270 C.2   412  CYS412      0.2601
    156  O        -11.0520   -7.4450   43.8050 O.2   412  CYS412     -0.2717
    157  CB       -12.4880   -8.2610   41.1950 C.3   412  CYS412      0.0970
    158  SG       -13.9920   -8.7640   40.3260 S.3   412  CYS412     -0.0800
    159  N        -10.5680   -5.7550   42.3970 N.am  413  TYR413     -0.1976
    160  CA        -9.3050   -5.4260   43.0430 C.3   413  TYR413      0.1639
    161  C         -9.4780   -4.6940   44.3720 C.2   413  TYR413      0.2290
    162  O         -8.5480   -4.6940   45.1870 O.2   413  TYR413     -0.2864
    163  CB        -8.4570   -4.5580   42.1110 C.3   413  TYR413      0.0560
    164  CG        -7.9180   -5.2380   40.8680 C.ar  413  TYR413     -0.0198
    165  CD1       -7.5510   -6.5770   40.8790 C.ar  413  TYR413     -0.0009
    166  CD2       -7.7530   -4.5250   39.6860 C.ar  413  TYR413     -0.0009
    167  CE1       -7.0470   -7.1900   39.7410 C.ar  413  TYR413      0.0417
    168  CE2       -7.2530   -5.1270   38.5470 C.ar  413  TYR413      0.0417
    169  CZ        -6.9020   -6.4590   38.5790 C.ar  413  TYR413      0.1957
    170  OH        -6.4020   -7.0590   37.4450 O.3   413  TYR413     -0.2866
@<TRIPOS>BOND
     1    60    59    2
     2    59    58    1
     3    57    58    1
     4    58    61    1
     5    61    62    1
     6    71    69    1
     7    65    66    1
     8    62    64    1
     9    62    63    1
    10    69    66    1
    11    69    70    1
    12    66    67    1
    13   137   136    2
    14    67    68    2
    15   136   135    1
    16   135   134    1
    17   135   138    1
    18   139   138    1
    19   125   124    1
    20    78    76    1
    21   138   140    1
    22    20    19    1
    23    77    76    1
    24   124   122   ar
    25   124   123   ar
    26   150   148   ar
    27   150   151   ar
    28   122   120   ar
    29   148   146   ar
    30    72    73    1
    31    76    73    1
    32    46    45    2
    33    19    17   ar
    34    19    18   ar
    35   152   151    1
    36   151   149   ar
    37    17    15   ar
    38   145   146    1
    39   145   142    1
    40   146   147   ar
    41    55    53   ar
    42    55    56   ar
    43   149   147   ar
    44    18    16   ar
    45   123   121   ar
    46   120   119   ar
    47    53    50   ar
    48    73    74    1
    49    56    54   ar
    50    15    14   ar
    51   117   116    2
    52    45    44    1
    53   141   142    1
    54    16    14   ar
    55   142   143    1
    56    79    74   am
    57    79    80    1
    58    14    13    1
    59   121   119   ar
    60   119   118    1
    61    74    75    2
    62    83    80    1
    63   129   128    2
    64    44    47    1
    65    44    43    1
    66    50    52   ar
    67    50    48   ar
    68    54    52   ar
    69   116   115    1
    70   116   126   am
    71    13    10    1
    72   143   144    2
    73    80    81    1
    74   115   118    1
    75   115   114    1
    76   170   169    1
    77   128   127    1
    78     8     6   ar
    79    47    48    1
    80    52    51   ar
    81     5     6    1
    82     5     2    1
    83    48    49   ar
    84   127   126    1
    85   127   130    1
    86     9    10    1
    87     9     3   am
    88     1     2    1
    89     6     7   ar
    90    81    82    2
    91    10    11    1
    92   168   169   ar
    93   168   166   ar
    94   169   167   ar
    95   132   131    2
    96     2     3    1
    97    51    49   ar
    98     3     4    2
    99   130   131    1
   100   131   133   am
   101    11    12    2
   102   166   164   ar
   103   167   165   ar
   104    88    85    1
   105   158   157    1
   106    84    85    1
   107   164   165   ar
   108   164   163    1
   109    85    86    1
   110   157   154    1
   111   153   154    1
   112   103   102    2
   113    34    33    2
   114    26    25    1
   115    93    94    1
   116    93    90    1
   117    89    86   am
   118    89    90    1
   119    25    22    1
   120   154   155    1
   121   163   160    1
   122    86    87    2
   123    96    94   ar
   124    96    98   ar
   125    31    32    1
   126    31    28    1
   127   159   155   am
   128   159   160    1
   129   102   101    1
   130    94    95   ar
   131    90    91    1
   132    33    32    1
   133    33    35   am
   134   155   156    2
   135    21    22    1
   136    98    99   ar
   137   112   110   ar
   138   112   113   ar
   139    27    28    1
   140    27    23   am
   141   160   161    1
   142   110   107   ar
   143   101   104    1
   144   101   100    1
   145    22    23    1
   146    91    92    2
   147   113   111   ar
   148    95    97   ar
   149    28    29    1
   150    23    24    2
   151   107   105   ar
   152   107   109   ar
   153    99    97   ar
   154   104   105    1
   155   111   109   ar
   156   105   106   ar
   157   109   108   ar
   158   161   162    2
   159   106   108   ar
   160    29    30    2
   161    42    40    1
   162    40    41    1
   163    40    37    1
   164    36    37    1
   165    37    38    1
   166    38    39    2
