@<TRIPOS>MOLECULE
tmp/5cxvA00.pdb
 162 151 0 0 0
SMALL
GASTEIGER

@<TRIPOS>ATOM
      1  N         -3.9980  -17.7960   64.0620 N.3    41  ASN41      -0.1225
      2  CA        -5.0030  -16.9240   63.4620 C.3    41  ASN41       0.1785
      3  C         -4.3790  -16.0020   62.4220 C.2    41  ASN41       0.2597
      4  O         -4.9310  -15.8150   61.3310 O.2    41  ASN41      -0.2718
      5  CB        -5.7000  -16.0910   64.5410 C.3    41  ASN41       0.1169
      6  CG        -6.5820  -16.9220   65.4490 C.2    41  ASN41       0.2627
      7  OD1       -7.1860  -17.9050   65.0200 O.2    41  ASN41      -0.2716
      8  ND2       -6.6770  -16.5180   66.7120 N.am   41  ASN41      -0.0877
      9  N         -3.2170  -15.4270   62.7410 N.am   42  ASN42      -0.1974
     10  CA        -2.5840  -14.4520   61.8650 C.3    42  ASN42       0.1688
     11  C         -1.8010  -15.0910   60.7270 C.2    42  ASN42       0.2292
     12  O         -1.4130  -14.3810   59.7930 O.2    42  ASN42      -0.2864
     13  CB        -1.6640  -13.5380   62.6730 C.3    42  ASN42       0.1181
     14  CG        -2.4310  -12.6110   63.5970 C.2    42  ASN42       0.2629
     15  OD1       -3.6050  -12.3200   63.3680 O.2    42  ASN42      -0.2716
     16  ND2       -1.7670  -12.1420   64.6460 N.am   42  ASN42      -0.0877
     17  N         -4.3270  -14.5360   57.8790 N.3    45  LEU45      -0.1245
     18  CA        -4.3310  -13.1430   57.4440 C.3    45  LEU45       0.1561
     19  C         -3.0370  -12.7780   56.7310 C.2    45  LEU45       0.2260
     20  O         -3.0350  -11.9040   55.8580 O.2    45  LEU45      -0.2867
     21  CB        -4.5470  -12.2120   58.6350 C.3    45  LEU45       0.0270
     22  CG        -5.8360  -12.3800   59.4380 C.3    45  LEU45       0.0019
     23  CD1       -5.8420  -11.4210   60.6160 C.3    45  LEU45       0.0001
     24  CD2       -7.0480  -12.1550   58.5550 C.3    45  LEU45       0.0001
     25  N        -11.8910  -23.2170   59.1570 N.3   103  ASP103     -0.1225
     26  CA       -11.1740  -23.1780   60.4280 C.3   103  ASP103      0.1805
     27  C        -12.0790  -22.6970   61.5530 C.2   103  ASP103      0.2597
     28  O        -12.1350  -23.3060   62.6290 O.2   103  ASP103     -0.2718
     29  CB        -9.9520  -22.2710   60.3040 C.3   103  ASP103      0.1424
     30  CG        -9.1710  -22.1780   61.5930 C.2   103  ASP103      0.3668
     31  OD1       -8.5400  -23.1860   61.9590 O.co2 103  ASP103     -0.2456
     32  OD2       -9.1890  -21.1080   62.2380 O.co2 103  ASP103     -0.2456
     33  N        -12.7990  -21.5970   61.3120 N.am  104  ARG104     -0.1979
     34  CA       -13.7150  -21.0560   62.3110 C.3   104  ARG104      0.1597
     35  C        -14.8550  -22.0280   62.5960 C.2   104  ARG104      0.2287
     36  O        -15.2340  -22.2330   63.7590 O.2   104  ARG104     -0.2864
     37  CB       -14.2340  -19.7020   61.8240 C.3   104  ARG104      0.0334
     38  CG       -15.4570  -19.1380   62.5040 C.3   104  ARG104      0.0492
     39  CD       -15.6560  -17.7080   62.0100 C.3   104  ARG104      0.2205
     40  NE       -17.0580  -17.3670   61.8630 N.pl3 104  ARG104     -0.0865
     41  CZ       -17.6270  -16.3120   62.4300 C.cat 104  ARG104      0.5346
     42  NH1      -18.9190  -16.0520   62.2410 N.pl3 104  ARG104      0.1354
     43  NH2      -16.8950  -15.5000   63.1750 N.pl3 104  ARG104      0.1354
     44  N        -13.5300  -24.7600   64.7280 N.3   107  SER107     -0.1217
     45  CA       -13.2280  -24.2350   66.0550 C.3   107  SER107      0.1889
     46  C        -14.4850  -24.0840   66.8990 C.2   107  SER107      0.2288
     47  O        -14.4240  -24.2380   68.1250 O.2   107  SER107     -0.2866
     48  CB       -12.5000  -22.8950   65.9440 C.3   107  SER107      0.2089
     49  OG       -11.1200  -23.0800   65.6850 O.3   107  SER107     -0.2183
     50  N         -9.3900  -27.7680   68.2760 N.3   115  ARG115     -0.1245
     51  CA        -8.4560  -26.8410   68.9040 C.3   115  ARG115      0.1563
     52  C         -7.1620  -27.5230   69.3260 C.2   115  ARG115      0.2260
     53  O         -6.1250  -26.8580   69.4220 O.2   115  ARG115     -0.2867
     54  CB        -9.1130  -26.1750   70.1150 C.3   115  ARG115      0.0307
     55  CG        -8.1470  -25.2040   70.7690 C.3   115  ARG115      0.0489
     56  CD        -8.6780  -24.5940   72.0120 C.3   115  ARG115      0.2205
     57  NE        -9.2200  -25.5950   72.9220 N.pl3 115  ARG115     -0.0865
     58  CZ       -10.0430  -25.3140   73.9300 C.cat 115  ARG115      0.5346
     59  NH1      -10.4280  -24.0540   74.1810 N.pl3 115  ARG115      0.1354
     60  NH2      -10.5350  -26.3000   74.6550 N.pl3 115  ARG115      0.1354
     61  N         -4.7880  -27.4500   66.0560 N.3   118  ARG118     -0.1245
     62  CA        -4.5300  -26.1920   65.3540 C.3   118  ARG118      0.1563
     63  C         -3.1000  -25.7530   65.6520 C.2   118  ARG118      0.2260
     64  O         -2.8420  -24.7760   66.3570 O.2   118  ARG118     -0.2867
     65  CB        -5.5220  -25.1100   65.7530 C.3   118  ARG118      0.0307
     66  CG        -6.7910  -25.1000   64.9460 C.3   118  ARG118      0.0489
     67  CD        -7.1590  -23.6730   64.5720 C.3   118  ARG118      0.2205
     68  NE        -6.7990  -22.7670   65.6360 N.pl3 118  ARG118     -0.0865
     69  CZ        -6.6010  -21.4700   65.4650 C.cat 118  ARG118      0.5346
     70  NH1       -6.7250  -20.9300   64.2590 N.pl3 118  ARG118      0.1354
     71  NH2       -6.2770  -20.7120   66.5040 N.pl3 118  ARG118      0.1354
     72  N        -21.6160  -24.3110   71.5800 N.3   199  ARG199     -0.1245
     73  CA       -20.2230  -24.3020   72.0200 C.3   199  ARG199      0.1563
     74  C        -20.0850  -23.6740   73.4030 C.2   199  ARG199      0.2260
     75  O        -19.3310  -24.1770   74.2440 O.2   199  ARG199     -0.2867
     76  CB       -19.3370  -23.5740   71.0090 C.3   199  ARG199      0.0307
     77  CG       -17.8930  -23.3780   71.4780 C.3   199  ARG199      0.0489
     78  CD       -17.6520  -21.9600   71.9510 C.3   199  ARG199      0.2205
     79  NE       -17.4490  -21.0940   70.8010 N.pl3 199  ARG199     -0.0865
     80  CZ       -17.4860  -19.7700   70.8410 C.cat 199  ARG199      0.5346
     81  NH1      -17.7240  -19.1380   71.9820 N.pl3 199  ARG199      0.1354
     82  NH2      -17.2960  -19.0850   69.7270 N.pl3 199  ARG199      0.1354
     83  N        -18.3830  -25.4420   76.6610 N.3   203  GLU203     -0.1245
     84  CA       -17.2660  -24.8900   77.4220 C.3   203  GLU203      0.1567
     85  C        -17.6530  -24.6280   78.8720 C.2   203  GLU203      0.2260
     86  O        -16.8490  -24.8570   79.7830 O.2   203  GLU203     -0.2867
     87  CB       -16.7660  -23.6090   76.7590 C.3   203  GLU203      0.0388
     88  CG       -15.9850  -23.8490   75.4820 C.3   203  GLU203      0.1160
     89  CD       -14.6290  -24.4680   75.7440 C.2   203  GLU203      0.3649
     90  OE1      -13.7010  -23.7280   76.1340 O.co2 203  GLU203     -0.2457
     91  OE2      -14.4910  -25.6980   75.5730 O.co2 203  GLU203     -0.2457
     92  N        -15.7800  -26.3820   82.0000 N.3   207  ILE207     -0.1245
     93  CA       -15.2240  -25.6400   83.1270 C.3   207  ILE207      0.1561
     94  C        -15.7320  -26.2130   84.4420 C.2   207  ILE207      0.2260
     95  O        -14.9650  -26.3920   85.3970 O.2   207  ILE207     -0.2867
     96  CB       -15.5570  -24.1410   83.0040 C.3   207  ILE207      0.0252
     97  CG1      -14.8210  -23.5160   81.8190 C.3   207  ILE207      0.0019
     98  CG2      -15.2140  -23.4050   84.2910 C.3   207  ILE207      0.0019
     99  CD1      -15.2530  -22.0960   81.5160 C.3   207  ILE207      0.0001
    100  N        -16.5980  -16.9500   80.8850 N.3   360  PHE360     -0.1227
    101  CA       -15.6420  -16.4280   79.9180 C.3   360  PHE360      0.1736
    102  C        -16.1430  -15.1130   79.3420 C.2   360  PHE360      0.2596
    103  O        -17.3420  -14.8230   79.3390 O.2   360  PHE360     -0.2718
    104  CB       -15.3740  -17.4290   78.7860 C.3   360  PHE360      0.0547
    105  CG       -16.5300  -18.3430   78.4910 C.ar  360  PHE360     -0.0202
    106  CD1      -17.6180  -17.8980   77.7560 C.ar  360  PHE360     -0.0042
    107  CD2      -16.5180  -19.6550   78.9340 C.ar  360  PHE360     -0.0042
    108  CE1      -18.6800  -18.7430   77.4820 C.ar  360  PHE360     -0.0003
    109  CE2      -17.5750  -20.5040   78.6630 C.ar  360  PHE360     -0.0003
    110  CZ       -18.6560  -20.0470   77.9360 C.ar  360  PHE360     -0.0000
    111  N        -15.1920  -14.3220   78.8530 N.am  361  SER361     -0.1938
    112  CA       -15.4610  -13.1090   78.0980 C.3   361  SER361      0.2055
    113  C        -15.3140  -13.3980   76.6100 C.2   361  SER361      0.2643
    114  O        -14.3630  -14.0630   76.1890 O.2   361  SER361     -0.2714
    115  CB       -14.5080  -11.9850   78.5110 C.3   361  SER361      0.2130
    116  OG       -14.7140  -10.8250   77.7240 O.3   361  SER361     -0.2179
    117  N        -16.2610  -12.8950   75.8160 N.am  362  LEU362     -0.1963
    118  CA       -16.2940  -13.1530   74.3790 C.3   362  LEU362      0.1728
    119  C        -16.1280  -11.8790   73.5550 C.2   362  LEU362      0.2616
    120  O        -16.5130  -11.8520   72.3800 O.2   362  LEU362     -0.2715
    121  CB       -17.5940  -13.8650   73.9990 C.3   362  LEU362      0.0311
    122  CG       -17.8230  -15.2430   74.6260 C.3   362  LEU362      0.0022
    123  CD1      -19.1860  -15.8010   74.2380 C.3   362  LEU362      0.0001
    124  CD2      -16.7150  -16.2010   74.2210 C.3   362  LEU362      0.0001
    125  N        -15.5490  -10.8290   74.1440 N.am  363  VAL363     -0.1963
    126  CA       -15.4120   -9.5470   73.4510 C.3   363  VAL363      0.1727
    127  C        -14.5330   -9.6980   72.2120 C.2   363  VAL363      0.2616
    128  O        -14.9480   -9.3840   71.0870 O.2   363  VAL363     -0.2715
    129  CB       -14.8500   -8.4810   74.4100 C.3   363  VAL363      0.0290
    130  CG1      -14.3500   -7.2760   73.6410 C.3   363  VAL363      0.0023
    131  CG2      -15.9130   -8.0640   75.4150 C.3   363  VAL363      0.0023
    132  N        -13.3020  -10.1780   72.4080 N.am  364  LYS364     -0.1963
    133  CA       -12.3630  -10.3280   71.2990 C.3   364  LYS364      0.1728
    134  C        -12.9360  -11.2160   70.2040 C.2   364  LYS364      0.2616
    135  O        -12.7180  -10.9680   69.0110 O.2   364  LYS364     -0.2715
    136  CB       -11.0390  -10.8960   71.8110 C.3   364  LYS364      0.0311
    137  CG        -9.9620  -10.8720   70.7740 C.3   364  LYS364      0.0038
    138  CD        -9.4380   -9.4930   70.4370 C.3   364  LYS364      0.0206
    139  CE        -8.2170   -9.6160   69.5290 C.3   364  LYS364      0.1093
    140  NZ        -7.9280   -8.3950   68.7390 N.3   364  LYS364     -0.1314
    141  N        -13.6880  -12.2480   70.5890 N.am  365  GLU365     -0.1977
    142  CA       -14.2500  -13.1500   69.5920 C.3   365  GLU365      0.1602
    143  C        -15.3630  -12.4780   68.7990 C.2   365  GLU365      0.2287
    144  O        -15.4550  -12.6560   67.5790 O.2   365  GLU365     -0.2864
    145  CB       -14.7690  -14.4180   70.2590 C.3   365  GLU365      0.0415
    146  CG       -14.6540  -15.6320   69.3740 C.3   365  GLU365      0.1163
    147  CD       -15.7280  -16.6530   69.6570 C.2   365  GLU365      0.3649
    148  OE1      -16.8870  -16.2450   69.8860 O.co2 365  GLU365     -0.2457
    149  OE2      -15.4100  -17.8610   69.6520 O.co2 365  GLU365     -0.2457
    150  N        -13.7370  -10.2370   66.3720 N.3   368  ALA368     -0.1245
    151  CA       -13.2020  -11.0430   65.2780 C.3   368  ALA368      0.1562
    152  C        -14.3030  -11.4400   64.3010 C.2   368  ALA368      0.2260
    153  O        -14.0870  -11.4550   63.0810 O.2   368  ALA368     -0.2867
    154  CB       -12.5000  -12.2800   65.8340 C.3   368  ALA368      0.0290
    155  N         -8.1140   -3.6720   65.2870 N.3   427  ASN427     -0.1240
    156  CA        -7.4580   -4.6450   66.1450 C.3   427  ASN427      0.1653
    157  C         -6.1940   -4.0200   66.7200 C.2   427  ASN427      0.2266
    158  O         -5.3880   -3.4440   65.9820 O.2   427  ASN427     -0.2867
    159  CB        -7.1220   -5.9150   65.3650 C.3   427  ASN427      0.1155
    160  CG        -6.3470   -6.9250   66.1920 C.2   427  ASN427      0.2627
    161  OD1       -6.3180   -6.8550   67.4210 O.2   427  ASN427     -0.2716
    162  ND2       -5.7130   -7.8740   65.5170 N.am  427  ASN427     -0.0877
@<TRIPOS>BOND
     1    20    19    2
     2    19    18    1
     3    18    17    1
     4    18    21    1
     5    24    22    1
     6    21    22    1
     7    25    26    1
     8    22    23    1
     9    12    11    2
    10    29    26    1
    11    29    30    1
    12    26    27    1
    13    11    10    1
    14    33    27   am
    15    33    34    1
    16     4     3    2
    17    27    28    2
    18    30    31   ar
    19    30    32   ar
    20    37    34    1
    21    37    38    1
    22    40    39    1
    23    40    41    2
    24    10    13    1
    25    10     9    1
    26    39    38    1
    27    42    41    1
    28    34    35    1
    29     3     9   am
    30     3     2    1
    31    41    43    1
    32    35    36    2
    33    13    14    1
    34   153   152    2
    35    15    14    2
    36     2     1    1
    37     2     5    1
    38    14    16   am
    39    70    69    1
    40   152   151    1
    41     5     6    1
    42    67    66    1
    43    67    68    1
    44    44    45    1
    45    66    65    1
    46     7     6    2
    47   151   154    1
    48   151   150    1
    49   155   156    1
    50    62    63    1
    51    62    65    1
    52    62    61    1
    53   159   156    1
    54   159   160    1
    55     6     8   am
    56    69    68    2
    57    69    71    1
    58   162   160   am
    59    63    64    2
    60    49    48    1
    61    48    45    1
    62   158   157    2
    63    45    46    1
    64   156   157    1
    65   160   161    2
    66    46    47    2
    67   144   143    2
    68    50    51    1
    69   140   139    1
    70   143   142    1
    71    51    52    1
    72    51    54    1
    73   135   134    2
    74    52    53    2
    75   146   147    1
    76   146   145    1
    77   139   138    1
    78   142   145    1
    79   142   141    1
    80   149   147   ar
    81   147   148   ar
    82    82    80    1
    83    54    55    1
    84   134   141   am
    85   134   133    1
    86   138   137    1
    87    55    56    1
    88   137   136    1
    89    79    80    2
    90    79    78    1
    91    80    81    1
    92    76    77    1
    93    76    73    1
    94   128   127    2
    95   133   136    1
    96   133   132    1
    97    77    78    1
    98    72    73    1
    99    56    57    1
   100    73    74    1
   101   127   132   am
   102   127   126    1
   103   120   119    2
   104    57    58    2
   105    74    75    2
   106   126   125    1
   107   126   129    1
   108   119   125   am
   109   119   118    1
   110   130   129    1
   111    58    59    1
   112    58    60    1
   113   121   118    1
   114   121   122    1
   115   124   122    1
   116   123   122    1
   117   118   117    1
   118   129   131    1
   119    88    89    1
   120    88    87    1
   121    91    89   ar
   122    89    90   ar
   123   117   113   am
   124   114   113    2
   125   113   112    1
   126    83    84    1
   127    87    84    1
   128    84    85    1
   129   108   106   ar
   130   108   110   ar
   131   116   115    1
   132   106   105   ar
   133   110   109   ar
   134   112   115    1
   135   112   111    1
   136   105   104    1
   137   105   107   ar
   138   109   107   ar
   139   104   101    1
   140   111   102   am
   141    85    86    2
   142   103   102    2
   143   102   101    1
   144   101   100    1
   145    99    97    1
   146    97    96    1
   147    92    93    1
   148    96    93    1
   149    96    98    1
   150    93    94    1
   151    94    95    2
