@<TRIPOS>MOLECULE
tmp/5cxvA03.pdb
 120 110 0 0 0
SMALL
GASTEIGER

@<TRIPOS>ATOM
      1  N         -3.9980  -17.7960   64.0620 N.3    41  ASN41      -0.1240
      2  CA        -5.0030  -16.9240   63.4620 C.3    41  ASN41       0.1653
      3  C         -4.3790  -16.0020   62.4220 C.2    41  ASN41       0.2266
      4  O         -4.9310  -15.8150   61.3310 O.2    41  ASN41      -0.2867
      5  CB        -5.7000  -16.0910   64.5410 C.3    41  ASN41       0.1155
      6  CG        -6.5820  -16.9220   65.4490 C.2    41  ASN41       0.2627
      7  OD1       -7.1860  -17.9050   65.0200 O.2    41  ASN41      -0.2716
      8  ND2       -6.6770  -16.5180   66.7120 N.am   41  ASN41      -0.0877
      9  N         -3.2510  -17.0810   58.6040 N.3    44  PHE44      -0.1227
     10  CA        -4.2140  -16.9520   57.5140 C.3    44  PHE44       0.1736
     11  C         -4.2680  -15.5250   56.9810 C.2    44  PHE44       0.2595
     12  O         -4.2660  -15.3080   55.7620 O.2    44  PHE44      -0.2718
     13  CB        -5.5990  -17.4000   57.9850 C.3    44  PHE44       0.0547
     14  CG        -5.6600  -18.8390   58.4240 C.ar   44  PHE44      -0.0202
     15  CD1       -5.7000  -19.8600   57.4890 C.ar   44  PHE44      -0.0042
     16  CD2       -5.6900  -19.1690   59.7700 C.ar   44  PHE44      -0.0042
     17  CE1       -5.7600  -21.1840   57.8860 C.ar   44  PHE44      -0.0003
     18  CE2       -5.7500  -20.4940   60.1740 C.ar   44  PHE44      -0.0003
     19  CZ        -5.7850  -21.5010   59.2300 C.ar   44  PHE44      -0.0000
     20  N         -4.3270  -14.5360   57.8790 N.am   45  LEU45      -0.1980
     21  CA        -4.3310  -13.1430   57.4440 C.3    45  LEU45       0.1596
     22  C         -3.0370  -12.7780   56.7310 C.2    45  LEU45       0.2287
     23  O         -3.0350  -11.9040   55.8580 O.2    45  LEU45      -0.2864
     24  CB        -4.5470  -12.2120   58.6350 C.3    45  LEU45       0.0297
     25  CG        -5.8360  -12.3800   59.4380 C.3    45  LEU45       0.0022
     26  CD1       -5.8420  -11.4210   60.6160 C.3    45  LEU45       0.0001
     27  CD2       -7.0480  -12.1550   58.5550 C.3    45  LEU45       0.0001
     28  N        -10.2670  -19.9960   56.0710 N.3   100  ILE100     -0.1245
     29  CA       -10.6520  -19.2910   57.2900 C.3   100  ILE100      0.1561
     30  C        -12.0480  -19.7140   57.7310 C.2   100  ILE100      0.2260
     31  O        -12.2910  -19.9700   58.9190 O.2   100  ILE100     -0.2867
     32  CB       -10.5650  -17.7690   57.0680 C.3   100  ILE100      0.0252
     33  CG1       -9.1080  -17.3330   56.9050 C.3   100  ILE100      0.0019
     34  CG2      -11.2300  -17.0160   58.2070 C.3   100  ILE100      0.0019
     35  CD1       -8.9470  -15.8670   56.5550 C.3   100  ILE100      0.0001
     36  N        -11.8910  -23.2170   59.1570 N.3   103  ASP103     -0.1225
     37  CA       -11.1740  -23.1780   60.4280 C.3   103  ASP103      0.1805
     38  C        -12.0790  -22.6970   61.5530 C.2   103  ASP103      0.2597
     39  O        -12.1350  -23.3060   62.6290 O.2   103  ASP103     -0.2718
     40  CB        -9.9520  -22.2710   60.3040 C.3   103  ASP103      0.1424
     41  CG        -9.1710  -22.1780   61.5930 C.2   103  ASP103      0.3668
     42  OD1       -8.5400  -23.1860   61.9590 O.co2 103  ASP103     -0.2456
     43  OD2       -9.1890  -21.1080   62.2380 O.co2 103  ASP103     -0.2456
     44  N        -12.7990  -21.5970   61.3120 N.am  104  ARG104     -0.1979
     45  CA       -13.7150  -21.0560   62.3110 C.3   104  ARG104      0.1597
     46  C        -14.8550  -22.0280   62.5960 C.2   104  ARG104      0.2287
     47  O        -15.2340  -22.2330   63.7590 O.2   104  ARG104     -0.2864
     48  CB       -14.2340  -19.7020   61.8240 C.3   104  ARG104      0.0334
     49  CG       -15.4570  -19.1380   62.5040 C.3   104  ARG104      0.0492
     50  CD       -15.6560  -17.7080   62.0100 C.3   104  ARG104      0.2205
     51  NE       -17.0580  -17.3670   61.8630 N.pl3 104  ARG104     -0.0865
     52  CZ       -17.6270  -16.3120   62.4300 C.cat 104  ARG104      0.5346
     53  NH1      -18.9190  -16.0520   62.2410 N.pl3 104  ARG104      0.1354
     54  NH2      -16.8950  -15.5000   63.1750 N.pl3 104  ARG104      0.1354
     55  N        -13.5300  -24.7600   64.7280 N.3   107  SER107     -0.1202
     56  CA       -13.2280  -24.2350   66.0550 C.3   107  SER107      0.2020
     57  C        -14.4850  -24.0840   66.8990 C.2   107  SER107      0.2618
     58  O        -14.4240  -24.2380   68.1250 O.2   107  SER107     -0.2717
     59  CB       -12.5000  -22.8950   65.9440 C.3   107  SER107      0.2103
     60  OG       -11.1200  -23.0800   65.6850 O.3   107  SER107     -0.2182
     61  N        -15.6260  -23.7910   66.2780 N.am  108  VAL108     -0.1979
     62  CA       -16.8740  -23.6760   67.0330 C.3   108  VAL108      0.1595
     63  C        -17.5390  -25.0330   67.2320 C.2   108  VAL108      0.2287
     64  O        -18.0040  -25.3540   68.3290 O.2   108  VAL108     -0.2864
     65  CB       -17.8290  -22.6790   66.3410 C.3   108  VAL108      0.0276
     66  CG1      -19.1730  -22.6640   67.0430 C.3   108  VAL108      0.0022
     67  CG2      -17.2260  -21.2860   66.3390 C.3   108  VAL108      0.0022
     68  N        -22.1650  -21.3220   61.8060 N.3   192  ILE192     -0.1245
     69  CA       -21.5360  -20.8420   63.0350 C.3   192  ILE192      0.1561
     70  C        -22.5030  -19.9510   63.8090 C.2   192  ILE192      0.2260
     71  O        -22.5620  -20.0080   65.0440 O.2   192  ILE192     -0.2867
     72  CB       -20.1940  -20.1180   62.7800 C.3   192  ILE192      0.0252
     73  CG1      -19.1540  -20.9690   62.0100 C.3   192  ILE192      0.0019
     74  CG2      -19.6400  -19.5700   64.1220 C.3   192  ILE192      0.0019
     75  CD1      -19.0360  -20.7200   60.5250 C.3   192  ILE192      0.0001
     76  N        -22.7650  -21.2500   68.0070 N.3   196  THR196     -0.1218
     77  CA       -22.0220  -20.6150   69.0880 C.3   196  THR196      0.1862
     78  C        -22.6520  -20.9000   70.4490 C.2   196  THR196      0.2287
     79  O        -21.9290  -21.1140   71.4290 O.2   196  THR196     -0.2866
     80  CB       -21.9160  -19.1090   68.8290 C.3   196  THR196      0.1770
     81  OG1      -21.1780  -18.8920   67.6190 O.3   196  THR196     -0.2211
     82  CG2      -21.1970  -18.4160   69.9730 C.3   196  THR196      0.0375
     83  N        -21.6160  -24.3110   71.5800 N.3   199  ARG199     -0.1245
     84  CA       -20.2230  -24.3020   72.0200 C.3   199  ARG199      0.1563
     85  C        -20.0850  -23.6740   73.4030 C.2   199  ARG199      0.2260
     86  O        -19.3310  -24.1770   74.2440 O.2   199  ARG199     -0.2867
     87  CB       -19.3370  -23.5740   71.0090 C.3   199  ARG199      0.0307
     88  CG       -17.8930  -23.3780   71.4780 C.3   199  ARG199      0.0489
     89  CD       -17.6520  -21.9600   71.9510 C.3   199  ARG199      0.2205
     90  NE       -17.4490  -21.0940   70.8010 N.pl3 199  ARG199     -0.0865
     91  CZ       -17.4860  -19.7700   70.8410 C.cat 199  ARG199      0.5346
     92  NH1      -17.7240  -19.1380   71.9820 N.pl3 199  ARG199      0.1354
     93  NH2      -17.2960  -19.0850   69.7270 N.pl3 199  ARG199      0.1354
     94  N        -13.6880  -12.2480   70.5890 N.3   365  GLU365     -0.1245
     95  CA       -14.2500  -13.1500   69.5920 C.3   365  GLU365      0.1567
     96  C        -15.3630  -12.4780   68.7990 C.2   365  GLU365      0.2260
     97  O        -15.4550  -12.6560   67.5790 O.2   365  GLU365     -0.2867
     98  CB       -14.7690  -14.4180   70.2590 C.3   365  GLU365      0.0388
     99  CG       -14.6540  -15.6320   69.3740 C.3   365  GLU365      0.1160
    100  CD       -15.7280  -16.6530   69.6570 C.2   365  GLU365      0.3649
    101  OE1      -16.8870  -16.2450   69.8860 O.co2 365  GLU365     -0.2457
    102  OE2      -15.4100  -17.8610   69.6520 O.co2 365  GLU365     -0.2457
    103  N        -13.7370  -10.2370   66.3720 N.3   368  ALA368     -0.1231
    104  CA       -13.2020  -11.0430   65.2780 C.3   368  ALA368      0.1694
    105  C        -14.3030  -11.4400   64.3010 C.2   368  ALA368      0.2591
    106  O        -14.0870  -11.4550   63.0810 O.2   368  ALA368     -0.2718
    107  CB       -12.5000  -12.2800   65.8340 C.3   368  ALA368      0.0304
    108  N        -15.4940  -11.7550   64.8200 N.am  369  ALA369     -0.1980
    109  CA       -16.6290  -12.0440   63.9510 C.3   369  ALA369      0.1597
    110  C        -16.9950  -10.8300   63.1070 C.2   369  ALA369      0.2287
    111  O        -17.2590  -10.9580   61.9040 O.2   369  ALA369     -0.2864
    112  CB       -17.8250  -12.5020   64.7860 C.3   369  ALA369      0.0319
    113  N        -14.3820  -10.5570   60.2820 N.3   372  LEU372     -0.1245
    114  CA       -14.5570  -11.5390   59.2160 C.3   372  LEU372      0.1561
    115  C        -15.7860  -11.2280   58.3670 C.2   372  LEU372      0.2260
    116  O        -15.7420  -11.3370   57.1340 O.2   372  LEU372     -0.2867
    117  CB       -14.6520  -12.9450   59.8050 C.3   372  LEU372      0.0270
    118  CG       -14.8060  -14.0540   58.7650 C.3   372  LEU372      0.0019
    119  CD1      -13.5380  -14.1850   57.9370 C.3   372  LEU372      0.0001
    120  CD2      -15.1680  -15.3780   59.4150 C.3   372  LEU372      0.0001
@<TRIPOS>BOND
     1    12    11    2
     2    23    22    2
     3    28    29    1
     4    35    33    1
     5    22    21    1
     6    33    32    1
     7    11    10    1
     8    11    20   am
     9    32    29    1
    10    32    34    1
    11   116   115    2
    12    29    30    1
    13    21    20    1
    14    21    24    1
    15    15    17   ar
    16    15    14   ar
    17    10    13    1
    18    10     9    1
    19    30    31    2
    20    17    19   ar
    21   119   118    1
    22    13    14    1
    23   115   114    1
    24    14    16   ar
    25    27    25    1
    26    24    25    1
    27   118   120    1
    28   118   117    1
    29    36    37    1
    30   114   117    1
    31   114   113    1
    32    19    18   ar
    33    25    26    1
    34    16    18   ar
    35    40    37    1
    36    40    41    1
    37    37    38    1
    38    75    73    1
    39    44    38   am
    40    44    45    1
    41     4     3    2
    42    38    39    2
    43    41    42   ar
    44    41    43   ar
    45    68    69    1
    46    48    45    1
    47    48    49    1
    48    51    50    1
    49    51    52    2
    50   111   110    2
    51    73    72    1
    52    50    49    1
    53    53    52    1
    54    45    46    1
    55     3     2    1
    56    52    54    1
    57    46    47    2
    58    72    69    1
    59    72    74    1
    60    69    70    1
    61   106   105    2
    62   110   109    1
    63     2     1    1
    64     2     5    1
    65    70    71    2
    66   109   112    1
    67   109   108    1
    68   105   108   am
    69   105   104    1
    70     5     6    1
    71    55    56    1
    72     7     6    2
    73   104   107    1
    74   104   103    1
    75     6     8   am
    76    60    59    1
    77    59    56    1
    78    56    57    1
    79    61    57   am
    80    61    62    1
    81    67    65    1
    82    65    62    1
    83    65    66    1
    84    57    58    2
    85    62    63    1
    86    63    64    2
    87    97    96    2
    88    81    80    1
    89    76    77    1
    90    96    95    1
    91    80    77    1
    92    80    82    1
    93    77    78    1
    94    99   100    1
    95    99    98    1
    96    95    98    1
    97    95    94    1
    98   102   100   ar
    99   100   101   ar
   100    93    91    1
   101    78    79    2
   102    90    91    2
   103    90    89    1
   104    91    92    1
   105    87    88    1
   106    87    84    1
   107    88    89    1
   108    83    84    1
   109    84    85    1
   110    85    86    2
