@<TRIPOS>MOLECULE
tmp/5cxvA02.pdb
 117 110 0 0 0
SMALL
GASTEIGER

@<TRIPOS>ATOM
      1  N          3.8480   -8.6220   61.3700 N.3    31  PHE31      -0.1241
      2  CA         3.9330  -10.0300   61.7470 C.3    31  PHE31       0.1605
      3  C          5.3820  -10.4660   61.9090 C.2    31  PHE31       0.2264
      4  O          5.7290  -11.1680   62.8670 O.2    31  PHE31      -0.2867
      5  CB         3.2320  -10.9010   60.7050 C.3    31  PHE31       0.0534
      6  CG         3.1390  -12.3520   61.0870 C.ar   31  PHE31      -0.0203
      7  CD1        4.1730  -13.2340   60.7980 C.ar   31  PHE31      -0.0042
      8  CD2        2.0150  -12.8370   61.7300 C.ar   31  PHE31      -0.0042
      9  CE1        4.0820  -14.5680   61.1470 C.ar   31  PHE31      -0.0003
     10  CE2        1.9180  -14.1690   62.0800 C.ar   31  PHE31      -0.0003
     11  CZ         2.9530  -15.0350   61.7890 C.ar   31  PHE31      -0.0000
     12  N          2.4330  -13.3280   66.1520 N.3    38  LYS38      -0.1245
     13  CA         2.7400  -14.5870   65.4730 C.3    38  LYS38       0.1561
     14  C          1.8290  -15.7120   65.9700 C.2    38  LYS38       0.2260
     15  O          2.2660  -16.7100   66.5420 O.2    38  LYS38      -0.2867
     16  CB         4.2110  -14.9400   65.6450 C.3    38  LYS38       0.0271
     17  CG         5.1550  -13.8160   65.2690 C.3    38  LYS38       0.0035
     18  CD         6.6050  -14.2200   65.4740 C.3    38  LYS38       0.0206
     19  CE         7.5380  -13.3360   64.6670 C.3    38  LYS38       0.1093
     20  NZ         7.8430  -13.9040   63.3290 N.3    38  LYS38      -0.1314
     21  N         -1.5440  -16.4030   60.7850 N.3    43  TYR43      -0.1241
     22  CA        -1.0250  -17.0900   59.6030 C.3    43  TYR43       0.1605
     23  C         -1.9460  -16.8700   58.4020 C.2    43  TYR43       0.2264
     24  O         -1.4970  -16.4980   57.3070 O.2    43  TYR43      -0.2867
     25  CB        -0.8600  -18.5890   59.8810 C.3    43  TYR43       0.0534
     26  CG         0.3190  -18.9780   60.7570 C.ar   43  TYR43      -0.0201
     27  CD1        0.8930  -18.0720   61.6390 C.ar   43  TYR43      -0.0009
     28  CD2        0.8580  -20.2590   60.6950 C.ar   43  TYR43      -0.0009
     29  CE1        1.9650  -18.4290   62.4390 C.ar   43  TYR43       0.0417
     30  CE2        1.9320  -20.6240   61.4910 C.ar   43  TYR43       0.0417
     31  CZ         2.4810  -19.7040   62.3600 C.ar   43  TYR43       0.1957
     32  OH         3.5480  -20.0580   63.1530 O.3    43  TYR43      -0.2866
     33  N         -1.9300  -13.4210   57.1040 N.3    46  LEU46      -0.1231
     34  CA        -0.6720  -13.1990   56.4010 C.3    46  LEU46       0.1693
     35  C         -0.7530  -13.7150   54.9710 C.2    46  LEU46       0.2592
     36  O         -0.2940  -13.0490   54.0330 O.2    46  LEU46      -0.2718
     37  CB         0.4680  -13.8780   57.1570 C.3    46  LEU46       0.0284
     38  CG         1.8900  -13.3690   56.9230 C.3    46  LEU46       0.0019
     39  CD1        2.0010  -11.9260   57.3750 C.3    46  LEU46       0.0001
     40  CD2        2.8970  -14.2380   57.6590 C.3    46  LEU46       0.0001
     41  N         -1.3440  -14.8970   54.7840 N.am   47  SER47      -0.1952
     42  CA        -1.4930  -15.4370   53.4360 C.3    47  SER47       0.1924
     43  C         -2.4310  -14.5730   52.5870 C.2    47  SER47       0.2314
     44  O         -2.1090  -14.2340   51.4340 O.2    47  SER47      -0.2863
     45  CB        -1.9780  -16.8800   53.5320 C.3    47  SER47       0.2116
     46  OG        -2.2390  -17.4340   52.2550 O.3    47  SER47      -0.2180
     47  N         -0.6230  -11.6760   51.4790 N.3    50  CYS50      -0.1235
     48  CA         0.2630  -11.9580   50.3560 C.3    50  CYS50       0.1677
     49  C         -0.4940  -11.8990   49.0350 C.2    50  CYS50       0.2270
     50  O         -0.0070  -11.3090   48.0590 O.2    50  CYS50      -0.2867
     51  CB         0.9390  -13.3160   50.5460 C.3    50  CYS50       0.0956
     52  SG         2.1180  -13.3460   51.9210 S.3    50  CYS50      -0.0801
     53  N          0.2350   -9.0750   46.1470 N.3    54  ILE54      -0.1245
     54  CA         0.4990   -9.3600   44.7340 C.3    54  ILE54       0.1561
     55  C         -0.4310   -8.5440   43.8440 C.2    54  ILE54       0.2260
     56  O          0.0110   -7.8210   42.9350 O.2    54  ILE54      -0.2867
     57  CB         0.3560  -10.8680   44.4580 C.3    54  ILE54       0.0252
     58  CG1        1.5030  -11.6460   45.1060 C.3    54  ILE54       0.0019
     59  CG2        0.2850  -11.1370   42.9650 C.3    54  ILE54       0.0019
     60  CD1        1.3180  -13.1500   45.0640 C.3    54  ILE54       0.0001
     61  N         -0.3170  -14.5470   37.1520 N.3    85  LEU85      -0.1245
     62  CA        -0.1420  -14.0000   38.4940 C.3    85  LEU85       0.1561
     63  C         -1.4650  -13.5060   39.0680 C.2    85  LEU85       0.2260
     64  O         -1.7820  -13.7650   40.2360 O.2    85  LEU85      -0.2867
     65  CB         0.8870  -12.8690   38.4530 C.3    85  LEU85       0.0270
     66  CG         1.5300  -12.4260   39.7660 C.3    85  LEU85       0.0019
     67  CD1        1.9950  -13.6350   40.5560 C.3    85  LEU85       0.0001
     68  CD2        2.6910  -11.4770   39.4970 C.3    85  LEU85       0.0001
     69  N         -3.9310  -16.5640   39.7320 N.3    88  VAL88      -0.1245
     70  CA        -3.4200  -17.3810   40.8310 C.3    88  VAL88       0.1561
     71  C         -3.6020  -16.6570   42.1590 C.2    88  VAL88       0.2260
     72  O         -4.0440  -17.2460   43.1540 O.2    88  VAL88      -0.2867
     73  CB        -1.9460  -17.7550   40.5880 C.3    88  VAL88       0.0252
     74  CG1       -1.3190  -18.3010   41.8620 C.3    88  VAL88       0.0019
     75  CG2       -1.8390  -18.7830   39.4760 C.3    88  VAL88       0.0019
     76  N          0.4070  -24.0170   58.4480 N.3   124  ALA124     -0.1245
     77  CA         1.3280  -23.7300   57.3530 C.3   124  ALA124      0.1562
     78  C          1.1270  -24.6950   56.1900 C.2   124  ALA124      0.2260
     79  O          1.1620  -24.2850   55.0220 O.2   124  ALA124     -0.2867
     80  CB         2.7710  -23.7850   57.8550 C.3   124  ALA124      0.0290
     81  N         -2.2530  -23.7370   54.3780 N.3   127  ILE127     -0.1231
     82  CA        -2.0910  -22.4760   53.6550 C.3   127  ILE127      0.1692
     83  C         -1.2660  -22.7030   52.3910 C.2   127  ILE127      0.2592
     84  O         -1.6620  -22.3110   51.2780 O.2   127  ILE127     -0.2718
     85  CB        -1.4540  -21.4150   54.5710 C.3   127  ILE127      0.0266
     86  CG1       -2.4630  -20.9500   55.6270 C.3   127  ILE127      0.0019
     87  CG2       -0.9240  -20.2460   53.7580 C.3   127  ILE127      0.0020
     88  CD1       -1.8470  -20.1590   56.7590 C.3   127  ILE127      0.0001
     89  N         -0.1180  -23.3690   52.5460 N.am  128  GLY128     -0.1957
     90  CA         0.7270  -23.6500   51.3990 C.3   128  GLY128      0.1869
     91  C          0.0140  -24.4400   50.3180 C.2   128  GLY128      0.2309
     92  O          0.1960  -24.1800   49.1270 O.2   128  GLY128     -0.2863
     93  N         -2.4120  -22.2860   48.3260 N.3   131  TRP131     -0.1241
     94  CA        -1.6780  -21.5920   47.2710 C.3   131  TRP131      0.1605
     95  C         -1.2900  -22.5430   46.1420 C.2   131  TRP131      0.2264
     96  O         -1.3770  -22.1840   44.9590 O.2   131  TRP131     -0.2867
     97  CB        -0.4450  -20.9080   47.8550 C.3   131  TRP131      0.0550
     98  CG        -0.7610  -19.5640   48.4130 C.ar  131  TRP131      0.0003
     99  CD1       -1.1560  -19.2770   49.6860 C.ar  131  TRP131      0.0946
    100  CD2       -0.7320  -18.3180   47.7100 C.ar  131  TRP131      0.0152
    101  NE1       -1.3670  -17.9270   49.8220 N.ar  131  TRP131     -0.2442
    102  CE2       -1.1130  -17.3160   48.6220 C.ar  131  TRP131      0.0810
    103  CE3       -0.4160  -17.9520   46.3970 C.ar  131  TRP131      0.0012
    104  CZ2       -1.1870  -15.9710   48.2660 C.ar  131  TRP131      0.0191
    105  CZ3       -0.4900  -16.6160   46.0450 C.ar  131  TRP131      0.0001
    106  CH2       -0.8730  -15.6420   46.9760 C.ar  131  TRP131      0.0015
    107  N         -2.3180  -22.0980   42.1600 N.3   135  PHE135     -0.1241
    108  CA        -1.3280  -22.0590   41.0860 C.3   135  PHE135      0.1605
    109  C         -1.5760  -23.1580   40.0580 C.2   135  PHE135      0.2264
    110  O         -1.5540  -22.9070   38.8500 O.2   135  PHE135     -0.2867
    111  CB         0.0830  -22.1800   41.6660 C.3   135  PHE135      0.0534
    112  CG         1.1650  -22.2290   40.6200 C.ar  135  PHE135     -0.0203
    113  CD1        1.7690  -21.0650   40.1760 C.ar  135  PHE135     -0.0042
    114  CD2        1.5750  -23.4390   40.0790 C.ar  135  PHE135     -0.0042
    115  CE1        2.7610  -21.1050   39.2130 C.ar  135  PHE135     -0.0003
    116  CE2        2.5630  -23.4850   39.1130 C.ar  135  PHE135     -0.0003
    117  CZ         3.1580  -22.3170   38.6800 C.ar  135  PHE135     -0.0000
@<TRIPOS>BOND
     1    61    62    1
     2    65    62    1
     3    65    66    1
     4    62    63    1
     5   117   116   ar
     6   117   115   ar
     7   110   109    2
     8    63    64    2
     9   116   114   ar
    10   115   113   ar
    11    75    73    1
    12    68    66    1
    13    69    70    1
    14    66    67    1
    15   109   108    1
    16   114   112   ar
    17   113   112   ar
    18    73    70    1
    19    73    74    1
    20   112   111    1
    21    70    71    1
    22   108   111    1
    23   108   107    1
    24    71    72    2
    25    56    55    2
    26    59    57    1
    27    55    54    1
    28    57    54    1
    29    57    58    1
    30    54    53    1
    31    96    95    2
    32    60    58    1
    33   105   103   ar
    34   105   106   ar
    35    95    94    1
    36   103   100   ar
    37   106   104   ar
    38    94    97    1
    39    94    93    1
    40   100    98   ar
    41   100   102   ar
    42    97    98    1
    43    50    49    2
    44   104   102   ar
    45    98    99   ar
    46   102   101   ar
    47    49    48    1
    48    92    91    2
    49    99   101   ar
    50    91    90    1
    51    48    51    1
    52    48    47    1
    53    51    52    1
    54    84    83    2
    55    90    89    1
    56    44    43    2
    57    46    45    1
    58    83    89   am
    59    83    82    1
    60    43    42    1
    61    42    45    1
    62    42    41    1
    63    82    81    1
    64    82    85    1
    65    87    85    1
    66    36    35    2
    67    85    86    1
    68    41    35   am
    69    35    34    1
    70    79    78    2
    71    86    88    1
    72    78    77    1
    73    34    33    1
    74    34    37    1
    75    38    37    1
    76    38    39    1
    77    38    40    1
    78    24    23    2
    79    77    80    1
    80    77    76    1
    81    23    22    1
    82    22    25    1
    83    22    21    1
    84    25    26    1
    85    28    26   ar
    86    28    30   ar
    87     5     6    1
    88     5     2    1
    89    26    27   ar
    90     7     6   ar
    91     7     9   ar
    92     6     8   ar
    93     9    11   ar
    94     1     2    1
    95    30    31   ar
    96    27    29   ar
    97     8    10   ar
    98     2     3    1
    99    11    10   ar
   100     3     4    2
   101    31    29   ar
   102    31    32    1
   103    20    19    1
   104    19    18    1
   105    17    18    1
   106    17    16    1
   107    13    16    1
   108    13    14    1
   109    13    12    1
   110    14    15    2
