@<TRIPOS>MOLECULE
tmp/5cxwA00.pdb
 78 75 0 0 0
SMALL
GASTEIGER

@<TRIPOS>ATOM
      1  N          1.4100   -0.5570   23.3440 N.3   184  GLY184     -0.1210
      2  CA         1.9840   -0.5700   22.0110 C.3   184  GLY184      0.1956
      3  C          1.9090    0.8390   21.4100 C.2   184  GLY184      0.2611
      4  O          2.8190    1.2970   20.6830 O.2   184  GLY184     -0.2717
      5  N          0.8240    1.5400   21.7260 N.am  185  VAL185     -0.1979
      6  CA         0.3840    2.7010   20.9310 C.3   185  VAL185      0.1595
      7  C         -0.1300    3.7870   21.8550 C.2   185  VAL185      0.2287
      8  O         -1.2500    3.6890   22.3560 O.2   185  VAL185     -0.2864
      9  CB        -0.7060    2.2850   19.9350 C.3   185  VAL185      0.0276
     10  CG1       -1.1260    3.4940   19.0570 C.3   185  VAL185      0.0022
     11  CG2       -0.1870    1.1420   19.0530 C.3   185  VAL185      0.0022
     12  N         -0.6950    6.9820   21.2020 N.3   187  HIS187     -0.1241
     13  CA        -1.6750    7.8580   20.5900 C.3   187  HIS187      0.1621
     14  C         -2.2510    7.2180   19.3210 C.2   187  HIS187      0.2264
     15  O         -1.6100    7.2030   18.2910 O.2   187  HIS187     -0.2867
     16  CB        -1.0260    9.1640   20.2240 C.3   187  HIS187      0.0745
     17  CG        -0.4470    9.8830   21.4160 C.ar  187  HIS187      0.0817
     18  ND1       -1.1700   10.7840   22.1660 N.ar  187  HIS187     -0.2268
     19  CD2        0.7720    9.8070   21.9860 C.ar  187  HIS187      0.1154
     20  CE1       -0.4060   11.2530   23.1410 C.ar  187  HIS187      0.1986
     21  NE2        0.7690   10.6500   23.0680 N.ar  187  HIS187     -0.2212
     22  N         -4.5090    6.4080   15.9730 N.3   189  LEU189     -0.1231
     23  CA        -5.0400    7.1560   14.8300 C.3   189  LEU189      0.1693
     24  C         -4.2790    8.5040   14.6270 C.2   189  LEU189      0.2593
     25  O         -4.8730    9.5310   14.3270 O.2   189  LEU189     -0.2718
     26  CB        -6.5450    7.4060   14.9700 C.3   189  LEU189      0.0284
     27  CG        -7.4030    6.2480   15.4550 C.3   189  LEU189      0.0019
     28  CD1       -8.8520    6.6390   15.4550 C.3   189  LEU189      0.0001
     29  CD2       -7.1960    5.0630   14.5470 C.3   189  LEU189      0.0001
     30  N         -2.9620    8.4260   14.7840 N.am  190  SER190     -0.1938
     31  CA        -2.0500    9.5760   14.7790 C.3   190  SER190      0.2055
     32  C         -0.8310    9.1760   13.9470 C.2   190  SER190      0.2642
     33  O         -0.0910    8.2550   14.3110 O.2   190  SER190     -0.2714
     34  CB        -1.6350    9.9100   16.2240 C.3   190  SER190      0.2130
     35  OG        -0.6850   10.9530   16.2580 O.3   190  SER190     -0.2179
     36  N         -0.5690    9.8970   12.8660 N.am  191  GLU191     -0.1976
     37  CA         0.5290    9.5220   11.9920 C.3   191  GLU191      0.1602
     38  C          1.8640    9.6230   12.6970 C.2   191  GLU191      0.2287
     39  O          2.6840    8.6690   12.6390 O.2   191  GLU191     -0.2864
     40  CB         0.5160   10.3260   10.6930 C.3   191  GLU191      0.0415
     41  CG         1.5480    9.8130    9.6630 C.3   191  GLU191      0.1163
     42  CD         1.4830    8.2890    9.3030 C.2   191  GLU191      0.3649
     43  OE1        0.4600    7.5760    9.5120 O.co2 191  GLU191     -0.2457
     44  OE2        2.5370    7.7850    8.8140 O.co2 191  GLU191     -0.2457
     45  N          2.3780    9.4920   15.8280 N.3   193  GLY193     -0.1225
     46  CA         2.4290    8.6670   17.0120 C.3   193  GLY193      0.1811
     47  C          2.4460    9.5090   18.2740 C.2   193  GLY193      0.2280
     48  O          2.6430    8.9490   19.3520 O.2   193  GLY193     -0.2866
     49  N         -6.0500    1.7570    7.9810 N.3   206  GLN206     -0.1231
     50  CA        -4.6330    1.4830    7.9370 C.3   206  GLN206      0.1698
     51  C         -3.9360    1.6190    9.3100 C.2   206  GLN206      0.2592
     52  O         -2.8550    1.0730    9.4740 O.2   206  GLN206     -0.2718
     53  CB        -3.9360    2.3120    6.8470 C.3   206  GLN206      0.0381
     54  CG        -4.5650    2.1560    5.4460 C.3   206  GLN206      0.0905
     55  CD        -3.8150    1.2060    4.5010 C.2   206  GLN206      0.2608
     56  OE1       -3.1940    0.2170    4.9220 O.2   206  GLN206     -0.2717
     57  NE2       -3.8780    1.5090    3.1760 N.am  206  GLN206     -0.0878
     58  N         -4.5680    2.2840   10.2800 N.am  207  TYR207     -0.1962
     59  CA        -4.0490    2.3890   11.6130 C.3   207  TYR207      0.1771
     60  C         -4.3630    1.1690   12.4250 C.2   207  TYR207      0.2619
     61  O         -5.2750    0.4410   12.1340 O.2   207  TYR207     -0.2715
     62  CB        -4.5480    3.6910   12.3170 C.3   207  TYR207      0.0574
     63  CG        -3.8960    4.8900   11.7520 C.ar  207  TYR207     -0.0198
     64  CD1       -2.6880    5.3490   12.2230 C.ar  207  TYR207     -0.0009
     65  CD2       -4.4730    5.5700   10.7140 C.ar  207  TYR207     -0.0009
     66  CE1       -2.0370    6.3940   11.6330 C.ar  207  TYR207      0.0417
     67  CE2       -3.8220    6.6250   10.1000 C.ar  207  TYR207      0.0417
     68  CZ        -2.6110    7.0670   10.5990 C.ar  207  TYR207      0.1957
     69  OH        -2.0100    8.1290    9.9800 O.3   207  TYR207     -0.2866
     70  N         -3.5760    0.9440   13.4950 N.am  208  GLN208     -0.1977
     71  CA        -3.8030   -0.1740   14.3840 C.3   208  GLN208      0.1601
     72  C         -4.8800    0.1110   15.3690 C.2   208  GLN208      0.2287
     73  O         -4.8940    1.1670   16.0110 O.2   208  GLN208     -0.2864
     74  CB        -2.5190   -0.5080   15.1420 C.3   208  GLN208      0.0394
     75  CG        -1.4530   -1.0870   14.2550 C.3   208  GLN208      0.0908
     76  CD        -0.2500   -1.5670   15.0650 C.2   208  GLN208      0.2608
     77  OE1       -0.2140   -1.4920   16.3100 O.2   208  GLN208     -0.2717
     78  NE2        0.7240   -2.0830   14.3650 N.am  208  GLN208     -0.0878
@<TRIPOS>BOND
     1    57    55   am
     2    55    56    2
     3    55    54    1
     4    54    53    1
     5    53    50    1
     6    50    49    1
     7    50    51    1
     8    44    42   ar
     9    42    43   ar
    10    42    41    1
    11    51    52    2
    12    51    58   am
    13    41    40    1
    14    69    68    1
    15    67    68   ar
    16    67    65   ar
    17    58    59    1
    18    68    66   ar
    19    40    37    1
    20    65    63   ar
    21    59    62    1
    22    59    60    1
    23    66    64   ar
    24    63    64   ar
    25    63    62    1
    26    37    38    1
    27    37    36    1
    28    61    60    2
    29    60    70   am
    30    39    38    2
    31    36    32   am
    32    70    71    1
    33    32    33    2
    34    32    31    1
    35    75    76    1
    36    75    74    1
    37    25    24    2
    38    78    76   am
    39    71    74    1
    40    71    72    1
    41    29    27    1
    42    24    30   am
    43    24    23    1
    44    31    30    1
    45    31    34    1
    46    23    26    1
    47    23    22    1
    48    26    27    1
    49    76    77    2
    50    72    73    2
    51    28    27    1
    52    45    46    1
    53    34    35    1
    54    46    47    1
    55    47    48    2
    56    15    14    2
    57    11     9    1
    58    10     9    1
    59    14    13    1
    60     9     6    1
    61    16    13    1
    62    16    17    1
    63    13    12    1
    64     4     3    2
    65     6     5    1
    66     6     7    1
    67     3     5   am
    68     3     2    1
    69    17    19   ar
    70    17    18   ar
    71     7     8    2
    72    19    21   ar
    73     2     1    1
    74    18    20   ar
    75    21    20   ar
