@<TRIPOS>MOLECULE
tmp/5cxwA01.pdb
 146 138 0 0 0
SMALL
GASTEIGER

@<TRIPOS>ATOM
      1  N         -8.9040   -2.2770    7.9460 N.3    96  GLY96      -0.1210
      2  CA        -9.3900   -2.1910    6.6080 C.3    96  GLY96       0.1956
      3  C        -10.7230   -1.4660    6.5870 C.2    96  GLY96       0.2612
      4  O        -10.9430   -0.5370    7.3610 O.2    96  GLY96      -0.2717
      5  N        -11.6100   -1.9260    5.7080 N.am   97  SER97      -0.1952
      6  CA       -12.8560   -1.2260    5.4240 C.3    97  SER97       0.1924
      7  C        -13.8330   -1.2170    6.5790 C.2    97  SER97       0.2314
      8  O        -14.8280   -0.4840    6.5010 O.2    97  SER97      -0.2863
      9  CB       -13.5480   -1.8380    4.2420 C.3    97  SER97       0.2116
     10  OG       -12.7600   -1.6690    3.0460 O.3    97  SER97      -0.2180
     11  N         -8.1180    2.6210   -5.4070 N.3   131  THR131     -0.1218
     12  CA        -8.9360    1.8320   -6.3170 C.3   131  THR131      0.1862
     13  C         -9.8240    0.9110   -5.4750 C.2   131  THR131      0.2287
     14  O         -9.5530    0.6650   -4.2780 O.2   131  THR131     -0.2866
     15  CB        -8.1370    0.9170   -7.2970 C.3   131  THR131      0.1770
     16  OG1       -7.3090    0.0770   -6.5100 O.3   131  THR131     -0.2211
     17  CG2       -7.1980    1.7120   -8.1320 C.3   131  THR131      0.0375
     18  N        -11.6120   -2.9790   -5.1210 N.3   133  VAL133     -0.1245
     19  CA       -11.3240   -4.3960   -5.4460 C.3   133  VAL133      0.1561
     20  C        -12.0130   -4.7840   -6.7530 C.2   133  VAL133      0.2260
     21  O        -13.1990   -4.4790   -6.9480 O.2   133  VAL133     -0.2867
     22  CB       -11.7840   -5.3450   -4.3240 C.3   133  VAL133      0.0252
     23  CG1      -11.9570   -6.7580   -4.8590 C.3   133  VAL133      0.0019
     24  CG2      -10.7950   -5.3230   -3.1690 C.3   133  VAL133      0.0019
     25  N        -21.2000   -1.6470   -0.7880 N.3   149  MET149     -0.1230
     26  CA       -20.2900   -2.1840   -1.8130 C.3   149  MET149      0.1702
     27  C        -18.8230   -2.0650   -1.4150 C.2   149  MET149      0.2593
     28  O        -17.9330   -2.6290   -2.0740 O.2   149  MET149     -0.2718
     29  CB       -20.5190   -1.4590   -3.1440 C.3   149  MET149      0.0401
     30  CG       -21.8560   -1.7720   -3.7470 C.3   149  MET149      0.0596
     31  SD       -22.1140   -0.7670   -5.2510 S.3   149  MET149     -0.1393
     32  CE       -20.8840   -1.5300   -6.2800 C.3   149  MET149      0.0692
     33  N        -18.5930   -1.3300   -0.3430 N.am  150  SER150     -0.1952
     34  CA       -17.2870   -1.0580    0.2400 C.3   150  SER150      0.1924
     35  C        -16.3260   -0.4360   -0.7650 C.2   150  SER150      0.2314
     36  O        -15.2710   -0.9730   -1.0750 O.2   150  SER150     -0.2863
     37  CB       -16.7150   -2.2800    0.9360 C.3   150  SER150      0.2116
     38  OG       -15.8290   -1.8020    1.9540 O.3   150  SER150     -0.2180
     39  N        -13.6580    1.9310   -1.8070 N.3   152  ASN152     -0.1240
     40  CA       -12.5360    2.7260   -1.2690 C.3   152  ASN152      0.1653
     41  C        -12.5320    4.1400   -1.8500 C.2   152  ASN152      0.2266
     42  O        -12.2550    5.1200   -1.1450 O.2   152  ASN152     -0.2867
     43  CB       -11.2110    2.0930   -1.5850 C.3   152  ASN152      0.1155
     44  CG       -10.8930    0.9070   -0.7340 C.2   152  ASN152      0.2627
     45  OD1      -11.7270    0.3480   -0.0010 O.2   152  ASN152     -0.2716
     46  ND2       -9.6030    0.4650   -0.8550 N.am  152  ASN152     -0.0877
     47  N         -9.3970    3.8270    5.2480 N.3   204  LEU204     -0.1245
     48  CA        -9.2200    2.4630    4.8270 C.3   204  LEU204      0.1561
     49  C         -8.6260    1.5750    5.9020 C.2   204  LEU204      0.2260
     50  O         -8.0630    0.5070    5.5820 O.2   204  LEU204     -0.2867
     51  CB        -8.4020    2.4490    3.5600 C.3   204  LEU204      0.0270
     52  CG        -8.9920    3.2980    2.3980 C.3   204  LEU204      0.0019
     53  CD1       -8.1060    3.2240    1.1690 C.3   204  LEU204      0.0001
     54  CD2      -10.4100    2.9490    2.0640 C.3   204  LEU204      0.0001
     55  N        -20.3470   -4.7470    9.0450 N.3   287  LYS287     -0.1231
     56  CA       -19.3970   -4.2470    8.0500 C.3   287  LYS287      0.1693
     57  C        -18.1830   -5.1770    8.0180 C.2   287  LYS287      0.2593
     58  O        -17.6120   -5.4690    9.0390 O.2   287  LYS287     -0.2718
     59  CB       -18.9750   -2.8010    8.3270 C.3   287  LYS287      0.0285
     60  CG       -18.0610   -2.2370    7.2320 C.3   287  LYS287      0.0035
     61  CD       -18.7980   -1.9480    5.9130 C.3   287  LYS287      0.0206
     62  CE       -17.8190   -1.5790    4.7860 C.3   287  LYS287      0.1093
     63  NZ       -17.1290   -2.7570    4.2470 N.3   287  LYS287     -0.1314
     64  N        -17.8170   -5.5850    6.8110 N.am  288  THR288     -0.1939
     65  CA       -16.6390   -6.3860    6.5850 C.3   288  THR288      0.2028
     66  C        -15.4080   -5.4950    6.3700 C.2   288  THR288      0.2643
     67  O        -15.5120   -4.2940    6.0030 O.2   288  THR288     -0.2714
     68  CB       -16.7760   -7.2280    5.3190 C.3   288  THR288      0.1808
     69  OG1      -17.1870   -6.3870    4.2450 O.3   288  THR288     -0.2208
     70  CG2      -17.7540   -8.4130    5.5500 C.3   288  THR288      0.0379
     71  N        -14.2370   -6.0970    6.5110 N.am  289  GLY289     -0.1939
     72  CA       -12.9830   -5.4670    6.1030 C.3   289  GLY289      0.2014
     73  C        -11.9850   -6.4790    5.6020 C.2   289  GLY289      0.2640
     74  O        -11.9700   -7.5840    6.1050 O.2   289  GLY289     -0.2714
     75  N        -11.1390   -6.0910    4.6510 N.am  290  THR290     -0.1936
     76  CA       -10.0720   -6.9600    4.1620 C.3   290  THR290      0.2028
     77  C         -8.8790   -6.0550    3.8250 C.2   290  THR290      0.2643
     78  O         -9.0220   -5.1270    3.0450 O.2   290  THR290     -0.2714
     79  CB       -10.4700   -7.6930    2.8850 C.3   290  THR290      0.1808
     80  OG1      -11.7280   -8.3920    3.0200 O.3   290  THR290     -0.2208
     81  CG2       -9.3850   -8.7100    2.5510 C.3   290  THR290      0.0379
     82  N         -7.7610   -6.2680    4.5130 N.am  291  THR291     -0.1936
     83  CA        -6.5220   -5.4940    4.2510 C.3   291  THR291      0.2028
     84  C         -5.6260   -6.1670    3.2200 C.2   291  THR291      0.2642
     85  O         -5.6350   -7.3930    3.0280 O.2   291  THR291     -0.2714
     86  CB        -5.7370   -5.2190    5.5240 C.3   291  THR291      0.1808
     87  OG1       -5.2290   -6.4140    6.0300 O.3   291  THR291     -0.2208
     88  CG2       -6.6040   -4.6390    6.6130 C.3   291  THR291      0.0379
     89  N         -4.8240   -5.3310    2.5740 N.am  292  GLN292     -0.1976
     90  CA        -3.8340   -5.7840    1.6220 C.3   292  GLN292      0.1601
     91  C         -2.5630   -6.2540    2.3010 C.2   292  GLN292      0.2287
     92  O         -2.0520   -5.6200    3.2320 O.2   292  GLN292     -0.2864
     93  CB        -3.4670   -4.6020    0.6890 C.3   292  GLN292      0.0394
     94  CG        -2.3500   -4.8600   -0.2910 C.3   292  GLN292      0.0908
     95  CD        -2.1870   -3.6700   -1.2280 C.2   292  GLN292      0.2608
     96  OE1       -2.4570   -2.5040   -0.8450 O.2   292  GLN292     -0.2717
     97  NE2       -1.6790   -3.9350   -2.4470 N.am  292  GLN292     -0.0878
     98  N          1.1300   -6.4820   -2.6000 N.3   296  THR296     -0.1203
     99  CA         0.7690   -7.6550   -3.3940 C.3   296  THR296      0.1994
    100  C         -0.7060   -7.6040   -3.7300 C.2   296  THR296      0.2619
    101  O         -1.4200   -6.6860   -3.3410 O.2   296  THR296     -0.2717
    102  CB         1.0690   -8.9400   -2.6330 C.3   296  THR296      0.1784
    103  OG1        0.0860   -9.1670   -1.6070 O.3   296  THR296     -0.2211
    104  CG2        2.4960   -8.9120   -2.0120 C.3   296  THR296      0.0376
    105  N         -1.1850   -8.6180   -4.4550 N.am  297  THR297     -0.1938
    106  CA        -2.6280   -8.7310   -4.7600 C.3   297  THR297      0.2028
    107  C         -3.4120   -9.5180   -3.6830 C.2   297  THR297      0.2642
    108  O         -4.6110   -9.7210   -3.8040 O.2   297  THR297     -0.2714
    109  CB        -2.7900   -9.4990   -6.0740 C.3   297  THR297      0.1808
    110  OG1       -2.2350  -10.7990   -5.9080 O.3   297  THR297     -0.2208
    111  CG2       -2.0150   -8.8040   -7.1700 C.3   297  THR297      0.0379
    112  N         -2.7120   -9.9530   -2.6370 N.am  298  ALA298     -0.1963
    113  CA        -3.2510  -10.8380   -1.6200 C.3   298  ALA298      0.1728
    114  C         -3.6290  -10.0880   -0.3160 C.2   298  ALA298      0.2616
    115  O         -3.3420   -8.8870   -0.1720 O.2   298  ALA298     -0.2715
    116  CB        -2.2250  -11.9310   -1.3620 C.3   298  ALA298      0.0334
    117  N         -4.2780  -10.8040    0.5960 N.am  299  ASN299     -0.1972
    118  CA        -4.9330  -10.2360    1.7840 C.3   299  ASN299      0.1688
    119  C         -4.0840  -10.4990    3.0180 C.2   299  ASN299      0.2292
    120  O         -3.3330  -11.4580    3.0180 O.2   299  ASN299     -0.2864
    121  CB        -6.3190  -10.8560    1.9840 C.3   299  ASN299      0.1181
    122  CG        -7.2380  -10.5630    0.8010 C.2   299  ASN299      0.2629
    123  OD1       -7.0130   -9.5970    0.0510 O.2   299  ASN299     -0.2716
    124  ND2       -8.2710  -11.3780    0.6450 N.am  299  ASN299     -0.0877
    125  N        -11.3250  -13.2320    2.6540 N.3   335  TYR335     -0.1227
    126  CA       -11.8630  -11.8660    2.8150 C.3   335  TYR335      0.1736
    127  C        -12.7460  -11.7550    4.0340 C.2   335  TYR335      0.2596
    128  O        -13.1550  -12.7540    4.6050 O.2   335  TYR335     -0.2718
    129  CB       -12.7480  -11.5600    1.5810 C.3   335  TYR335      0.0548
    130  CG       -12.0340  -11.5230    0.2530 C.ar  335  TYR335     -0.0200
    131  CD1      -11.4700  -10.3780   -0.2130 C.ar  335  TYR335     -0.0009
    132  CD2      -11.8880  -12.6840   -0.5000 C.ar  335  TYR335     -0.0009
    133  CE1      -10.7800  -10.3710   -1.4210 C.ar  335  TYR335      0.0417
    134  CE2      -11.2180  -12.6740   -1.7000 C.ar  335  TYR335      0.0417
    135  CZ       -10.6920  -11.5080   -2.1340 C.ar  335  TYR335      0.1957
    136  OH       -10.0010  -11.4960   -3.3220 O.3   335  TYR335     -0.2866
    137  N        -13.1080  -10.5470    4.4260 N.am  336  GLY336     -0.1942
    138  CA       -14.0530  -10.3290    5.5420 C.3   336  GLY336      0.2014
    139  C        -15.3380  -11.1300    5.4320 C.2   336  GLY336      0.2639
    140  O        -15.8290  -11.6540    6.4240 O.2   336  GLY336     -0.2714
    141  N        -15.8260  -11.2700    4.2000 N.am  337  SER337     -0.1949
    142  CA       -17.0440  -12.0590    3.9030 C.3   337  SER337      0.1924
    143  C        -16.8770  -13.5630    3.9660 C.2   337  SER337      0.2314
    144  O        -17.8750  -14.2840    3.7850 O.2   337  SER337     -0.2863
    145  CB       -17.5890  -11.6570    2.5350 C.3   337  SER337      0.2116
    146  OG       -16.6110  -12.0090    1.5510 O.3   337  SER337     -0.2180
@<TRIPOS>BOND
     1    17    15    1
     2    15    16    1
     3    15    12    1
     4   111   109    1
     5    21    20    2
     6    20    19    1
     7    12    13    1
     8    12    11    1
     9    32    31    1
    10   109   110    1
    11   109   106    1
    12    13    14    2
    13    19    18    1
    14    19    22    1
    15    31    30    1
    16    23    22    1
    17   106   105    1
    18   106   107    1
    19   105   100   am
    20    22    24    1
    21   108   107    2
    22    30    29    1
    23   100    99    1
    24   100   101    2
    25   107   112   am
    26    99   102    1
    27    99    98    1
    28   136   135    1
    29    29    26    1
    30   112   113    1
    31   102   104    1
    32   102   103    1
    33    97    95   am
    34   135   134   ar
    35   135   133   ar
    36    28    27    2
    37    41    40    1
    38    41    42    2
    39    26    27    1
    40    26    25    1
    41    39    40    1
    42   134   132   ar
    43   113   116    1
    44   113   114    1
    45    43    40    1
    46    43    44    1
    47   133   131   ar
    48    27    33   am
    49    95    96    2
    50    95    94    1
    51    36    35    2
    52    46    44   am
    53    35    34    1
    54    44    45    2
    55   132   130   ar
    56    33    34    1
    57   114   115    2
    58   114   117   am
    59    94    93    1
    60   131   130   ar
    61   123   122    2
    62    34    37    1
    63   130   129    1
    64   117   118    1
    65   124   122   am
    66    93    90    1
    67   122   121    1
    68    37    38    1
    69    53    52    1
    70   146   145    1
    71   129   126    1
    72    90    91    1
    73    90    89    1
    74   118   121    1
    75   118   119    1
    76    54    52    1
    77    91    92    2
    78    52    51    1
    79   145   142    1
    80    81    79    1
    81    89    84   am
    82   125   126    1
    83   126   127    1
    84    79    80    1
    85    79    76    1
    86   119   120    2
    87    85    84    2
    88    78    77    2
    89    10     9    1
    90    84    83    1
    91    51    48    1
    92   144   143    2
    93    77    76    1
    94    77    82   am
    95   142   143    1
    96   142   141    1
    97   127   137   am
    98   127   128    2
    99    76    75    1
   100   141   139   am
   101     9     6    1
   102    69    68    1
   103    63    62    1
   104    83    82    1
   105    83    86    1
   106   137   138    1
   107    75    73   am
   108    62    61    1
   109    48    47    1
   110    48    49    1
   111    68    70    1
   112    68    65    1
   113     6     5    1
   114     6     7    1
   115   139   138    1
   116   139   140    2
   117    86    87    1
   118    86    88    1
   119    50    49    2
   120    73    72    1
   121    73    74    2
   122     5     3   am
   123    61    60    1
   124    67    66    2
   125    72    71    1
   126    66    71   am
   127    66    65    1
   128     8     7    2
   129    65    64    1
   130     3     2    1
   131     3     4    2
   132     2     1    1
   133    64    57   am
   134    60    59    1
   135    57    56    1
   136    57    58    2
   137    56    59    1
   138    56    55    1
