@<TRIPOS>MOLECULE
tmp/5cxxB00.pdb
 142 138 0 0 0
SMALL
GASTEIGER

@<TRIPOS>ATOM
      1  N         83.4410   38.4200    8.8950 N.3    64  GLY64      -0.1210
      2  CA        84.2970   39.5500    8.6460 C.3    64  GLY64       0.1956
      3  C         85.3580   39.2720    7.5830 C.2    64  GLY64       0.2611
      4  O         85.3000   38.2630    6.8360 O.2    64  GLY64      -0.2717
      5  N         86.3280   40.1590    7.4950 N.am   65  LEU65      -0.1979
      6  CA        87.3670   40.0420    6.4630 C.3    65  LEU65       0.1596
      7  C         88.1840   38.7840    6.7780 C.2    65  LEU65       0.2287
      8  O         88.3300   38.3900    7.9120 O.2    65  LEU65      -0.2864
      9  CB        88.2290   41.3240    6.4650 C.3    65  LEU65       0.0297
     10  CG        88.8980   41.8990    5.2240 C.3    65  LEU65       0.0022
     11  CD1       87.9000   42.5020    4.2580 C.3    65  LEU65       0.0001
     12  CD2       89.8830   42.9110    5.7140 C.3    65  LEU65       0.0001
     13  N         94.3430   43.7020    3.8100 N.3   114  PHE114     -0.1241
     14  CA        93.6950   45.0220    3.9030 C.3   114  PHE114      0.1605
     15  C         93.9570   45.8880    2.6660 C.2   114  PHE114      0.2264
     16  O         94.9100   46.6850    2.6260 O.2   114  PHE114     -0.2867
     17  CB        94.2060   45.7470    5.1660 C.3   114  PHE114      0.0534
     18  CG        93.8040   45.0460    6.4220 C.ar  114  PHE114     -0.0203
     19  CD1       92.5140   45.1820    6.9360 C.ar  114  PHE114     -0.0042
     20  CD2       94.6990   44.1720    7.0510 C.ar  114  PHE114     -0.0042
     21  CE1       92.1220   44.5120    8.0740 C.ar  114  PHE114     -0.0003
     22  CE2       94.3050   43.4750    8.1990 C.ar  114  PHE114     -0.0003
     23  CZ        93.0420   43.6830    8.7410 C.ar  114  PHE114     -0.0000
     24  N         88.4210   44.3830   -0.7030 N.3   119  TYR119     -0.1241
     25  CA        87.1280   44.8110   -0.1990 C.3   119  TYR119      0.1605
     26  C         86.0120   44.7720   -1.2420 C.2   119  TYR119      0.2264
     27  O         84.8530   44.5760   -0.8530 O.2   119  TYR119     -0.2867
     28  CB        87.1820   46.2660    0.3550 C.3   119  TYR119      0.0534
     29  CG        88.2990   46.5310    1.3290 C.ar  119  TYR119     -0.0201
     30  CD1       88.7840   45.5300    2.1800 C.ar  119  TYR119     -0.0009
     31  CD2       88.8050   47.8110    1.4790 C.ar  119  TYR119     -0.0009
     32  CE1       89.8160   45.8140    3.0960 C.ar  119  TYR119      0.0417
     33  CE2       89.8330   48.0880    2.3480 C.ar  119  TYR119      0.0417
     34  CZ        90.3260   47.0920    3.1640 C.ar  119  TYR119      0.1957
     35  OH        91.3530   47.4380    4.0160 O.3   119  TYR119     -0.2866
     36  N         79.5260   40.6430   11.4570 N.3   155  PHE155     -0.1227
     37  CA        80.6420   41.1200   12.2250 C.3   155  PHE155      0.1736
     38  C         81.6320   41.8200   11.3160 C.2   155  PHE155      0.2596
     39  O         81.9710   41.2800   10.2700 O.2   155  PHE155     -0.2718
     40  CB        81.3250   39.9600   12.9330 C.3   155  PHE155      0.0547
     41  CG        82.5920   40.3290   13.6300 C.ar  155  PHE155     -0.0202
     42  CD1       82.5860   41.2960   14.6710 C.ar  155  PHE155     -0.0042
     43  CD2       83.8120   39.6910   13.2520 C.ar  155  PHE155     -0.0042
     44  CE1       83.7710   41.6000   15.3560 C.ar  155  PHE155     -0.0003
     45  CE2       84.9950   40.0170   13.9010 C.ar  155  PHE155     -0.0003
     46  CZ        84.9790   40.9690   14.9580 C.ar  155  PHE155     -0.0000
     47  N         82.0470   43.0140   11.7100 N.am  156  SER156     -0.1938
     48  CA        83.1870   43.7400   11.1150 C.3   156  SER156      0.2055
     49  C         82.9670   44.0170    9.6470 C.2   156  SER156      0.2642
     50  O         82.0570   44.7440    9.3460 O.2   156  SER156     -0.2714
     51  CB        84.4790   43.0150   11.4340 C.3   156  SER156      0.2130
     52  OG        85.5660   43.9450   11.2820 O.3   156  SER156     -0.2179
     53  N         83.7310   43.4280    8.7380 N.am  157  MET157     -0.1976
     54  CA        83.4340   43.7220    7.3150 C.3   157  MET157      0.1605
     55  C         82.0120   43.2660    6.9950 C.2   157  MET157      0.2287
     56  O         81.3370   43.9170    6.2010 O.2   157  MET157     -0.2864
     57  CB        84.4450   43.0090    6.3970 C.3   157  MET157      0.0413
     58  CG        84.3300   43.5860    4.9730 C.3   157  MET157      0.0598
     59  SD        85.0840   45.2230    4.9330 S.3   157  MET157     -0.1393
     60  CE        84.9690   45.5050    3.1090 C.3   157  MET157      0.0692
     61  N         79.7100   46.0160    8.1860 N.3   160  ARG160     -0.1245
     62  CA        79.6940   47.1080    7.1790 C.3   160  ARG160      0.1563
     63  C         78.7700   46.6700    6.0110 C.2   160  ARG160      0.2260
     64  O         77.9570   47.4410    5.5310 O.2   160  ARG160     -0.2867
     65  CB        81.1240   47.4090    6.6730 C.3   160  ARG160      0.0307
     66  CG        81.1840   47.7970    5.1770 C.3   160  ARG160      0.0489
     67  CD        82.5890   48.2540    4.7930 C.3   160  ARG160      0.2205
     68  NE        82.7640   48.2060    3.3230 N.pl3 160  ARG160     -0.0865
     69  CZ        83.7800   48.7460    2.6690 C.cat 160  ARG160      0.5346
     70  NH1       84.7020   49.4360    3.3150 N.pl3 160  ARG160      0.1354
     71  NH2       83.9010   48.5640    1.3340 N.pl3 160  ARG160      0.1354
     72  N         83.1650   47.6400   10.0270 N.3   182  ALA182     -0.1231
     73  CA        84.4090   48.1670    9.4810 C.3   182  ALA182      0.1679
     74  C         84.2870   49.5640    8.8730 C.2   182  ALA182      0.2434
     75  O         83.2030   49.9450    8.4470 O.2   182  ALA182     -0.2733
     76  CB        84.9150   47.1670    8.3990 C.3   182  ALA182      0.0304
     77  N         85.4020   50.2710    8.7770 N.am  183  PRO183     -0.2729
     78  CA        85.3920   51.5590    8.0480 C.3   183  PRO183      0.1401
     79  C         84.9830   51.4200    6.6000 C.2   183  PRO183      0.2269
     80  O         85.1510   50.3500    6.0020 O.2   183  PRO183     -0.2865
     81  CB        86.8500   52.0320    8.0930 C.3   183  PRO183      0.0296
     82  CG        87.6820   50.7490    8.3250 C.3   183  PRO183      0.0237
     83  CD        86.7660   49.9240    9.2600 C.3   183  PRO183      0.0939
     84  N         92.0820   55.3110    7.7240 N.3   190  ASP190     -0.1239
     85  CA        92.6030   54.5610    8.8660 C.3   190  ASP190      0.1674
     86  C         94.0080   53.9910    8.6180 C.2   190  ASP190      0.2266
     87  O         94.6180   54.1800    7.5420 O.2   190  ASP190     -0.2867
     88  CB        91.6270   53.4380    9.3000 C.3   190  ASP190      0.1410
     89  CG        91.7520   52.1650    8.4820 C.2   190  ASP190      0.3668
     90  OD1       92.2930   52.1870    7.3600 O.co2 190  ASP190     -0.2456
     91  OD2       91.2620   51.1060    8.9400 O.co2 190  ASP190     -0.2456
     92  N         94.9500   50.8100    8.5980 N.3   192  PHE192     -0.1227
     93  CA        95.0360   49.4980    7.9290 C.3   192  PHE192      0.1736
     94  C         95.1270   49.6550    6.4310 C.2   192  PHE192      0.2596
     95  O         95.8960   48.9790    5.8050 O.2   192  PHE192     -0.2718
     96  CB        93.8450   48.6280    8.3150 C.3   192  PHE192      0.0547
     97  CG        93.9210   48.1250    9.7520 C.ar  192  PHE192     -0.0202
     98  CD1       93.4600   48.8770   10.8170 C.ar  192  PHE192     -0.0042
     99  CD2       94.3980   46.8500   10.0220 C.ar  192  PHE192     -0.0042
    100  CE1       93.5420   48.3780   12.1550 C.ar  192  PHE192     -0.0003
    101  CE2       94.4550   46.3590   11.3610 C.ar  192  PHE192     -0.0003
    102  CZ        94.0200   47.1140   12.4050 C.ar  192  PHE192     -0.0000
    103  N         94.3810   50.6020    5.8510 N.am  193  SER193     -0.1952
    104  CA        94.5350   50.7620    4.4110 C.3   193  SER193      0.1924
    105  C         94.3700   52.1970    3.9510 C.2   193  SER193      0.2314
    106  O         94.2330   52.4660    2.7700 O.2   193  SER193     -0.2863
    107  CB        93.5830   49.8040    3.6190 C.3   193  SER193      0.2116
    108  OG        92.2090   50.1070    3.9270 O.3   193  SER193     -0.2180
    109  N         89.6930   55.6020    2.4980 N.3   196  HIS196     -0.1241
    110  CA        88.5040   54.8490    2.1210 C.3   196  HIS196      0.1621
    111  C         87.6060   55.8310    1.4140 C.2   196  HIS196      0.2264
    112  O         87.1190   56.7670    2.0350 O.2   196  HIS196     -0.2867
    113  CB        87.7940   54.2510    3.3440 C.3   196  HIS196      0.0745
    114  CG        88.6550   53.3050    4.1260 C.ar  196  HIS196      0.0817
    115  ND1       88.4260   51.9500    4.2050 N.ar  196  HIS196     -0.2268
    116  CD2       89.7550   53.5410    4.8670 C.ar  196  HIS196      0.1154
    117  CE1       89.3310   51.3970    4.9980 C.ar  196  HIS196      0.1986
    118  NE2       90.1540   52.3460    5.4040 N.ar  196  HIS196     -0.2212
    119  N         90.7590   47.1360   15.9040 N.3   224  VAL224     -0.1231
    120  CA        90.7590   46.8950   14.4610 C.3   224  VAL224      0.1692
    121  C         89.8690   47.9590   13.7980 C.2   224  VAL224      0.2591
    122  O         90.2690   48.5350   12.7860 O.2   224  VAL224     -0.2718
    123  CB        90.2640   45.4900   14.1570 C.3   224  VAL224      0.0266
    124  CG1       90.1220   45.2680   12.6500 C.3   224  VAL224      0.0020
    125  CG2       91.2860   44.4360   14.7680 C.3   224  VAL224      0.0020
    126  N         88.6650   48.1680   14.3200 N.am  225  VAL225     -0.1980
    127  CA        87.7850   49.1660   13.6580 C.3   225  VAL225      0.1595
    128  C         87.6050   50.4190   14.5150 C.2   225  VAL225      0.2287
    129  O         86.9340   51.3770   14.0570 O.2   225  VAL225     -0.2864
    130  CB        86.3710   48.5450   13.2920 C.3   225  VAL225      0.0276
    131  CG1       86.5460   47.3120   12.3980 C.3   225  VAL225      0.0022
    132  CG2       85.4920   48.1930   14.5440 C.3   225  VAL225      0.0022
    133  N         87.9800   43.5690   19.4070 N.3   253  HIS253     -0.1241
    134  CA        87.3680   43.0960   18.1610 C.3   253  HIS253      0.1621
    135  C         87.1070   41.5950   18.3430 C.2   253  HIS253      0.2264
    136  O         87.8480   40.7650   17.8160 O.2   253  HIS253     -0.2867
    137  CB        88.3480   43.3550   17.0090 C.3   253  HIS253      0.0745
    138  CG        87.7000   43.4000   15.6450 C.ar  253  HIS253      0.0817
    139  ND1       86.6820   44.2910   15.3620 N.ar  253  HIS253     -0.2268
    140  CD2       87.9330   42.6910   14.4970 C.ar  253  HIS253      0.1154
    141  CE1       86.3220   44.1470   14.0880 C.ar  253  HIS253      0.1986
    142  NE2       87.0680   43.1960   13.5400 N.ar  253  HIS253     -0.2212
@<TRIPOS>BOND
     1    26    27    2
     2    26    25    1
     3    24    25    1
     4    25    28    1
     5    28    29    1
     6    29    31   ar
     7    29    30   ar
     8    71    69    1
     9   111   112    2
    10   111   110    1
    11    31    33   ar
    12   110   109    1
    13   110   113    1
    14    30    32   ar
    15    33    34   ar
    16    16    15    2
    17    15    14    1
    18    69    70    1
    19    69    68    2
    20   106   105    2
    21    32    34   ar
    22    60    59    1
    23    34    35    1
    24    68    67    1
    25   113   114    1
    26   107   108    1
    27   107   104    1
    28    13    14    1
    29    14    17    1
    30   105   104    1
    31   114   115   ar
    32   114   116   ar
    33   115   117   ar
    34    11    10    1
    35   104   103    1
    36    67    66    1
    37   116   118   ar
    38    59    58    1
    39    58    57    1
    40   117   118   ar
    41    17    18    1
    42    66    65    1
    43    10    12    1
    44    10     9    1
    45    64    63    2
    46    95    94    2
    47   103    94   am
    48    80    79    2
    49    63    62    1
    50    56    55    2
    51    57    54    1
    52    18    19   ar
    53    18    20   ar
    54    94    93    1
    55     6     9    1
    56     6     7    1
    57     6     5    1
    58    79    78    1
    59    65    62    1
    60     7     8    2
    61     4     3    2
    62    19    21   ar
    63    55    54    1
    64    20    22   ar
    65    62    61    1
    66    54    53    1
    67    90    89   ar
    68     5     3   am
    69    87    86    2
    70     3     2    1
    71    84    85    1
    72    93    96    1
    73    93    92    1
    74    78    81    1
    75    78    77    1
    76    21    23   ar
    77    81    82    1
    78    22    23   ar
    79    96    97    1
    80    82    83    1
    81    76    73    1
    82    75    74    2
    83    89    91   ar
    84    89    88    1
    85    86    85    1
    86     2     1    1
    87    53    49   am
    88    77    74   am
    89    77    83    1
    90    85    88    1
    91    74    73    1
    92    50    49    2
    93    73    72    1
    94    49    48    1
    95    97    99   ar
    96    97    98   ar
    97    99   101   ar
    98    39    38    2
    99    98   100   ar
   100    48    51    1
   101    48    47    1
   102    52    51    1
   103    38    47   am
   104    38    37    1
   105   101   102   ar
   106    36    37    1
   107   100   102   ar
   108    37    40    1
   109   131   130    1
   110   124   123    1
   111   122   121    2
   112    40    41    1
   113    43    41   ar
   114    43    45   ar
   115   130   127    1
   116   130   132    1
   117   142   141   ar
   118   142   140   ar
   119    41    42   ar
   120   127   126    1
   121   127   128    1
   122   121   126   am
   123   121   120    1
   124    45    46   ar
   125   129   128    2
   126   141   139   ar
   127   123   120    1
   128   123   125    1
   129   120   119    1
   130   140   138   ar
   131    42    44   ar
   132    46    44   ar
   133   139   138   ar
   134   138   137    1
   135   137   134    1
   136   136   135    2
   137   134   135    1
   138   134   133    1
