@<TRIPOS>MOLECULE
tmp/5cxyA00.pdb
 86 83 0 0 0
SMALL
GASTEIGER

@<TRIPOS>ATOM
      1  N         -3.5790    0.8670  -45.6300 N.3    19  HIS19      -0.1226
      2  CA        -2.5420    1.0730  -44.6540 C.3    19  HIS19       0.1752
      3  C         -3.0490    1.0750  -43.2320 C.2    19  HIS19       0.2596
      4  O         -2.2980    0.7730  -42.3260 O.2    19  HIS19      -0.2718
      5  CB        -1.7930    2.3890  -44.9920 C.3    19  HIS19       0.0759
      6  CG        -1.0990    2.3830  -46.3210 C.ar   19  HIS19       0.0818
      7  ND1       -1.7100    2.8000  -47.4890 N.ar   19  HIS19      -0.2268
      8  CD2        0.1550    2.0070  -46.6670 C.ar   19  HIS19       0.1154
      9  CE1       -0.8650    2.6730  -48.4980 C.ar   19  HIS19       0.1986
     10  NE2        0.2730    2.1920  -48.0260 N.ar   19  HIS19      -0.2212
     11  N         -4.2970    1.4790  -43.0080 N.am   20  VAL20      -0.1966
     12  CA        -4.8660    1.5650  -41.6450 C.3    20  VAL20       0.1727
     13  C         -6.2110    0.8720  -41.5830 C.2    20  VAL20       0.2616
     14  O         -7.1360    1.2030  -42.3340 O.2    20  VAL20      -0.2715
     15  CB        -5.1570    3.0270  -41.2310 C.3    20  VAL20       0.0290
     16  CG1       -5.3520    3.0870  -39.7320 C.3    20  VAL20       0.0023
     17  CG2       -4.0770    3.9730  -41.6840 C.3    20  VAL20       0.0023
     18  N         -6.3660   -0.0610  -40.6790 N.am   21  ASP21      -0.1971
     19  CA        -7.6990   -0.5940  -40.4480 C.3    21  ASP21       0.1709
     20  C         -8.3760    0.4030  -39.5180 C.2    21  ASP21       0.2293
     21  O         -8.2770    0.3070  -38.3020 O.2    21  ASP21      -0.2864
     22  CB        -7.5520   -1.9870  -39.8360 C.3    21  ASP21       0.1436
     23  CG        -8.8560   -2.6510  -39.5450 C.2    21  ASP21       0.3671
     24  OD1       -9.9210   -2.0240  -39.5560 O.co2  21  ASP21      -0.2456
     25  OD2       -8.7840   -3.8580  -39.2420 O.co2  21  ASP21      -0.2456
     26  N        -11.0720   -0.8900  -36.7830 N.3    24  LYS24      -0.1231
     27  CA       -10.4550   -1.4480  -35.6400 C.3    24  LYS24       0.1693
     28  C         -9.6390   -0.3930  -34.8330 C.2    24  LYS24       0.2592
     29  O         -9.7290   -0.3580  -33.5980 O.2    24  LYS24      -0.2718
     30  CB        -9.5370   -2.6100  -36.0500 C.3    24  LYS24       0.0285
     31  CG        -8.8310   -3.3280  -34.9250 C.3    24  LYS24       0.0035
     32  CD        -7.8920   -4.3630  -35.5180 C.3    24  LYS24       0.0206
     33  CE        -7.1840   -5.1800  -34.4510 C.3    24  LYS24       0.1093
     34  NZ        -8.0090   -6.3610  -34.0570 N.3    24  LYS24      -0.1314
     35  N         -8.7680    0.3420  -35.5060 N.am   25  ASN25      -0.1974
     36  CA        -7.8630    1.3170  -34.8520 C.3    25  ASN25       0.1688
     37  C         -8.6610    2.4080  -34.1140 C.2    25  ASN25       0.2292
     38  O         -8.1310    3.0090  -33.2060 O.2    25  ASN25      -0.2864
     39  CB        -6.9350    1.9810  -35.8890 C.3    25  ASN25       0.1181
     40  CG        -5.6840    1.1610  -36.2730 C.2    25  ASN25       0.2629
     41  OD1       -4.7390    1.7520  -36.7570 O.2    25  ASN25      -0.2716
     42  ND2       -5.6760   -0.1580  -36.0670 N.am   25  ASN25      -0.0877
     43  N        -10.9110    2.2810  -31.8750 N.3    27  SER27      -0.1202
     44  CA       -10.9690    2.0420  -30.4410 C.3    27  SER27       0.2020
     45  C        -10.5460    0.6110  -30.0810 C.2    27  SER27       0.2618
     46  O        -10.8520   -0.3200  -30.8010 O.2    27  SER27      -0.2717
     47  CB       -12.3610    2.2430  -29.9150 C.3    27  SER27       0.2103
     48  OG       -12.3900    2.0520  -28.4820 O.3    27  SER27      -0.2182
     49  N         -9.8090    0.4620  -28.9830 N.am   28  LEU28      -0.1979
     50  CA        -9.6650   -0.8400  -28.3480 C.3    28  LEU28       0.1596
     51  C        -11.0530   -1.3100  -28.0040 C.2    28  LEU28       0.2287
     52  O        -11.9370   -0.4900  -27.7980 O.2    28  LEU28      -0.2864
     53  CB        -8.8080   -0.7390  -27.1020 C.3    28  LEU28       0.0297
     54  CG        -7.3900   -0.2720  -27.2970 C.3    28  LEU28       0.0022
     55  CD1       -6.8430    0.0970  -25.9700 C.3    28  LEU28       0.0001
     56  CD2       -6.5580   -1.3760  -28.0180 C.3    28  LEU28       0.0001
     57  N         -5.8000    2.7210  -29.2420 N.3   191  GLY191     -0.1210
     58  CA        -4.5480    2.2210  -28.7260 C.3   191  GLY191      0.1956
     59  C         -3.3590    2.7950  -29.5070 C.2   191  GLY191      0.2612
     60  O         -3.3370    3.9730  -29.8740 O.2   191  GLY191     -0.2717
     61  N         -2.3740    1.9400  -29.7600 N.am  192  ASN192     -0.1960
     62  CA        -1.1330    2.3580  -30.3720 C.3   192  ASN192      0.1819
     63  C         -1.3410    2.3660  -31.8750 C.2   192  ASN192      0.2621
     64  O         -1.0030    1.4220  -32.5480 O.2   192  ASN192     -0.2715
     65  CB        -0.0240    1.4040  -29.9740 C.3   192  ASN192      0.1195
     66  CG         0.1860    1.4060  -28.5030 C.2   192  ASN192      0.2630
     67  OD1       -0.0260    0.4050  -27.8460 O.2   192  ASN192     -0.2716
     68  ND2        0.6060    2.5340  -27.9630 N.am  192  ASN192     -0.0877
     69  N         -1.9160    3.4330  -32.3870 N.am  193  ILE193     -0.1977
     70  CA        -2.3060    3.4280  -33.7750 C.3   193  ILE193      0.1596
     71  C         -1.4670    4.3310  -34.6170 C.2   193  ILE193      0.2287
     72  O         -1.5610    4.2500  -35.8310 O.2   193  ILE193     -0.2864
     73  CB        -3.7680    3.7740  -33.9630 C.3   193  ILE193      0.0276
     74  CG1       -4.0750    5.1810  -33.5110 C.3   193  ILE193      0.0022
     75  CG2       -4.6550    2.7860  -33.2070 C.3   193  ILE193      0.0022
     76  CD1       -5.4610    5.5870  -33.9710 C.3   193  ILE193      0.0001
     77  N          0.5020    2.9910  -37.6130 N.3   196  HIS196     -0.1241
     78  CA        -0.2990    2.5940  -38.7840 C.3   196  HIS196      0.1621
     79  C         -0.7960    3.7790  -39.5630 C.2   196  HIS196      0.2264
     80  O         -0.6750    3.8340  -40.7760 O.2   196  HIS196     -0.2867
     81  CB        -1.4320    1.6500  -38.3570 C.3   196  HIS196      0.0745
     82  CG        -0.9380    0.5050  -37.5830 C.ar  196  HIS196      0.0817
     83  ND1       -0.1900   -0.4940  -38.1540 N.ar  196  HIS196     -0.2268
     84  CD2       -0.9600    0.2490  -36.2510 C.ar  196  HIS196      0.1154
     85  CE1        0.1660   -1.3620  -37.2220 C.ar  196  HIS196      0.1986
     86  NE2       -0.2960   -0.9390  -36.0570 N.ar  196  HIS196     -0.2212
@<TRIPOS>BOND
     1     9    10   ar
     2     9     7   ar
     3    10     8   ar
     4     7     6   ar
     5     8     6   ar
     6     6     5    1
     7     1     2    1
     8     5     2    1
     9     2     3    1
    10     3    11   am
    11     3     4    2
    12    11    12    1
    13    14    13    2
    14    17    15    1
    15    12    13    1
    16    12    15    1
    17    13    18   am
    18    15    16    1
    19    80    79    2
    20    18    19    1
    21    19    22    1
    22    19    20    1
    23    22    23    1
    24    79    78    1
    25    24    23   ar
    26    23    25   ar
    27    20    21    2
    28    78    81    1
    29    78    77    1
    30    81    82    1
    31    83    82   ar
    32    83    85   ar
    33    82    84   ar
    34    85    86   ar
    35    26    27    1
    36    41    40    2
    37    40    42   am
    38    40    39    1
    39    84    86   ar
    40    30    27    1
    41    30    31    1
    42    39    36    1
    43    72    71    2
    44    27    28    1
    45    32    31    1
    46    32    33    1
    47    35    36    1
    48    35    28   am
    49    36    37    1
    50    28    29    2
    51    71    70    1
    52    33    34    1
    53    37    38    2
    54    76    74    1
    55    73    70    1
    56    73    74    1
    57    73    75    1
    58    70    69    1
    59    64    63    2
    60    69    63   am
    61    43    44    1
    62    63    62    1
    63    46    45    2
    64    44    45    1
    65    44    47    1
    66    62    65    1
    67    62    61    1
    68    45    49   am
    69    65    66    1
    70    47    48    1
    71    60    59    2
    72    61    59   am
    73    59    58    1
    74    57    58    1
    75    49    50    1
    76    66    68   am
    77    66    67    2
    78    50    51    1
    79    50    53    1
    80    56    54    1
    81    51    52    2
    82    54    53    1
    83    54    55    1
