@<TRIPOS>MOLECULE
tmp/5cxyA03.pdb
 86 84 0 0 0
SMALL
GASTEIGER

@<TRIPOS>ATOM
      1  N        -21.9340    8.0840  -42.7610 N.3    71  TYR71      -0.1241
      2  CA       -22.4620    9.4270  -42.7480 C.3    71  TYR71       0.1605
      3  C        -22.1420   10.0850  -44.0610 C.2    71  TYR71       0.2264
      4  O        -21.0680    9.8950  -44.6230 O.2    71  TYR71      -0.2867
      5  CB       -21.8410   10.1900  -41.5980 C.3    71  TYR71       0.0534
      6  CG       -22.0140    9.4960  -40.2650 C.ar   71  TYR71      -0.0201
      7  CD1      -23.2740    9.4740  -39.6130 C.ar   71  TYR71      -0.0009
      8  CD2      -20.9910    8.7490  -39.7350 C.ar   71  TYR71      -0.0009
      9  CE1      -23.4730    8.7470  -38.4370 C.ar   71  TYR71       0.0417
     10  CE2      -21.1650    8.0410  -38.5380 C.ar   71  TYR71       0.0417
     11  CZ       -22.3980    8.0400  -37.9050 C.ar   71  TYR71       0.1957
     12  OH       -22.5150    7.3360  -36.7740 O.3    71  TYR71      -0.2866
     13  N        -24.0440   15.8000  -41.6230 N.3    96  ASP96      -0.1225
     14  CA       -24.5300   14.6270  -40.9330 C.3    96  ASP96       0.1805
     15  C        -23.7440   14.3040  -39.6470 C.2    96  ASP96       0.2597
     16  O        -24.3100   13.8200  -38.6770 O.2    96  ASP96      -0.2718
     17  CB       -24.5300   13.4510  -41.8940 C.3    96  ASP96       0.1424
     18  CG       -25.4820   13.6700  -43.0530 C.2    96  ASP96       0.3668
     19  OD1      -26.6710   13.7480  -42.7990 O.co2  96  ASP96      -0.2456
     20  OD2      -25.0210   13.8430  -44.1940 O.co2  96  ASP96      -0.2456
     21  N        -22.4580   14.6130  -39.6460 N.am   97  PHE97      -0.1976
     22  CA       -21.5930   14.2300  -38.5490 C.3    97  PHE97       0.1639
     23  C        -20.5210   15.2640  -38.4140 C.2    97  PHE97       0.2290
     24  O        -19.9200   15.6160  -39.3990 O.2    97  PHE97      -0.2864
     25  CB       -20.9920   12.8490  -38.8550 C.3    97  PHE97       0.0560
     26  CG       -20.3130   12.1790  -37.6860 C.ar   97  PHE97      -0.0200
     27  CD1      -19.0330   12.5370  -37.2930 C.ar   97  PHE97      -0.0042
     28  CD2      -20.9150   11.1390  -37.0340 C.ar   97  PHE97      -0.0042
     29  CE1      -18.4190   11.9160  -36.2240 C.ar   97  PHE97      -0.0003
     30  CE2      -20.2890   10.4900  -35.9690 C.ar   97  PHE97      -0.0003
     31  CZ       -19.0230   10.8650  -35.5910 C.ar   97  PHE97      -0.0000
     32  N        -22.7500   24.1570  -32.9850 N.3   115  ARG115     -0.1182
     33  CA       -23.0730   23.5730  -31.7200 C.3   115  ARG115      0.1910
     34  C        -23.1610   22.0220  -31.8780 C.2   115  ARG115      0.2634
     35  O        -23.1760   21.3190  -30.8750 O.2   115  ARG115     -0.2714
     36  CB       -24.4550   24.1620  -31.3070 C.2   115  ARG115      0.0007
     37  CG       -24.9290   23.8670  -29.8770 C.2   115  ARG115      0.0176
     38  CD       -26.4390   24.1330  -29.5730 C.3   115  ARG115      0.2464
     39  NE       -27.1930   24.6050  -30.7750 N.pl3 115  ARG115     -0.0815
     40  CZ       -28.3420   24.0890  -31.2690 C.cat 115  ARG115      0.5349
     41  NH1      -28.9650   23.0530  -30.6920 N.pl3 115  ARG115      0.1354
     42  NH2      -28.8860   24.6230  -32.3700 N.pl3 115  ARG115      0.1354
     43  N        -23.1750   21.5080  -33.1040 N.am  116  LYS116     -0.1963
     44  CA       -23.2500   20.0810  -33.3390 C.3   116  LYS116      0.1728
     45  C        -21.9080   19.4350  -33.0980 C.2   116  LYS116      0.2617
     46  O        -20.8900   19.8740  -33.5910 O.2   116  LYS116     -0.2715
     47  CB       -23.7360   19.7320  -34.7540 C.3   116  LYS116      0.0311
     48  CG       -23.7820   18.2250  -34.9950 C.3   116  LYS116      0.0038
     49  CD       -24.3850   17.8740  -36.3470 C.3   116  LYS116      0.0206
     50  CE       -25.8650   18.1820  -36.3660 C.3   116  LYS116      0.1093
     51  NZ       -26.3740   17.6700  -37.6610 N.3   116  LYS116     -0.1314
     52  N        -21.9330   18.3620  -32.3320 N.am  117  THR117     -0.1937
     53  CA       -20.7670   17.5560  -32.0530 C.3   117  THR117      0.2028
     54  C        -21.1670   16.0790  -32.0280 C.2   117  THR117      0.2642
     55  O        -21.9340   15.6750  -31.1840 O.2   117  THR117     -0.2714
     56  CB       -20.1970   17.9690  -30.7030 C.3   117  THR117      0.1808
     57  OG1      -19.9050   19.3620  -30.7600 O.3   117  THR117     -0.2208
     58  CG2      -18.8760   17.2550  -30.4350 C.3   117  THR117      0.0379
     59  N        -20.6050   15.2740  -32.9240 N.am  118  ASN118     -0.1971
     60  CA       -20.7530   13.8130  -32.9240 C.3   118  ASN118      0.1688
     61  C        -19.5170   13.0610  -32.5040 C.2   118  ASN118      0.2292
     62  O        -19.6170   11.9100  -32.0800 O.2   118  ASN118     -0.2864
     63  CB       -21.2430   13.3430  -34.2730 C.3   118  ASN118      0.1181
     64  CG       -22.4500   14.1010  -34.6610 C.2   118  ASN118      0.2629
     65  OD1      -22.3900   15.0320  -35.4700 O.2   118  ASN118     -0.2716
     66  ND2      -23.5350   13.7830  -34.0210 N.am  118  ASN118     -0.0877
     67  N        -22.5160   16.6640  -24.2200 N.3   150  LEU150     -0.1231
     68  CA       -22.2120   15.9000  -25.4070 C.3   150  LEU150      0.1693
     69  C        -23.3070   14.9550  -25.8250 C.2   150  LEU150      0.2592
     70  O        -23.2420   14.4170  -26.9540 O.2   150  LEU150     -0.2718
     71  CB       -20.9200   15.1030  -25.2010 C.3   150  LEU150      0.0284
     72  CG       -19.6560   15.9640  -25.0620 C.3   150  LEU150      0.0019
     73  CD1      -18.5290   15.0000  -24.8160 C.3   150  LEU150      0.0001
     74  CD2      -19.3710   16.7610  -26.3310 C.3   150  LEU150      0.0001
     75  N        -24.2940   14.7100  -24.9540 N.am  151  ASP151     -0.1960
     76  CA       -25.3690   13.7660  -25.2490 C.3   151  ASP151      0.1840
     77  C        -24.7670   12.4330  -25.6620 C.2   151  ASP151      0.2622
     78  O        -23.9310   11.9120  -24.9290 O.2   151  ASP151     -0.2715
     79  CB       -26.3450   14.2800  -26.3170 C.3   151  ASP151      0.1450
     80  CG       -27.0340   15.6130  -25.9770 C.2   151  ASP151      0.3671
     81  OD1      -27.1380   16.1120  -24.8110 O.co2 151  ASP151     -0.2456
     82  OD2      -27.5120   16.1930  -26.9910 O.co2 151  ASP151     -0.2456
     83  N        -25.1440   11.8950  -26.8280 N.am  152  GLY152     -0.1954
     84  CA       -24.6830   10.5830  -27.3120 C.3   152  GLY152      0.1869
     85  C        -23.4540   10.6520  -28.2060 C.2   152  GLY152      0.2309
     86  O        -23.1330    9.6770  -28.8320 O.2   152  GLY152     -0.2863
@<TRIPOS>BOND
     1     4     3    2
     2    20    18   ar
     3     3     2    1
     4    18    19   ar
     5    18    17    1
     6     1     2    1
     7     2     5    1
     8    17    14    1
     9    13    14    1
    10     5     6    1
    11    14    15    1
    12     6     8   ar
    13     6     7   ar
    14     8    10   ar
    15    15    21   am
    16    15    16    2
    17    21    22    1
    18     7     9   ar
    19    24    23    2
    20    25    22    1
    21    25    26    1
    22    22    23    1
    23    10    11   ar
    24     9    11   ar
    25    11    12    1
    26    26    27   ar
    27    26    28   ar
    28    51    50    1
    29    27    29   ar
    30    28    30   ar
    31    50    49    1
    32    49    48    1
    33    29    31   ar
    34    30    31   ar
    35    65    64    2
    36    48    47    1
    37    47    44    1
    38    64    63    1
    39    64    66   am
    40    63    60    1
    41    46    45    2
    42    44    43    1
    43    44    45    1
    44    43    34   am
    45    45    52   am
    46    32    33    1
    47    60    59    1
    48    60    61    1
    49    59    54   am
    50    61    62    2
    51    42    40    1
    52    52    53    1
    53    53    54    1
    54    53    56    1
    55    54    55    2
    56    34    33    1
    57    34    35    2
    58    33    36    1
    59    36    37    2
    60    40    39    2
    61    40    41    1
    62    39    38    1
    63    57    56    1
    64    56    58    1
    65    37    38    1
    66    86    85    2
    67    85    84    1
    68    84    83    1
    69    82    80   ar
    70    70    69    2
    71    83    77   am
    72    74    72    1
    73    79    80    1
    74    79    76    1
    75    80    81   ar
    76    69    68    1
    77    69    75   am
    78    77    76    1
    79    77    78    2
    80    68    71    1
    81    68    67    1
    82    76    75    1
    83    71    72    1
    84    72    73    1
