@<TRIPOS>MOLECULE
tmp/5cxyA04.pdb
 220 221 0 0 0
SMALL
GASTEIGER

@<TRIPOS>ATOM
      1  N        -11.0850   21.7960  -37.3830 N.3    78  GLY78      -0.1210
      2  CA        -9.8720   22.1880  -36.7060 C.3    78  GLY78       0.1956
      3  C        -10.0980   23.4570  -35.8830 C.2    78  GLY78       0.2612
      4  O        -11.1760   24.0380  -35.8970 O.2    78  GLY78      -0.2717
      5  N         -9.0570   23.9130  -35.2140 N.am   79  ASN79      -0.1960
      6  CA        -9.1520   24.9750  -34.2410 C.3    79  ASN79       0.1819
      7  C         -8.5510   26.3690  -34.6790 C.2    79  ASN79       0.2622
      8  O         -8.5540   27.2980  -33.8620 O.2    79  ASN79      -0.2715
      9  CB        -8.6040   24.5110  -32.9050 C.3    79  ASN79       0.1195
     10  CG        -9.5220   23.5010  -32.2480 C.2    79  ASN79       0.2630
     11  OD1      -10.7180   23.5120  -32.4750 O.2    79  ASN79      -0.2716
     12  ND2       -8.9620   22.6190  -31.4300 N.am   79  ASN79      -0.0877
     13  N         -8.2310   26.5290  -35.9550 N.am   80  SER80      -0.1950
     14  CA        -7.6950   27.8010  -36.4530 C.3    80  SER80       0.1924
     15  C         -8.5480   29.0350  -36.1630 C.2    80  SER80       0.2314
     16  O         -9.7790   29.0000  -36.2410 O.2    80  SER80      -0.2863
     17  CB        -7.4720   27.7380  -37.9660 C.3    80  SER80       0.2116
     18  OG        -7.0290   28.9660  -38.4990 O.3    80  SER80      -0.2180
     19  N        -11.8600   18.7870  -32.3190 N.3   101  CYS101     -0.1221
     20  CA       -10.5310   18.4730  -31.8030 C.3   101  CYS101      0.1808
     21  C        -10.2470   19.0500  -30.4240 C.2   101  CYS101      0.2601
     22  O        -10.5500   20.2130  -30.1370 O.2   101  CYS101     -0.2717
     23  CB        -9.4620   19.0250  -32.7360 C.3   101  CYS101      0.0970
     24  SG        -9.5760   18.4860  -34.4540 S.3   101  CYS101     -0.0800
     25  N         -9.7090   18.2060  -29.5460 N.am  102  ASN102     -0.1974
     26  CA        -9.2920   18.5950  -28.2150 C.3   102  ASN102      0.1688
     27  C        -10.3280   19.2980  -27.3550 C.2   102  ASN102      0.2292
     28  O        -10.0280   20.2400  -26.6800 O.2   102  ASN102     -0.2864
     29  CB        -7.9720   19.3720  -28.2940 C.3   102  ASN102      0.1181
     30  CG        -6.8670   18.5230  -28.9090 C.2   102  ASN102      0.2629
     31  OD1       -6.6310   17.4260  -28.4300 O.2   102  ASN102     -0.2716
     32  ND2       -6.2690   18.9800  -30.0120 N.am  102  ASN102     -0.0877
     33  N          0.8690    9.8280  -25.1240 N.3   162  PHE162     -0.1241
     34  CA         1.8170   10.5270  -24.2930 C.3   162  PHE162      0.1605
     35  C          1.8370    9.9820  -22.8770 C.2   162  PHE162      0.2264
     36  O          0.8110    9.9630  -22.2310 O.2   162  PHE162     -0.2867
     37  CB         1.4550   12.0250  -24.2030 C.3   162  PHE162      0.0534
     38  CG         1.2590   12.6740  -25.5280 C.ar  162  PHE162     -0.0203
     39  CD1        2.3490   13.0850  -26.2710 C.ar  162  PHE162     -0.0042
     40  CD2        0.0010   12.9150  -26.0210 C.ar  162  PHE162     -0.0042
     41  CE1        2.1750   13.6880  -27.5210 C.ar  162  PHE162     -0.0003
     42  CE2       -0.1910   13.4930  -27.2820 C.ar  162  PHE162     -0.0003
     43  CZ         0.8980   13.8930  -28.0290 C.ar  162  PHE162     -0.0000
     44  N          5.2590   14.1870  -35.3880 N.3   210  ARG210     -0.1245
     45  CA         3.8310   13.9850  -35.0550 C.3   210  ARG210      0.1563
     46  C          2.8260   14.5840  -36.0430 C.2   210  ARG210      0.2260
     47  O          2.7950   15.8110  -36.2520 O.2   210  ARG210     -0.2867
     48  CB         3.4540   14.6070  -33.7170 C.3   210  ARG210      0.0307
     49  CG         4.2390   14.1400  -32.5460 C.3   210  ARG210      0.0489
     50  CD         3.4140   14.1270  -31.2580 C.3   210  ARG210      0.2205
     51  NE         2.6350   15.3330  -30.9460 N.pl3 210  ARG210     -0.0865
     52  CZ         3.0170   16.2790  -30.0970 C.cat 210  ARG210      0.5346
     53  NH1        2.1840   17.2680  -29.7980 N.pl3 210  ARG210      0.1354
     54  NH2        4.2220   16.2310  -29.5280 N.pl3 210  ARG210      0.1354
     55  N         -0.8720   15.9280  -36.8690 N.3   212  SER212     -0.1202
     56  CA        -1.7930   16.7060  -36.0000 C.3   212  SER212      0.2020
     57  C         -3.1130   15.9520  -35.7660 C.2   212  SER212      0.2619
     58  O         -3.4940   15.0580  -36.5450 O.2   212  SER212     -0.2717
     59  CB        -2.0650   18.0770  -36.6030 C.3   212  SER212      0.2103
     60  OG        -3.0650   18.0360  -37.5900 O.3   212  SER212     -0.2182
     61  N         -3.8080   16.3370  -34.7090 N.am  213  THR213     -0.1938
     62  CA        -5.0890   15.7570  -34.4160 C.3   213  THR213      0.2028
     63  C         -6.0010   15.9610  -35.6130 C.2   213  THR213      0.2642
     64  O         -6.7460   15.0470  -36.0020 O.2   213  THR213     -0.2714
     65  CB        -5.6750   16.2890  -33.1210 C.3   213  THR213      0.1808
     66  OG1       -4.8940   15.8340  -32.0010 O.3   213  THR213     -0.2208
     67  CG2       -7.1270   15.8360  -32.9380 C.3   213  THR213      0.0379
     68  N         -5.9200   17.1130  -36.2560 N.am  214  GLY214     -0.1954
     69  CA        -6.8020   17.3570  -37.3860 C.3   214  GLY214      0.1869
     70  C         -6.6870   16.3550  -38.5100 C.2   214  GLY214      0.2309
     71  O         -7.6930   15.9040  -39.0980 O.2   214  GLY214     -0.2863
     72  N        -11.5790   25.3950  -40.2290 N.3   232  GLY232     -0.1210
     73  CA       -10.6030   25.6530  -39.2020 C.3   232  GLY232      0.1956
     74  C         -9.2670   24.9740  -39.3810 C.2   232  GLY232      0.2612
     75  O         -8.5550   24.7970  -38.3980 O.2   232  GLY232     -0.2717
     76  N         -8.9070   24.6550  -40.6280 N.am  233  PHE233     -0.1962
     77  CA        -7.5330   24.2440  -40.9740 C.3   233  PHE233      0.1771
     78  C         -6.8140   25.3910  -41.7120 C.2   233  PHE233      0.2620
     79  O         -7.1660   25.7140  -42.8710 O.2   233  PHE233     -0.2715
     80  CB        -7.5610   23.0420  -41.9190 C.3   233  PHE233      0.0574
     81  CG        -7.8830   21.7430  -41.2410 C.ar  233  PHE233     -0.0200
     82  CD1       -6.9010   20.8170  -40.9860 C.ar  233  PHE233     -0.0042
     83  CD2       -9.1980   21.4610  -40.8700 C.ar  233  PHE233     -0.0042
     84  CE1       -7.2230   19.6300  -40.3710 C.ar  233  PHE233     -0.0003
     85  CE2       -9.5030   20.3040  -40.2090 C.ar  233  PHE233     -0.0003
     86  CZ        -8.5130   19.3830  -39.9670 C.ar  233  PHE233     -0.0000
     87  N         -5.8580   26.0090  -41.0450 N.am  234  TRP234     -0.1960
     88  CA        -5.1900   27.2610  -41.5390 C.3   234  TRP234      0.1756
     89  C         -4.1660   27.6540  -40.4900 C.2   234  TRP234      0.2462
     90  O         -4.4730   28.3960  -39.5110 O.2   234  TRP234     -0.2730
     91  CB        -6.1900   28.3960  -41.7670 C.3   234  TRP234      0.0590
     92  CG        -5.5160   29.6270  -42.2040 C.ar  234  TRP234      0.0006
     93  CD1       -5.3130   30.7390  -41.4680 C.ar  234  TRP234      0.0946
     94  CD2       -4.9200   29.8770  -43.4820 C.ar  234  TRP234      0.0152
     95  NE1       -4.6120   31.6430  -42.1890 N.ar  234  TRP234     -0.2442
     96  CE2       -4.3830   31.1700  -43.4380 C.ar  234  TRP234      0.0810
     97  CE3       -4.7690   29.1280  -44.6570 C.ar  234  TRP234      0.0012
     98  CZ2       -3.6610   31.7470  -44.5300 C.ar  234  TRP234      0.0191
     99  CZ3       -4.0890   29.7290  -45.7910 C.ar  234  TRP234      0.0001
    100  CH2       -3.5320   31.0100  -45.6910 C.ar  234  TRP234      0.0015
    101  N         -2.9610   27.0690  -40.5900 N.am  235  PRO235     -0.2716
    102  CA        -1.9940   27.1970  -39.5230 C.3   235  PRO235      0.1536
    103  C         -1.1140   28.4670  -39.6750 C.2   235  PRO235      0.2598
    104  O          0.0840   28.3800  -39.4670 O.2   235  PRO235     -0.2715
    105  CB        -1.1780   25.9340  -39.6740 C.3   235  PRO235      0.0310
    106  CG        -1.1600   25.7270  -41.1370 C.3   235  PRO235      0.0237
    107  CD        -2.5120   26.1320  -41.6290 C.3   235  PRO235      0.0939
    108  N         -1.7100   29.5980  -40.0310 N.am  236  PHE236     -0.1974
    109  CA        -0.9890   30.8530  -40.2870 C.3   236  PHE236      0.1639
    110  C         -1.6030   31.9880  -39.5200 C.2   236  PHE236      0.2290
    111  O         -2.7360   31.8690  -39.0630 O.2   236  PHE236     -0.2864
    112  CB        -0.9770   31.1380  -41.7680 C.3   236  PHE236      0.0560
    113  CG        -0.3810   30.0050  -42.5590 C.ar  236  PHE236     -0.0200
    114  CD1        1.0020   29.7630  -42.5170 C.ar  236  PHE236     -0.0042
    115  CD2       -1.1970   29.1230  -43.2820 C.ar  236  PHE236     -0.0042
    116  CE1        1.5760   28.7160  -43.2320 C.ar  236  PHE236     -0.0003
    117  CE2       -0.6140   28.0700  -44.0240 C.ar  236  PHE236     -0.0003
    118  CZ         0.7760   27.8560  -43.9860 C.ar  236  PHE236     -0.0000
    119  N         -5.5460   35.2250  -34.8670 N.3   247  PRO247     -0.2102
    120  CA        -5.0720   34.3040  -33.8310 C.3   247  PRO247      0.1504
    121  C         -4.9030   32.8540  -34.3400 C.2   247  PRO247      0.2576
    122  O         -5.5250   32.4640  -35.3350 O.2   247  PRO247     -0.2718
    123  CB        -6.1500   34.3950  -32.7490 C.3   247  PRO247      0.0282
    124  CG        -7.3420   34.9920  -33.4020 C.3   247  PRO247      0.0208
    125  CD        -6.8880   35.7430  -34.5960 C.3   247  PRO247      0.0893
    126  N         -4.0260   32.1350  -33.6820 N.am  248  TYR248     -0.1963
    127  CA        -3.8160   30.7400  -33.8510 C.3   248  TYR248      0.1771
    128  C         -5.0750   29.9050  -33.6500 C.2   248  TYR248      0.2619
    129  O         -5.2940   28.9810  -34.4180 O.2   248  TYR248     -0.2715
    130  CB        -2.7170   30.2710  -32.8750 C.3   248  TYR248      0.0574
    131  CG        -2.3190   28.8210  -33.0360 C.ar  248  TYR248     -0.0198
    132  CD1       -2.7180   27.8350  -32.1200 C.ar  248  TYR248     -0.0009
    133  CD2       -1.5410   28.4260  -34.1130 C.ar  248  TYR248     -0.0009
    134  CE1       -2.3320   26.4990  -32.2940 C.ar  248  TYR248      0.0417
    135  CE2       -1.1590   27.1010  -34.3080 C.ar  248  TYR248      0.0417
    136  CZ        -1.5620   26.1460  -33.3980 C.ar  248  TYR248      0.1957
    137  OH        -1.2020   24.8420  -33.5810 O.3   248  TYR248     -0.2866
    138  N         -5.8580   30.2300  -32.6230 N.am  249  HIS249     -0.1973
    139  CA        -7.0810   29.5220  -32.2870 C.3   249  HIS249      0.1656
    140  C         -8.2760   30.4430  -32.3900 C.2   249  HIS249      0.2291
    141  O         -8.1970   31.6140  -32.0160 O.2   249  HIS249     -0.2864
    142  CB        -7.0540   28.9670  -30.8510 C.3   249  HIS249      0.0771
    143  CG        -6.1640   27.7930  -30.6260 C.ar  249  HIS249      0.0820
    144  ND1       -5.4050   27.6500  -29.4880 N.ar  249  HIS249     -0.2267
    145  CD2       -5.9320   26.6870  -31.3730 C.ar  249  HIS249      0.1154
    146  CE1       -4.7540   26.5030  -29.5300 C.ar  249  HIS249      0.1986
    147  NE2       -5.0420   25.9110  -30.6810 N.ar  249  HIS249     -0.2212
    148  N        -10.7540   30.4260  -30.4280 N.3   251  TYR251     -0.1241
    149  CA       -11.2810   30.7180  -29.1170 C.3   251  TYR251      0.1605
    150  C        -10.3250   31.6570  -28.3940 C.2   251  TYR251      0.2264
    151  O        -10.5240   31.9230  -27.2330 O.2   251  TYR251     -0.2867
    152  CB       -11.5740   29.4320  -28.3500 C.3   251  TYR251      0.0534
    153  CG       -10.5110   28.3280  -28.4460 C.ar  251  TYR251     -0.0201
    154  CD1      -10.6390   27.2720  -29.3900 C.ar  251  TYR251     -0.0009
    155  CD2       -9.3940   28.3470  -27.6400 C.ar  251  TYR251     -0.0009
    156  CE1       -9.7000   26.2730  -29.5030 C.ar  251  TYR251      0.0417
    157  CE2       -8.4350   27.3250  -27.7760 C.ar  251  TYR251      0.0417
    158  CZ        -8.6190   26.2960  -28.6640 C.ar  251  TYR251      0.1957
    159  OH        -7.6740   25.3380  -28.8030 O.3   251  TYR251     -0.2866
    160  N         -0.6350   35.5980  -32.8870 N.3   258  PHE258     -0.1241
    161  CA        -0.2450   34.2960  -33.4290 C.3   258  PHE258      0.1605
    162  C          1.1640   33.8970  -32.9530 C.2   258  PHE258      0.2264
    163  O          2.1490   34.6330  -33.1580 O.2   258  PHE258     -0.2867
    164  CB        -0.2870   34.2990  -34.9470 C.3   258  PHE258      0.0534
    165  CG        -0.0940   32.9520  -35.5470 C.ar  258  PHE258     -0.0203
    166  CD1        1.1820   32.5060  -36.0080 C.ar  258  PHE258     -0.0042
    167  CD2       -1.1840   32.1160  -35.6870 C.ar  258  PHE258     -0.0042
    168  CE1        1.3240   31.2390  -36.5990 C.ar  258  PHE258     -0.0003
    169  CE2       -1.0570   30.8590  -36.2960 C.ar  258  PHE258     -0.0003
    170  CZ         0.1940   30.4120  -36.7300 C.ar  258  PHE258     -0.0000
    171  N          4.4890   27.7540  -30.9130 N.3   262  TRP262     -0.1227
    172  CA         3.4060   26.9400  -30.3270 C.3   262  TRP262      0.1737
    173  C          3.3970   25.5530  -31.0070 C.2   262  TRP262      0.2595
    174  O          3.1840   24.5170  -30.3500 O.2   262  TRP262     -0.2718
    175  CB         2.0360   27.6280  -30.5020 C.3   262  TRP262      0.0564
    176  CG         0.9760   26.8270  -29.8160 C.ar  262  TRP262      0.0003
    177  CD1        0.3130   25.7290  -30.2350 C.ar  262  TRP262      0.0946
    178  CD2        0.5330   27.0810  -28.4720 C.ar  262  TRP262      0.0152
    179  NE1       -0.5200   25.2470  -29.2590 N.ar  262  TRP262     -0.2442
    180  CE2       -0.4060   26.0680  -28.1650 C.ar  262  TRP262      0.0810
    181  CE3        0.8340   28.0260  -27.5100 C.ar  262  TRP262      0.0012
    182  CZ2       -1.0210   26.0320  -26.9150 C.ar  262  TRP262      0.0191
    183  CZ3        0.2460   27.9940  -26.2720 C.ar  262  TRP262      0.0001
    184  CH2       -0.7000   26.9880  -25.9770 C.ar  262  TRP262      0.0015
    185  N          3.6930   25.5690  -32.3120 N.am  263  GLN263     -0.1979
    186  CA         3.5610   24.4420  -33.2070 C.3   263  GLN263      0.1601
    187  C          4.8920   23.8810  -33.7600 C.2   263  GLN263      0.2287
    188  O          4.9360   23.3310  -34.8590 O.2   263  GLN263     -0.2864
    189  CB         2.5560   24.8450  -34.3000 C.3   263  GLN263      0.0394
    190  CG         2.9590   26.0140  -35.1430 C.3   263  GLN263      0.0908
    191  CD         2.7490   25.7660  -36.6140 C.2   263  GLN263      0.2608
    192  OE1        2.0980   26.5600  -37.2950 O.2   263  GLN263     -0.2717
    193  NE2        3.2970   24.6400  -37.1170 N.am  263  GLN263     -0.0878
    194  N          4.8330   19.9880  -34.4790 N.3   266  HIS266     -0.1241
    195  CA         3.9770   19.6370  -35.5900 C.3   266  HIS266      0.1621
    196  C          4.6260   20.1820  -36.8950 C.2   266  HIS266      0.2264
    197  O          5.6570   20.8500  -36.8500 O.2   266  HIS266     -0.2867
    198  CB         2.5830   20.2300  -35.3760 C.3   266  HIS266      0.0745
    199  CG         1.8590   19.7030  -34.1670 C.ar  266  HIS266      0.0817
    200  ND1        2.0540   20.2130  -32.8950 N.ar  266  HIS266     -0.2268
    201  CD2        0.8920   18.7570  -34.0510 C.ar  266  HIS266      0.1154
    202  CE1        1.2390   19.5980  -32.0530 C.ar  266  HIS266      0.1986
    203  NE2        0.5130   18.7230  -32.7310 N.ar  266  HIS266     -0.2212
    204  N          2.4080   21.6650  -39.3510 N.3   268  LEU268     -0.1245
    205  CA         1.1040   22.0560  -39.8280 C.3   268  LEU268      0.1561
    206  C          1.1520   22.6670  -41.2190 C.2   268  LEU268      0.2260
    207  O          0.2510   22.4040  -42.0110 O.2   268  LEU268     -0.2867
    208  CB         0.3740   22.9540  -38.8330 C.3   268  LEU268      0.0270
    209  CG        -0.0270   22.4040  -37.4600 C.3   268  LEU268      0.0019
    210  CD1       -1.0250   23.3450  -36.8080 C.3   268  LEU268      0.0001
    211  CD2       -0.6640   21.0230  -37.5370 C.3   268  LEU268      0.0001
    212  N          1.2200   19.7480  -43.6310 N.3   271  GLU271     -0.1245
    213  CA        -0.1460   19.1930  -43.6350 C.3   271  GLU271      0.1567
    214  C         -1.0730   20.0420  -44.4600 C.2   271  GLU271      0.2260
    215  O         -1.8640   19.5480  -45.3180 O.2   271  GLU271     -0.2867
    216  CB        -0.7100   19.0870  -42.2180 C.3   271  GLU271      0.0388
    217  CG         0.0220   18.0510  -41.3530 C.3   271  GLU271      0.1160
    218  CD        -0.6100   17.8150  -39.9850 C.2   271  GLU271      0.3649
    219  OE1       -1.7460   18.3110  -39.6990 O.co2 271  GLU271     -0.2457
    220  OE2        0.0240   17.1120  -39.1850 O.co2 271  GLU271     -0.2457
@<TRIPOS>BOND
     1    99   100   ar
     2    99    97   ar
     3   100    98   ar
     4   215   214    2
     5    97    94   ar
     6    98    96   ar
     7   214   213    1
     8   117   118   ar
     9   117   115   ar
    10   118   116   ar
    11   213   212    1
    12   213   216    1
    13    94    96   ar
    14    94    92   ar
    15    96    95   ar
    16   115   113   ar
    17   116   114   ar
    18    79    78    2
    19   113   114   ar
    20   113   112    1
    21   216   217    1
    22    92    91    1
    23    92    93   ar
    24    95    93   ar
    25   207   206    2
    26    80    81    1
    27    80    77    1
    28   112   109    1
    29    91    88    1
    30    78    87   am
    31    78    77    1
    32   107   106    1
    33   107   101    1
    34    88    87    1
    35    88    89    1
    36   217   218    1
    37    81    82   ar
    38    81    83   ar
    39   206   205    1
    40   106   105    1
    41    82    84   ar
    42    77    76    1
    43    83    85   ar
    44    76    74   am
    45   101    89   am
    46   101   102    1
    47    89    90    2
    48    84    86   ar
    49   109   108    1
    50   109   110    1
    51    72    73    1
    52    85    86   ar
    53   108   103   am
    54   218   219   ar
    55   218   220   ar
    56   205   204    1
    57   205   208    1
    58   103   102    1
    59   103   104    2
    60   105   102    1
    61   110   111    2
    62    74    73    1
    63    74    75    2
    64    71    70    2
    65   208   209    1
    66    70    69    1
    67    18    17    1
    68    17    14    1
    69    60    59    1
    70   211   209    1
    71   209   210    1
    72    69    68    1
    73     1     2    1
    74   192   191    2
    75   193   191   am
    76   196   197    2
    77   196   195    1
    78    55    56    1
    79   170   168   ar
    80   170   169   ar
    81     2     3    1
    82   191   190    1
    83    59    56    1
    84   168   166   ar
    85    58    57    2
    86    14    15    1
    87    14    13    1
    88   169   167   ar
    89    68    63   am
    90    47    46    2
    91    16    15    2
    92    46    45    1
    93   166   165   ar
    94    64    63    2
    95    56    57    1
    96    13     7   am
    97     4     3    2
    98     3     5   am
    99    57    61   am
   100   167   165   ar
   101    63    62    1
   102   195   198    1
   103   195   194    1
   104   165   164    1
   105    44    45    1
   106   198   199    1
   107   122   121    2
   108     5     6    1
   109   190   189    1
   110    45    48    1
   111   164   161    1
   112   119   125    1
   113   119   120    1
   114   188   187    2
   115    61    62    1
   116     7     6    1
   117     7     8    2
   118   125   124    1
   119    24    23    1
   120   129   128    2
   121    62    65    1
   122   121   120    1
   123   121   126   am
   124   135   133   ar
   125   135   136   ar
   126   189   186    1
   127     6     9    1
   128   199   201   ar
   129   199   200   ar
   130   133   131   ar
   131   201   203   ar
   132   127   126    1
   133   127   128    1
   134   127   130    1
   135   120   123    1
   136   187   186    1
   137    48    49    1
   138   128   138   am
   139   137   136    1
   140   161   162    1
   141   161   160    1
   142   124   123    1
   143   136   134   ar
   144   186   185    1
   145   163   162    2
   146    65    67    1
   147    65    66    1
   148   131   130    1
   149   131   132   ar
   150     9    10    1
   151   200   202   ar
   152    23    20    1
   153   203   202   ar
   154   138   139    1
   155    49    50    1
   156    11    10    2
   157   140   139    1
   158   140   141    2
   159    19    20    1
   160   185   173   am
   161   134   132   ar
   162   139   142    1
   163    10    12   am
   164    20    21    1
   165   145   147   ar
   166   145   143   ar
   167    50    51    1
   168   173   174    2
   169   173   172    1
   170    51    52    2
   171   171   172    1
   172   142   143    1
   173   147   146   ar
   174   143   144   ar
   175   175   172    1
   176   175   176    1
   177   148   149    1
   178    21    22    2
   179    21    25   am
   180   177   176   ar
   181   177   179   ar
   182    52    53    1
   183    52    54    1
   184    32    30   am
   185   176   178   ar
   186    25    26    1
   187   146   144   ar
   188   156   154   ar
   189   156   158   ar
   190   154   153   ar
   191   179   180   ar
   192   149   150    1
   193   149   152    1
   194    30    31    2
   195    30    29    1
   196   159   158    1
   197   158   157   ar
   198   178   180   ar
   199   178   181   ar
   200   153   152    1
   201   153   155   ar
   202   150   151    2
   203    29    26    1
   204    26    27    1
   205   180   182   ar
   206    43    41   ar
   207    43    42   ar
   208   157   155   ar
   209    41    39   ar
   210   181   183   ar
   211    27    28    2
   212    42    40   ar
   213   182   184   ar
   214   183   184   ar
   215    39    38   ar
   216    40    38   ar
   217    38    37    1
   218    33    34    1
   219    34    37    1
   220    34    35    1
   221    35    36    2
