@<TRIPOS>MOLECULE
tmp/5cxzA00.pdb
 157 148 0 0 0
SMALL
GASTEIGER

@<TRIPOS>ATOM
      1  N         -1.9720   -6.2110    8.9020 N.3    14  GLU14      -0.1231
      2  CA        -1.5420   -4.8520    8.6030 C.3    14  GLU14       0.1699
      3  C         -1.8550   -4.0020    9.8260 C.2    14  GLU14       0.2592
      4  O         -2.9720   -4.0540   10.3420 O.2    14  GLU14      -0.2718
      5  CB        -2.2440   -4.3170    7.3420 C.3    14  GLU14       0.0402
      6  CG        -1.5520   -3.1070    6.7370 C.3    14  GLU14       0.1161
      7  CD        -2.2460   -2.5140    5.5260 C.2    14  GLU14       0.3649
      8  OE1       -2.0430   -3.0360    4.4050 O.co2  14  GLU14      -0.2457
      9  OE2       -2.9830   -1.5160    5.6970 O.co2  14  GLU14      -0.2457
     10  N         -0.8440   -3.2740   10.3210 N.am   15  LEU15      -0.1966
     11  CA        -0.9270   -2.4210   11.5050 C.3    15  LEU15       0.1728
     12  C         -1.0690   -0.9590   11.1370 C.2    15  LEU15       0.2616
     13  O         -1.5770   -0.1550   11.9260 O.2    15  LEU15      -0.2715
     14  CB         0.3400   -2.6090   12.3600 C.3    15  LEU15       0.0311
     15  CG         0.6710   -4.0490   12.7780 C.3    15  LEU15       0.0022
     16  CD1        2.0380   -4.1270   13.4280 C.3    15  LEU15       0.0001
     17  CD2       -0.4040   -4.6190   13.6730 C.3    15  LEU15       0.0001
     18  N         -0.5460   -0.6100    9.9760 N.am   16  GLY16      -0.1955
     19  CA        -0.5390    0.7660    9.4990 C.3    16  GLY16       0.1869
     20  C         -0.2580    0.8690    8.0220 C.2    16  GLY16       0.2309
     21  O          0.2240   -0.0890    7.4060 O.2    16  GLY16      -0.2863
     22  N          2.8610   -1.0800    7.4350 N.3    23  VAL23      -0.1245
     23  CA         3.4710   -1.6040    8.6560 C.3    23  VAL23       0.1561
     24  C          2.7840   -2.9570    8.9250 C.2    23  VAL23       0.2260
     25  O          1.5600   -3.0080    9.0270 O.2    23  VAL23      -0.2867
     26  CB         3.3740   -0.6440    9.8750 C.3    23  VAL23       0.0252
     27  CG1        4.1530   -1.2080   11.0670 C.3    23  VAL23       0.0019
     28  CG2        3.8820    0.7640    9.5210 C.3    23  VAL23       0.0019
     29  N          7.0780   -5.0740   14.7190 N.3    38  ALA38      -0.1245
     30  CA         6.2890   -4.2530   13.8160 C.3    38  ALA38       0.1562
     31  C          7.2910   -3.8520   12.7450 C.2    38  ALA38       0.2260
     32  O          8.4010   -3.3990   13.0550 O.2    38  ALA38      -0.2867
     33  CB         5.7560   -3.0330   14.5290 C.3    38  ALA38       0.0290
     34  N          9.7940    3.7950   21.2210 N.3    66  VAL66      -0.1245
     35  CA         9.8340    2.4920   20.5140 C.3    66  VAL66       0.1561
     36  C         11.3020    2.1750   20.1400 C.2    66  VAL66       0.2260
     37  O         12.0010    3.0340   19.5840 O.2    66  VAL66      -0.2867
     38  CB         8.9090    2.4940   19.2570 C.3    66  VAL66       0.0252
     39  CG1        9.1720    1.2690   18.3690 C.3    66  VAL66       0.0019
     40  CG2        7.4280    2.5590   19.6540 C.3    66  VAL66       0.0019
     41  N         10.9980   -2.9980   14.2280 N.3    81  MET81      -0.1230
     42  CA        10.8890   -2.4010   15.5670 C.3    81  MET81       0.1702
     43  C         10.2230   -3.3460   16.5400 C.2    81  MET81       0.2592
     44  O          9.4630   -4.2120   16.0910 O.2    81  MET81      -0.2718
     45  CB        10.0770   -1.0770   15.4690 C.3    81  MET81       0.0401
     46  CG        10.7280   -0.0270   14.5470 C.3    81  MET81       0.0596
     47  SD         9.5290    1.2500   14.0320 S.3    81  MET81      -0.1393
     48  CE         8.5910    0.3490   12.7750 C.3    81  MET81       0.0692
     49  N         10.4740   -3.1970   17.8720 N.am   82  GLU82      -0.1966
     50  CA         9.7800   -4.0310   18.8720 C.3    82  GLU82       0.1733
     51  C          8.3030   -3.6610   18.8000 C.2    82  GLU82       0.2616
     52  O          7.9820   -2.4770   18.8070 O.2    82  GLU82      -0.2715
     53  CB        10.2380   -3.7640   20.3090 C.3    82  GLU82       0.0429
     54  CG        11.6980   -4.0480   20.6310 C.3    82  GLU82       0.1163
     55  CD        12.0500   -3.8940   22.1020 C.2    82  GLU82       0.3649
     56  OE1       11.3640   -3.1190   22.8130 O.co2  82  GLU82      -0.2457
     57  OE2       13.0330   -4.5370   22.5400 O.co2  82  GLU82      -0.2457
     58  N          7.4010   -4.6480   18.7970 N.am   83  MET83      -0.1963
     59  CA         5.9740   -4.3090   18.6900 C.3    83  MET83       0.1736
     60  C          5.3170   -3.8820   20.0080 C.2    83  MET83       0.2616
     61  O          5.4230   -4.5780   21.0190 O.2    83  MET83      -0.2715
     62  CB         5.1890   -5.4720   18.0310 C.3    83  MET83       0.0427
     63  CG         3.7170   -5.0810   17.6970 C.3    83  MET83       0.0599
     64  SD         2.9010   -6.4040   16.7950 S.3    83  MET83      -0.1393
     65  CE         1.1940   -5.7920   16.8230 C.3    83  MET83       0.0692
     66  N          4.5660   -2.7630   19.9650 N.am   84  ALA84      -0.1963
     67  CA         3.7260   -2.2670   21.0610 C.3    84  ALA84       0.1728
     68  C          2.3310   -2.7870   20.6600 C.2    84  ALA84       0.2616
     69  O          1.5970   -2.1610   19.8990 O.2    84  ALA84      -0.2715
     70  CB         3.7660   -0.7450   21.0810 C.3    84  ALA84       0.0334
     71  N          2.0250   -4.0000   21.1070 N.am   85  GLU85      -0.1963
     72  CA         0.8760   -4.8010   20.6570 C.3    85  GLU85       0.1733
     73  C         -0.5370   -4.2220   20.8840 C.2    85  GLU85       0.2616
     74  O         -1.4500   -4.6340   20.1660 O.2    85  GLU85      -0.2715
     75  CB         0.9750   -6.2050   21.2310 C.3    85  GLU85       0.0429
     76  CG         2.2700   -6.8530   20.7520 C.3    85  GLU85       0.1163
     77  CD         2.3550   -8.3570   20.9080 C.2    85  GLU85       0.3649
     78  OE1        3.4600   -8.8640   21.2200 O.co2  85  GLU85      -0.2457
     79  OE2        1.3270   -9.0290   20.6730 O.co2  85  GLU85      -0.2457
     80  N         -0.7270   -3.2670   21.8040 N.am   86  LEU86      -0.1963
     81  CA        -2.0560   -2.6760   22.0000 C.3    86  LEU86       0.1728
     82  C         -2.3460   -1.5650   20.9700 C.2    86  LEU86       0.2617
     83  O         -3.4900   -1.1870   20.7640 O.2    86  LEU86      -0.2715
     84  CB        -2.2570   -2.2190   23.4530 C.3    86  LEU86       0.0311
     85  CG        -2.6690   -3.3040   24.4730 C.3    86  LEU86       0.0022
     86  CD1       -1.6250   -4.3660   24.6370 C.3    86  LEU86       0.0001
     87  CD2       -2.9360   -2.7110   25.8280 C.3    86  LEU86       0.0001
     88  N         -1.2950   -1.0820   20.3000 N.am   87  GLY87      -0.1941
     89  CA        -1.4180   -0.1150   19.2240 C.3    87  GLY87       0.1998
     90  C         -1.7030    1.3290   19.6030 C.2    87  GLY87       0.2480
     91  O         -1.5180    1.7250   20.7610 O.2    87  GLY87      -0.2729
     92  N         -2.1030    2.1460   18.5970 N.am   88  PRO88      -0.2726
     93  CA        -2.2680    3.6000   18.8400 C.3    88  PRO88       0.1402
     94  C         -3.2150    3.9700   19.9680 C.2    88  PRO88       0.2269
     95  O         -4.2950    3.3690   20.1110 O.2    88  PRO88      -0.2865
     96  CB        -2.7530    4.1580   17.4950 C.3    88  PRO88       0.0296
     97  CG        -2.3620    3.1390   16.4860 C.3    88  PRO88       0.0237
     98  CD        -2.3430    1.8010   17.1800 C.3    88  PRO88       0.0939
     99  N         -6.9820    5.1450   18.9500 N.3    91  LYS91      -0.1245
    100  CA        -7.8660    4.0060   18.6200 C.3    91  LYS91       0.1561
    101  C         -8.1960    3.2140   19.8740 C.2    91  LYS91       0.2260
    102  O         -9.3570    2.7900   20.0510 O.2    91  LYS91      -0.2867
    103  CB        -7.2380    3.0990   17.5490 C.3    91  LYS91       0.0271
    104  CG        -6.8860    3.7860   16.2310 C.3    91  LYS91       0.0035
    105  CD        -8.1020    4.1160   15.3730 C.3    91  LYS91       0.0206
    106  CE        -7.7330    4.9420   14.1670 C.3    91  LYS91       0.1093
    107  NZ        -8.9080    5.1710   13.2830 N.3    91  LYS91      -0.1314
    108  N        -12.1460    2.7030   21.6680 N.3    95  GLN95      -0.1245
    109  CA       -12.6730    1.3610   21.8690 C.3    95  GLN95       0.1566
    110  C        -12.7850    0.9650   23.3570 C.2    95  GLN95       0.2260
    111  O        -13.4150   -0.0450   23.6710 O.2    95  GLN95      -0.2867
    112  CB       -11.7700    0.3680   21.1100 C.3    95  GLN95       0.0367
    113  CG       -11.8500    0.5000   19.5790 C.3    95  GLN95       0.0905
    114  CD       -10.6840   -0.1230   18.8280 C.2    95  GLN95       0.2608
    115  OE1      -10.2290    0.3980   17.8000 O.2    95  GLN95      -0.2717
    116  NE2      -10.1790   -1.2570   19.2950 N.am   95  GLN95      -0.0878
    117  N         -2.1290    9.2480   17.7640 N.3   131  ARG131     -0.1231
    118  CA        -1.9640    8.1590   16.7800 C.3   131  ARG131      0.1694
    119  C         -0.5050    7.6370   16.7430 C.2   131  ARG131      0.2592
    120  O         -0.2510    6.5370   16.2600 O.2   131  ARG131     -0.2718
    121  CB        -2.3910    8.6450   15.3690 C.3   131  ARG131      0.0321
    122  CG        -1.3860    9.5830   14.6620 C.3   131  ARG131      0.0489
    123  CD        -1.8550   10.0570   13.2790 C.3   131  ARG131      0.2205
    124  NE        -1.0030   11.1660   12.8320 N.pl3 131  ARG131     -0.0865
    125  CZ        -1.2350   12.4430   13.1190 C.cat 131  ARG131      0.5346
    126  NH1       -2.3430   12.7980   13.7630 N.pl3 131  ARG131      0.1354
    127  NH2       -0.3810   13.3790   12.7310 N.pl3 131  ARG131      0.1354
    128  N          0.4480    8.4300   17.2810 N.am  132  ASN132     -0.1974
    129  CA         1.8660    8.0990   17.3220 C.3   132  ASN132      0.1688
    130  C          2.3300    7.7930   18.7180 C.2   132  ASN132      0.2292
    131  O          3.5340    7.7290   18.9660 O.2   132  ASN132     -0.2864
    132  CB         2.7200    9.1830   16.6320 C.3   132  ASN132      0.1181
    133  CG         2.4580    9.2250   15.1530 C.2   132  ASN132      0.2629
    134  OD1        2.0580    8.2120   14.5420 O.2   132  ASN132     -0.2716
    135  ND2        2.6650   10.3790   14.5600 N.am  132  ASN132     -0.0877
    136  N          2.0170    4.6580   21.1760 N.3   134  LEU134     -0.1245
    137  CA         1.6070    3.2320   21.1090 C.3   134  LEU134      0.1561
    138  C          1.6070    2.5880   22.4630 C.2   134  LEU134      0.2260
    139  O          2.5270    2.8590   23.2450 O.2   134  LEU134     -0.2867
    140  CB         2.5460    2.4530   20.1620 C.3   134  LEU134      0.0270
    141  CG         2.7590    3.0820   18.7810 C.3   134  LEU134      0.0019
    142  CD1        3.6770    2.2480   17.9740 C.3   134  LEU134      0.0001
    143  CD2        1.4400    3.2860   18.0240 C.3   134  LEU134      0.0001
    144  N          6.2150    6.6840   19.0250 N.3   144  SER144     -0.1202
    145  CA         6.6610    6.0550   17.7690 C.3   144  SER144      0.2020
    146  C          6.7530    7.1040   16.6700 C.2   144  SER144      0.2618
    147  O          6.5240    8.2950   16.9190 O.2   144  SER144     -0.2717
    148  CB         5.6340    5.0130   17.3170 C.3   144  SER144      0.2103
    149  OG         4.3990    5.6320   16.9540 O.3   144  SER144     -0.2182
    150  N          6.9870    6.6230   15.4210 N.am  145  ASP145     -0.1973
    151  CA         6.8880    7.4150   14.2090 C.3   145  ASP145      0.1709
    152  C          7.8490    8.6030   14.1640 C.2   145  ASP145      0.2293
    153  O          7.4610    9.7730   14.2700 O.2   145  ASP145     -0.2864
    154  CB         5.4210    7.8570   14.0000 C.3   145  ASP145      0.1436
    155  CG         4.5300    6.7440   13.4720 C.2   145  ASP145      0.3671
    156  OD1        4.2730    6.7250   12.2450 O.co2 145  ASP145     -0.2456
    157  OD2        4.0550    5.9070   14.2970 O.co2 145  ASP145     -0.2456
@<TRIPOS>BOND
     1     8     7   ar
     2     7     9   ar
     3     7     6    1
     4     6     5    1
     5     5     2    1
     6    21    20    2
     7    22    23    1
     8    20    19    1
     9     2     1    1
    10     2     3    1
    11    23    24    1
    12    23    26    1
    13    24    25    2
    14    19    18    1
    15    28    26    1
    16     3    10   am
    17     3     4    2
    18    26    27    1
    19    18    12   am
    20    10    11    1
    21    12    11    1
    22    12    13    2
    23    11    14    1
    24   156   155   ar
    25    14    15    1
    26   127   125    1
    27    31    32    2
    28    31    30    1
    29    48    47    1
    30    15    16    1
    31    15    17    1
    32   124   125    2
    33   124   123    1
    34   125   126    1
    35   123   122    1
    36   107   106    1
    37   155   154    1
    38   155   157   ar
    39    30    33    1
    40    30    29    1
    41   154   151    1
    42    47    46    1
    43   152   151    1
    44   152   153    2
    45   106   105    1
    46   151   150    1
    47    41    42    1
    48   134   133    2
    49    46    45    1
    50   135   133   am
    51   122   121    1
    52   133   132    1
    53   121   118    1
    54   105   104    1
    55   150   146   am
    56    45    42    1
    57    42    43    1
    58    44    43    2
    59   104   103    1
    60   120   119    2
    61    97    98    1
    62    97    96    1
    63    43    49   am
    64   132   129    1
    65   146   147    2
    66   146   145    1
    67   119   118    1
    68   119   128   am
    69   118   117    1
    70    64    65    1
    71    64    63    1
    72   149   148    1
    73    98    92    1
    74   128   129    1
    75   148   145    1
    76   129   130    1
    77    96    93    1
    78   103   100    1
    79    63    62    1
    80   145   144    1
    81   115   114    2
    82    49    50    1
    83   142   141    1
    84   143   141    1
    85    62    59    1
    86    39    38    1
    87    92    93    1
    88    92    90   am
    89   100    99    1
    90   100   101    1
    91    59    58    1
    92    59    60    1
    93   130   131    2
    94   141   140    1
    95    58    51   am
    96    51    52    2
    97    51    50    1
    98   114   116   am
    99   114   113    1
   100    93    94    1
   101    50    53    1
   102    89    90    1
   103    89    88    1
   104    38    40    1
   105    38    35    1
   106   113   112    1
   107    37    36    2
   108    90    91    2
   109   101   102    2
   110    69    68    2
   111    66    60   am
   112    66    67    1
   113    94    95    2
   114    60    61    2
   115    36    35    1
   116   140   137    1
   117    74    73    2
   118    88    82   am
   119    53    54    1
   120    35    34    1
   121    54    55    1
   122    72    73    1
   123    72    71    1
   124    72    75    1
   125    68    67    1
   126    68    71   am
   127    79    77   ar
   128    76    77    1
   129    76    75    1
   130    83    82    2
   131    73    80   am
   132    77    78   ar
   133    82    81    1
   134    67    70    1
   135   137   136    1
   136   137   138    1
   137   112   109    1
   138   108   109    1
   139    80    81    1
   140   109   110    1
   141    81    84    1
   142    55    57   ar
   143    55    56   ar
   144   138   139    2
   145   110   111    2
   146    84    85    1
   147    85    86    1
   148    85    87    1
