@<TRIPOS>MOLECULE
tmp/5cy3A00.pdb
 158 149 0 0 0
SMALL
GASTEIGER

@<TRIPOS>ATOM
      1  N         -8.3490  -20.9080   -6.4850 N.3    16  LYS16      -0.1245
      2  CA        -7.9700  -21.3230   -7.8360 C.3    16  LYS16       0.1561
      3  C         -7.2920  -20.1650   -8.5650 C.2    16  LYS16       0.2260
      4  O         -7.9020  -19.1120   -8.7820 O.2    16  LYS16      -0.2867
      5  CB        -9.1900  -21.8370   -8.6240 C.3    16  LYS16       0.0271
      6  CG        -8.8890  -22.4380   -9.9900 C.3    16  LYS16       0.0035
      7  CD        -8.9680  -21.3820  -11.0680 C.3    16  LYS16       0.0206
      8  CE        -8.7560  -21.9530  -12.4510 C.3    16  LYS16       0.1093
      9  NZ        -8.6810  -20.8390  -13.4450 N.3    16  LYS16      -0.1314
     10  N         -5.6270  -18.0910  -11.6430 N.3    18  LEU18      -0.1231
     11  CA        -5.9150  -17.7890  -13.0440 C.3    18  LEU18       0.1693
     12  C         -4.6010  -17.8660  -13.8390 C.2    18  LEU18       0.2593
     13  O         -4.6110  -17.9050  -15.0650 O.2    18  LEU18      -0.2718
     14  CB        -6.5080  -16.3680  -13.1590 C.3    18  LEU18       0.0284
     15  CG        -7.8810  -16.1050  -12.5200 C.3    18  LEU18       0.0019
     16  CD1       -8.2350  -14.6360  -12.6070 C.3    18  LEU18       0.0001
     17  CD2       -8.9770  -16.9370  -13.1760 C.3    18  LEU18       0.0001
     18  N         -3.4850  -17.8480  -13.1220 N.am   19  GLY19      -0.1942
     19  CA        -2.1420  -17.9070  -13.6810 C.3    19  GLY19       0.2014
     20  C         -1.2280  -16.9320  -12.9780 C.2    19  GLY19       0.2640
     21  O         -1.5660  -16.4290  -11.9060 O.2    19  GLY19      -0.2714
     22  N         -0.0580  -16.6900  -13.5490 N.am   20  SER20      -0.1935
     23  CA         0.8870  -15.7590  -12.9670 C.3    20  SER20       0.2055
     24  C          1.3080  -14.7160  -13.9630 C.2    20  SER20       0.2643
     25  O          1.3500  -14.9750  -15.1660 O.2    20  SER20      -0.2714
     26  CB         2.0950  -16.4820  -12.3860 C.3    20  SER20       0.2130
     27  OG         2.7980  -17.1860  -13.3940 O.3    20  SER20      -0.2179
     28  N          1.6190  -13.5440  -13.4350 N.am   21  GLY21      -0.1954
     29  CA         2.1540  -12.4300  -14.1980 C.3    21  GLY21       0.1869
     30  C          3.6190  -12.3030  -13.8240 C.2    21  GLY21       0.2309
     31  O          4.1420  -13.1210  -13.0470 O.2    21  GLY21      -0.2863
     32  N         -2.1230  -14.4420  -10.0100 N.3    26  VAL26      -0.1245
     33  CA        -3.3910  -13.7680  -10.2080 C.3    26  VAL26       0.1561
     34  C         -4.5270  -14.7120   -9.8730 C.2    26  VAL26       0.2260
     35  O         -4.5530  -15.8570  -10.3450 O.2    26  VAL26      -0.2867
     36  CB        -3.5080  -13.1760  -11.6410 C.3    26  VAL26       0.0252
     37  CG1       -4.8450  -12.4800  -11.8540 C.3    26  VAL26       0.0019
     38  CG2       -2.3490  -12.2310  -11.9360 C.3    26  VAL26       0.0019
     39  N         -9.7210   -9.2490  -10.9040 N.3    41  ALA41      -0.1245
     40  CA        -8.5480  -10.1140  -11.0080 C.3    41  ALA41       0.1562
     41  C         -7.5630   -9.4990  -10.0310 C.2    41  ALA41       0.2260
     42  O         -7.4070   -8.2780  -10.0250 O.2    41  ALA41      -0.2867
     43  CB        -7.9790  -10.0920  -12.4170 C.3    41  ALA41       0.0290
     44  N         -3.7420   -9.5790   -8.4520 N.3    43  LYS43      -0.1245
     45  CA        -2.3520   -9.9940   -8.5660 C.3    43  LYS43       0.1561
     46  C         -1.7480   -9.8750   -7.1860 C.2    43  LYS43       0.2260
     47  O         -1.6820   -8.7750   -6.6220 O.2    43  LYS43      -0.2867
     48  CB        -1.5910   -9.1340   -9.6030 C.3    43  LYS43       0.0271
     49  CG        -0.1370   -9.5680   -9.7470 C.3    43  LYS43       0.0035
     50  CD         0.5760   -8.8780  -10.9120 C.3    43  LYS43       0.0206
     51  CE         0.0630   -9.3350  -12.2430 C.3    43  LYS43       0.1093
     52  NZ         0.7380   -8.6300  -13.3790 N.3    43  LYS43      -0.1314
     53  N         -5.8540   -2.7330  -20.0450 N.3    72  VAL72      -0.1245
     54  CA        -6.5100   -3.1470  -18.7970 C.3    72  VAL72       0.1561
     55  C         -6.5080   -2.0140  -17.7680 C.2    72  VAL72       0.2260
     56  O         -5.4800   -1.3550  -17.5740 O.2    72  VAL72      -0.2867
     57  CB        -5.9040   -4.4610  -18.2260 C.3    72  VAL72       0.0252
     58  CG1       -6.4230   -4.7620  -16.8180 C.3    72  VAL72       0.0019
     59  CG2       -6.1570   -5.6390  -19.1630 C.3    72  VAL72       0.0019
     60  N         -7.3480   -5.3730  -10.3000 N.3    87  MET87      -0.1230
     61  CA        -7.6800   -4.8860  -11.6350 C.3    87  MET87       0.1702
     62  C         -8.9760   -5.4770  -12.1400 C.2    87  MET87       0.2592
     63  O         -9.5030   -6.4420  -11.5620 O.2    87  MET87      -0.2718
     64  CB        -6.5170   -5.1130  -12.6130 C.3    87  MET87       0.0401
     65  CG        -6.1510   -6.5580  -12.8180 C.3    87  MET87       0.0596
     66  SD        -4.5930   -6.7380  -13.7570 S.3    87  MET87      -0.1393
     67  CE        -3.4510   -6.5310  -12.4890 C.3    87  MET87       0.0692
     68  N         -9.4930   -4.8840  -13.2170 N.am   88  GLU88      -0.1966
     69  CA       -10.7050   -5.3570  -13.8600 C.3    88  GLU88       0.1733
     70  C        -10.4650   -6.7300  -14.4290 C.2    88  GLU88       0.2616
     71  O         -9.3950   -6.9920  -14.9810 O.2    88  GLU88      -0.2715
     72  CB       -11.1500   -4.3780  -14.9430 C.3    88  GLU88       0.0429
     73  CG       -11.6890   -3.0820  -14.3490 C.3    88  GLU88       0.1163
     74  CD       -12.2640   -2.1100  -15.3590 C.2    88  GLU88       0.3649
     75  OE1      -12.7650   -1.0460  -14.9300 O.co2  88  GLU88      -0.2457
     76  OE2      -12.2320   -2.4160  -16.5750 O.co2  88  GLU88      -0.2457
     77  N        -11.4330   -7.6180  -14.2460 N.am   89  MET89      -0.1963
     78  CA       -11.3240   -8.9930  -14.7030 C.3    89  MET89       0.1736
     79  C        -11.6740   -9.1340  -16.1910 C.2    89  MET89       0.2616
     80  O        -12.7630   -8.7300  -16.6010 O.2    89  MET89      -0.2715
     81  CB       -12.2370   -9.8740  -13.8290 C.3    89  MET89       0.0427
     82  CG       -12.4730  -11.2560  -14.3620 C.3    89  MET89       0.0599
     83  SD       -11.0640  -12.3430  -14.1210 S.3    89  MET89      -0.1393
     84  CE       -11.8900  -13.9270  -14.2200 C.3    89  MET89       0.0692
     85  N        -10.7690   -9.7390  -16.9800 N.am   90  ALA90      -0.1963
     86  CA       -11.0270  -10.0340  -18.3950 C.3    90  ALA90       0.1728
     87  C        -11.4740  -11.4810  -18.3580 C.2    90  ALA90       0.2616
     88  O        -10.6390  -12.3830  -18.1860 O.2    90  ALA90      -0.2715
     89  CB        -9.7620   -9.8680  -19.2070 C.3    90  ALA90       0.0334
     90  N        -12.8090  -11.6940  -18.4220 N.am   91  GLU91      -0.1963
     91  CA       -13.4760  -12.9940  -18.2220 C.3    91  GLU91       0.1733
     92  C        -12.9260  -14.1330  -19.0540 C.2    91  GLU91       0.2616
     93  O        -12.8530  -15.2550  -18.5580 O.2    91  GLU91      -0.2715
     94  CB       -15.0030  -12.8960  -18.4260 C.3    91  GLU91       0.0429
     95  CG       -15.5780  -11.7810  -17.5600 C.3    91  GLU91       0.1163
     96  CD       -15.7150  -12.1230  -16.1010 C.2    91  GLU91       0.3649
     97  OE1      -15.3730  -13.2520  -15.7420 O.co2  91  GLU91      -0.2457
     98  OE2      -16.1730  -11.2500  -15.3000 O.co2  91  GLU91      -0.2457
     99  N        -12.5650  -13.8670  -20.3150 N.am   92  LEU92      -0.1963
    100  CA       -12.1320  -14.9310  -21.2120 C.3    92  LEU92       0.1728
    101  C        -10.6320  -15.2390  -21.1260 C.2    92  LEU92       0.2617
    102  O        -10.2040  -16.2750  -21.6260 O.2    92  LEU92      -0.2715
    103  CB       -12.5800  -14.6640  -22.6540 C.3    92  LEU92       0.0311
    104  CG       -14.1180  -14.5900  -22.8860 C.3    92  LEU92       0.0022
    105  CD1      -14.4260  -14.4810  -24.3560 C.3    92  LEU92       0.0001
    106  CD2      -14.8420  -15.7910  -22.3030 C.3    92  LEU92       0.0001
    107  N         -9.8760  -14.3840  -20.4390 N.am   93  GLY93      -0.1941
    108  CA        -8.4620  -14.6220  -20.2160 C.3    93  GLY93       0.1998
    109  C         -7.5180  -14.4990  -21.3960 C.2    93  GLY93       0.2480
    110  O         -7.8540  -13.8940  -22.4180 O.2    93  GLY93      -0.2729
    111  N         -6.2800  -15.0370  -21.2180 N.am   94  PRO94      -0.2726
    112  CA        -5.2270  -14.8780  -22.2350 C.3    94  PRO94       0.1402
    113  C         -5.5430  -15.4370  -23.5990 C.2    94  PRO94       0.2269
    114  O         -6.1120  -16.5260  -23.7160 O.2    94  PRO94      -0.2865
    115  CB        -4.0320  -15.6380  -21.6300 C.3    94  PRO94       0.0296
    116  CG        -4.2840  -15.7060  -20.1860 C.3    94  PRO94       0.0237
    117  CD        -5.7770  -15.7690  -20.0340 C.3    94  PRO94       0.0939
    118  N          0.1320  -14.2190  -24.2780 N.3   137  ARG137     -0.1231
    119  CA        -0.2670  -14.5360  -22.8840 C.3   137  ARG137      0.1694
    120  C         -0.7190  -13.2580  -22.1550 C.2   137  ARG137      0.2592
    121  O         -1.4010  -13.3650  -21.1390 O.2   137  ARG137     -0.2718
    122  CB         0.8850  -15.2140  -22.0820 C.3   137  ARG137      0.0321
    123  CG         2.1260  -14.3280  -21.8780 C.3   137  ARG137      0.0489
    124  CD         3.3070  -15.0230  -21.1580 C.3   137  ARG137      0.2205
    125  NE         4.4980  -14.1680  -21.2890 N.pl3 137  ARG137     -0.0865
    126  CZ         5.3460  -14.2070  -22.3180 C.cat 137  ARG137      0.5346
    127  NH1        5.2010  -15.1160  -23.2750 N.pl3 137  ARG137      0.1354
    128  NH2        6.3490  -13.3470  -22.3910 N.pl3 137  ARG137      0.1354
    129  N         -0.3160  -12.0720  -22.6630 N.am  138  ASN138     -0.1974
    130  CA        -0.6350  -10.7760  -22.0510 C.3   138  ASN138      0.1688
    131  C         -1.7390  -10.0120  -22.7630 C.2   138  ASN138      0.2292
    132  O         -2.0790   -8.9030  -22.3220 O.2   138  ASN138     -0.2864
    133  CB         0.6270   -9.9050  -21.8700 C.3   138  ASN138      0.1181
    134  CG         1.5220  -10.5020  -20.8070 C.2   138  ASN138      0.2629
    135  OD1        1.0470  -11.1280  -19.8460 O.2   138  ASN138     -0.2716
    136  ND2        2.8190  -10.2850  -20.9140 N.am  138  ASN138     -0.0877
    137  N         -5.5540  -10.0140  -23.1680 N.3   140  LEU140     -0.1245
    138  CA        -6.6840  -10.6390  -22.4880 C.3   140  LEU140      0.1561
    139  C         -7.9860  -10.3210  -23.1880 C.2   140  LEU140      0.2260
    140  O         -8.1990   -9.1840  -23.6240 O.2   140  LEU140     -0.2867
    141  CB        -6.7590  -10.1560  -21.0290 C.3   140  LEU140      0.0270
    142  CG        -5.4690  -10.2290  -20.2120 C.3   140  LEU140      0.0019
    143  CD1       -5.7140   -9.6720  -18.8420 C.3   140  LEU140      0.0001
    144  CD2       -4.9480  -11.6750  -20.1150 C.3   140  LEU140      0.0001
    145  N         -2.3010   -6.3160  -21.2820 N.3   150  SER150     -0.1202
    146  CA        -2.0740   -6.4870  -19.8700 C.3   150  SER150      0.2020
    147  C         -0.5980   -6.6930  -19.4840 C.2   150  SER150      0.2618
    148  O          0.2370   -6.6980  -20.3040 O.2   150  SER150     -0.2717
    149  CB        -2.8790   -7.6460  -19.2990 C.3   150  SER150      0.2103
    150  OG        -2.3510   -8.8530  -19.6280 O.3   150  SER150     -0.2182
    151  N         -0.3750   -6.8270  -18.1890 N.am  151  ASP151     -0.1973
    152  CA         0.9290   -7.0150  -17.5860 C.3   151  ASP151      0.1709
    153  C          2.0060   -5.9820  -17.9080 C.2   151  ASP151      0.2293
    154  O          2.8190   -6.2040  -18.7350 O.2   151  ASP151     -0.2864
    155  CB         1.4900   -8.4140  -17.6720 C.3   151  ASP151      0.1436
    156  CG         2.4530   -8.7290  -16.5210 C.2   151  ASP151      0.3671
    157  OD1        3.1110   -7.8290  -16.0600 O.co2 151  ASP151     -0.2456
    158  OD2        2.5460   -9.8670  -16.1070 O.co2 151  ASP151     -0.2456
@<TRIPOS>BOND
     1   105   104    1
     2   118   119    1
     3   114   113    2
     4   140   139    2
     5   113   112    1
     6   127   126    1
     7   139   138    1
     8   137   138    1
     9   104   103    1
    10   104   106    1
    11   119   120    1
    12   119   122    1
    13   131   132    2
    14   131   130    1
    15   129   120   am
    16   129   130    1
    17   103   100    1
    18   138   141    1
    19   110   109    2
    20   128   126    1
    21   126   125    2
    22   112   115    1
    23   112   111    1
    24   120   121    2
    25   122   123    1
    26   130   133    1
    27   123   124    1
    28   133   134    1
    29   115   116    1
    30   102   101    2
    31   109   111   am
    32   109   108    1
    33   125   124    1
    34   145   146    1
    35   111   117    1
    36   100   101    1
    37   100    99    1
    38   101   107   am
    39   141   142    1
    40   136   134   am
    41   134   135    2
    42   107   108    1
    43    99    92   am
    44   148   147    2
    45   142   144    1
    46   142   143    1
    47   116   117    1
    48    53    54    1
    49   146   147    1
    50   146   149    1
    51   150   149    1
    52   147   151   am
    53    89    86    1
    54    59    57    1
    55    92    93    2
    56    92    91    1
    57    54    57    1
    58    54    55    1
    59   154   153    2
    60    94    91    1
    61    94    95    1
    62    90    87   am
    63    90    91    1
    64    86    87    1
    65    86    85    1
    66    87    88    2
    67    57    58    1
    68   151   152    1
    69   153   152    1
    70    55    56    2
    71   155   152    1
    72   155   156    1
    73    95    96    1
    74    85    79   am
    75    80    79    2
    76    76    74   ar
    77   156   158   ar
    78   156   157   ar
    79    79    78    1
    80    96    97   ar
    81    96    98   ar
    82    74    75   ar
    83    74    73    1
    84    25    24    2
    85    13    12    2
    86    71    70    2
    87    72    73    1
    88    72    69    1
    89    78    77    1
    90    78    81    1
    91    70    77   am
    92    70    69    1
    93    82    83    1
    94    82    81    1
    95    84    83    1
    96    29    30    1
    97    29    28    1
    98    24    28   am
    99    24    23    1
   100    69    68    1
   101    12    18   am
   102    12    11    1
   103    30    31    2
   104    66    65    1
   105    66    67    1
   106    19    18    1
   107    19    20    1
   108    22    20   am
   109    22    23    1
   110     9     8    1
   111    27    26    1
   112    52    51    1
   113    68    62   am
   114    17    15    1
   115    14    11    1
   116    14    15    1
   117    11    10    1
   118    20    21    2
   119    23    26    1
   120    65    64    1
   121    64    61    1
   122    16    15    1
   123     8     7    1
   124    43    40    1
   125    51    50    1
   126    62    61    1
   127    62    63    2
   128    38    36    1
   129    37    36    1
   130    36    33    1
   131    61    60    1
   132     7     6    1
   133    40    39    1
   134    40    41    1
   135    50    49    1
   136    35    34    2
   137    33    32    1
   138    33    34    1
   139    41    42    2
   140     6     5    1
   141    49    48    1
   142    48    45    1
   143     4     3    2
   144     5     2    1
   145    45    44    1
   146    45    46    1
   147     3     2    1
   148     2     1    1
   149    46    47    2
