@<TRIPOS>MOLECULE
tmp/5cy7A00.pdb
 121 117 0 0 0
SMALL
GASTEIGER

@<TRIPOS>ATOM
      1  N         -2.5290  -16.7580    0.0910 N.3    44  GLY44      -0.1210
      2  CA        -1.0440  -16.7280    0.2640 C.3    44  GLY44       0.1956
      3  C         -0.3540  -17.9330   -0.3340 C.2    44  GLY44       0.2612
      4  O         -1.0270  -18.9480   -0.6230 O.2    44  GLY44      -0.2717
      5  N          0.9650  -17.8470   -0.5480 N.am   45  VAL45      -0.1965
      6  CA         1.7550  -19.0480   -0.8640 C.3    45  VAL45       0.1727
      7  C          2.6520  -19.4640    0.3180 C.2    45  VAL45       0.2616
      8  O          3.1740  -20.5880    0.3620 O.2    45  VAL45      -0.2715
      9  CB         2.6190  -18.8710   -2.1490 C.3    45  VAL45       0.0290
     10  CG1        1.7040  -18.6680   -3.3930 C.3    45  VAL45       0.0023
     11  CG2        3.6790  -17.7620   -1.9820 C.3    45  VAL45       0.0023
     12  N          2.8470  -18.5400    1.2650 N.am   46  GLY46      -0.1955
     13  CA         3.7190  -18.7580    2.4430 C.3    46  GLY46       0.1869
     14  C          3.0980  -17.8970    3.5190 C.2    46  GLY46       0.2309
     15  O          2.5580  -16.8340    3.2050 O.2    46  GLY46      -0.2863
     16  N         -2.3670  -15.7370   -7.3730 N.3    68  ARG68      -0.1231
     17  CA        -1.2890  -14.7330   -7.5170 C.3    68  ARG68       0.1694
     18  C         -0.1210  -15.0970   -8.4830 C.2    68  ARG68       0.2592
     19  O          0.3860  -14.2250   -9.1990 O.2    68  ARG68      -0.2718
     20  CB        -0.7490  -14.3390   -6.1290 C.3    68  ARG68       0.0321
     21  CG        -1.8250  -14.2470   -5.0540 C.3    68  ARG68       0.0489
     22  CD        -1.2210  -13.6300   -3.8250 C.3    68  ARG68       0.2205
     23  NE        -2.2240  -13.4490   -2.7990 N.pl3  68  ARG68      -0.0865
     24  CZ        -2.7500  -12.2760   -2.4610 C.cat  68  ARG68       0.5346
     25  NH1       -2.3450  -11.1660   -3.0610 N.pl3  68  ARG68       0.1354
     26  NH2       -3.6870  -12.2060   -1.5230 N.pl3  68  ARG68       0.1354
     27  N          0.2950  -16.3600   -8.5270 N.am   69  TYR69      -0.1976
     28  CA         1.4150  -16.7440   -9.3940 C.3    69  TYR69       0.1639
     29  C          0.9870  -17.8500  -10.3000 C.2    69  TYR69       0.2290
     30  O          1.4910  -18.9870  -10.1370 O.2    69  TYR69      -0.2864
     31  CB         2.6130  -17.2170   -8.5630 C.3    69  TYR69       0.0560
     32  CG         3.0390  -16.1680   -7.6000 C.ar   69  TYR69      -0.0198
     33  CD1        2.5380  -16.1350   -6.2710 C.ar   69  TYR69      -0.0009
     34  CD2        3.9220  -15.1540   -8.0230 C.ar   69  TYR69      -0.0009
     35  CE1        2.9250  -15.1220   -5.4020 C.ar   69  TYR69       0.0417
     36  CE2        4.3210  -14.1520   -7.1620 C.ar   69  TYR69       0.0417
     37  CZ         3.8240  -14.1320   -5.8670 C.ar   69  TYR69       0.1957
     38  OH         4.2650  -13.1030   -5.0820 O.3    69  TYR69      -0.2866
     39  N          8.2460  -10.9190   -5.7180 N.3    97  GLU97      -0.1231
     40  CA         7.6380  -11.3190   -4.4370 C.3    97  GLU97       0.1699
     41  C          6.6310  -10.2750   -4.0180 C.2    97  GLU97       0.2593
     42  O          6.7480   -9.1320   -4.4100 O.2    97  GLU97      -0.2718
     43  CB         8.7110  -11.4180   -3.3540 C.3    97  GLU97       0.0402
     44  CG         9.7160  -12.5240   -3.6570 C.3    97  GLU97       0.1161
     45  CD        10.8160  -12.6510   -2.6500 C.2    97  GLU97       0.3649
     46  OE1       10.6180  -12.3750   -1.4250 O.co2  97  GLU97      -0.2457
     47  OE2       11.9050  -13.0510   -3.0660 O.co2  97  GLU97      -0.2457
     48  N          5.6270  -10.6810   -3.2440 N.am   98  GLY98      -0.1942
     49  CA         4.7740   -9.7730   -2.4570 C.3    98  GLY98       0.2014
     50  C          4.6690  -10.3460   -1.0530 C.2    98  GLY98       0.2639
     51  O          5.4740  -11.1810   -0.6430 O.2    98  GLY98      -0.2714
     52  N          3.6800   -9.9270   -0.2860 N.am   99  CYS99      -0.1953
     53  CA         3.6590  -10.2790    1.1020 C.3    99  CYS99       0.1843
     54  C          2.2900   -9.8510    1.6050 C.2    99  CYS99       0.2625
     55  O          1.8920   -8.7130    1.4570 O.2    99  CYS99      -0.2714
     56  CB         4.8010   -9.5210    1.8100 C.3    99  CYS99       0.0997
     57  SG         4.9970   -9.8620    3.5770 S.3    99  CYS99      -0.0797
     58  N          1.5930  -10.7600    2.2600 N.am  100  LEU100     -0.1977
     59  CA         0.2620  -10.4580    2.8160 C.3   100  LEU100      0.1596
     60  C          0.2760   -9.3370    3.8720 C.2   100  LEU100      0.2287
     61  O         -0.7620   -8.7540    4.1400 O.2   100  LEU100     -0.2864
     62  CB        -0.3480  -11.7600    3.3950 C.3   100  LEU100      0.0297
     63  CG        -0.3500  -12.9170    2.3980 C.3   100  LEU100      0.0022
     64  CD1       -0.6570  -14.2600    3.0710 C.3   100  LEU100      0.0001
     65  CD2       -1.3880  -12.5400    1.3310 C.3   100  LEU100      0.0001
     66  N          1.2460   -4.5250   -3.1600 N.3   105  LEU105     -0.1245
     67  CA         2.5730   -4.1150   -3.6680 C.3   105  LEU105      0.1561
     68  C          3.3820   -5.3330   -4.0570 C.2   105  LEU105      0.2260
     69  O          3.0580   -6.4330   -3.6680 O.2   105  LEU105     -0.2867
     70  CB         3.3510   -3.2590   -2.6420 C.3   105  LEU105      0.0270
     71  CG         2.7710   -1.8400   -2.4970 C.3   105  LEU105      0.0019
     72  CD1        2.5950   -1.4490   -1.0630 C.3   105  LEU105      0.0001
     73  CD2        3.5540   -0.7380   -3.2180 C.3   105  LEU105      0.0001
     74  N         11.2440  -21.1710   -7.3000 N.3   134  PHE134     -0.1241
     75  CA        10.1620  -20.5410   -6.5220 C.3   134  PHE134      0.1605
     76  C         10.0000  -21.1670   -5.0950 C.2   134  PHE134      0.2264
     77  O          9.8590  -20.4430   -4.0960 O.2   134  PHE134     -0.2867
     78  CB         8.8590  -20.5610   -7.3140 C.3   134  PHE134      0.0534
     79  CG         7.7810  -19.6830   -6.7160 C.ar  134  PHE134     -0.0203
     80  CD1        7.8950  -18.3020   -6.7400 C.ar  134  PHE134     -0.0042
     81  CD2        6.6510  -20.2450   -6.1230 C.ar  134  PHE134     -0.0042
     82  CE1        6.9110  -17.5000   -6.1440 C.ar  134  PHE134     -0.0003
     83  CE2        5.6840  -19.4550   -5.5390 C.ar  134  PHE134     -0.0003
     84  CZ         5.8050  -18.1010   -5.5450 C.ar  134  PHE134     -0.0000
     85  N         12.6020  -19.7540   -3.0120 N.3   137  ARG137     -0.1231
     86  CA        12.3240  -18.3280   -2.7790 C.3   137  ARG137      0.1694
     87  C         11.2890  -18.1750   -1.6570 C.2   137  ARG137      0.2591
     88  O         11.3860  -17.3050   -0.7580 O.2   137  ARG137     -0.2718
     89  CB        11.7910  -17.6810   -4.1070 C.3   137  ARG137      0.0321
     90  CG        11.0610  -16.3390   -3.9570 C.3   137  ARG137      0.0489
     91  CD        10.6650  -15.7250   -5.3060 C.3   137  ARG137      0.2205
     92  NE        11.8050  -15.7850   -6.2260 N.pl3 137  ARG137     -0.0865
     93  CZ        12.7800  -14.8700   -6.3350 C.cat 137  ARG137      0.5346
     94  NH1       12.7550  -13.7190   -5.6370 N.pl3 137  ARG137      0.1354
     95  NH2       13.8060  -15.1400   -7.1800 N.pl3 137  ARG137      0.1354
     96  N         10.2310  -18.9950   -1.7540 N.am  138  VAL138     -0.1980
     97  CA         9.1800  -18.9270   -0.7240 C.3   138  VAL138      0.1595
     98  C          9.7690  -19.1880    0.6610 C.2   138  VAL138      0.2287
     99  O          9.5670  -18.3770    1.5910 O.2   138  VAL138     -0.2864
    100  CB         8.0030  -19.8550   -1.0310 C.3   138  VAL138      0.0276
    101  CG1        7.1030  -19.8920    0.1860 C.3   138  VAL138      0.0022
    102  CG2        7.2460  -19.3660   -2.2810 C.3   138  VAL138      0.0022
    103  N         12.0330  -16.2980    1.8500 N.3   141  HIS141     -0.1226
    104  CA        11.1850  -15.1490    2.1840 C.3   141  HIS141      0.1752
    105  C         10.4880  -15.3360    3.5500 C.2   141  HIS141      0.2595
    106  O         10.3780  -14.3720    4.3310 O.2   141  HIS141     -0.2718
    107  CB        10.1330  -15.0340    1.0660 C.3   141  HIS141      0.0759
    108  CG         9.0660  -14.0260    1.3190 C.ar  141  HIS141      0.0818
    109  ND1        8.8960  -12.9030    0.5350 N.ar  141  HIS141     -0.2268
    110  CD2        8.0840  -13.9890    2.2460 C.ar  141  HIS141      0.1154
    111  CE1        7.9210  -12.1680    1.0360 C.ar  141  HIS141      0.1986
    112  NE2        7.3870  -12.8230    2.0490 N.ar  141  HIS141     -0.2212
    113  N          9.9750  -16.5410    3.8080 N.am  142  GLU142     -0.1979
    114  CA         9.2740  -16.7770    5.0810 C.3   142  GLU142      0.1602
    115  C         10.3050  -16.8290    6.1920 C.2   142  GLU142      0.2287
    116  O         10.0530  -16.3210    7.2420 O.2   142  GLU142     -0.2864
    117  CB         8.4360  -18.0590    5.0660 C.3   142  GLU142      0.0415
    118  CG         7.2510  -18.0870    4.1210 C.3   142  GLU142      0.1163
    119  CD         6.4320  -16.7870    4.1470 C.2   142  GLU142      0.3649
    120  OE1        6.2260  -16.1950    5.2370 O.co2 142  GLU142     -0.2457
    121  OE2        6.0110  -16.3010    3.0630 O.co2 142  GLU142     -0.2457
@<TRIPOS>BOND
     1    29    30    2
     2    29    28    1
     3    28    31    1
     4    28    27    1
     5    19    18    2
     6    31    32    1
     7    27    18   am
     8    18    17    1
     9    34    32   ar
    10    34    36   ar
    11    32    33   ar
    12    17    16    1
    13    17    20    1
    14    78    79    1
    15    78    75    1
    16    74    75    1
    17    95    93    1
    18    36    37   ar
    19    80    79   ar
    20    80    82   ar
    21    79    81   ar
    22    75    76    1
    23    93    92    2
    24    93    94    1
    25    33    35   ar
    26    92    91    1
    27    82    84   ar
    28    20    21    1
    29    81    83   ar
    30    37    35   ar
    31    37    38    1
    32    39    40    1
    33    84    83   ar
    34    91    90    1
    35    76    77    2
    36    21    22    1
    37    40    41    1
    38    40    43    1
    39    42    41    2
    40    89    90    1
    41    89    86    1
    42    68    69    2
    43    68    67    1
    44    41    48   am
    45    22    23    1
    46    67    66    1
    47    67    70    1
    48    44    43    1
    49    44    45    1
    50    10     9    1
    51    48    49    1
    52    73    71    1
    53    47    45   ar
    54    25    24    1
    55    85    86    1
    56    23    24    2
    57    86    87    1
    58    45    46   ar
    59    70    71    1
    60    71    72    1
    61    24    26    1
    62    49    50    1
    63   102   100    1
    64     9    11    1
    65     9     6    1
    66    96    87   am
    67    96    97    1
    68    87    88    2
    69    50    51    2
    70    50    52   am
    71   100    97    1
    72   100   101    1
    73     6     5    1
    74     6     7    1
    75    97    98    1
    76     4     3    2
    77     5     3   am
    78     3     2    1
    79    52    53    1
    80     1     2    1
    81     7     8    2
    82     7    12   am
    83   109   111   ar
    84   109   108   ar
    85    98    99    2
    86   111   112   ar
    87   107   108    1
    88   107   104    1
    89    53    54    1
    90    53    56    1
    91    12    13    1
    92   108   110   ar
    93    65    63    1
    94    55    54    2
    95    54    58   am
    96    56    57    1
    97   103   104    1
    98   112   110   ar
    99   104   105    1
   100    58    59    1
   101    63    64    1
   102    63    62    1
   103    13    14    1
   104    59    62    1
   105    59    60    1
   106   121   119   ar
   107    15    14    2
   108   105   113   am
   109   105   106    2
   110   113   114    1
   111    60    61    2
   112   118   119    1
   113   118   117    1
   114   119   120   ar
   115   117   114    1
   116   114   115    1
   117   115   116    2
