@<TRIPOS>MOLECULE
tmp/5cy8A00.pdb
 136 134 0 0 0
SMALL
GASTEIGER

@<TRIPOS>ATOM
      1  N         -2.5070  -16.6380    0.1910 N.3    44  GLY44      -0.1210
      2  CA        -1.0170  -16.6450    0.3630 C.3    44  GLY44       0.1956
      3  C         -0.3910  -17.8610   -0.2620 C.2    44  GLY44       0.2612
      4  O         -1.0750  -18.8730   -0.4010 O.2    44  GLY44      -0.2717
      5  N          0.8870  -17.7950   -0.6470 N.am   45  VAL45      -0.1965
      6  CA         1.6520  -19.0150   -0.8890 C.3    45  VAL45       0.1727
      7  C          2.5630  -19.4340    0.3080 C.2    45  VAL45       0.2616
      8  O          3.0320  -20.5590    0.3840 O.2    45  VAL45      -0.2715
      9  CB         2.4730  -18.9230   -2.1970 C.3    45  VAL45       0.0290
     10  CG1        1.5300  -18.5990   -3.3700 C.3    45  VAL45       0.0023
     11  CG2        3.5480  -17.8540   -2.0640 C.3    45  VAL45       0.0023
     12  N          2.8040  -18.5280    1.2390 N.am   46  GLY46      -0.1955
     13  CA         3.5510  -18.8470    2.4840 C.3    46  GLY46       0.1869
     14  C          2.9750  -17.9530    3.5450 C.2    46  GLY46       0.2309
     15  O          2.4150  -16.8990    3.2160 O.2    46  GLY46      -0.2863
     16  N          3.4840  -13.0830   11.2140 N.3    51  GLN51      -0.1245
     17  CA         2.5130  -12.2850   10.4610 C.3    51  GLN51       0.1566
     18  C          1.1360  -12.3610   11.0900 C.2    51  GLN51       0.2260
     19  O          0.2360  -11.5230   10.7250 O.2    51  GLN51      -0.2867
     20  CB         2.4220  -12.6760    8.9850 C.3    51  GLN51       0.0367
     21  CG         3.7690  -12.6720    8.2630 C.3    51  GLN51       0.0905
     22  CD         3.5400  -13.0230    6.8410 C.2    51  GLN51       0.2608
     23  OE1        3.8630  -14.1350    6.4390 O.2    51  GLN51      -0.2717
     24  NE2        2.8710  -12.0890    6.0550 N.am   51  GLN51      -0.0878
     25  N         -2.3200  -15.4990   -7.4220 N.3    68  ARG68      -0.1231
     26  CA        -1.2510  -14.4920   -7.6220 C.3    68  ARG68       0.1694
     27  C         -0.0150  -14.9220   -8.4460 C.2    68  ARG68       0.2592
     28  O          0.5560  -14.1050   -9.1630 O.2    68  ARG68      -0.2718
     29  CB        -0.8030  -13.9000   -6.2820 C.3    68  ARG68       0.0321
     30  CG        -1.9180  -13.7530   -5.2580 C.3    68  ARG68       0.0489
     31  CD        -1.2940  -13.5570   -3.8980 C.3    68  ARG68       0.2205
     32  NE        -2.2780  -13.3470   -2.8510 N.pl3  68  ARG68      -0.0865
     33  CZ        -2.7350  -12.1540   -2.4830 C.cat  68  ARG68       0.5346
     34  NH1       -2.3090  -11.0540   -3.0920 N.pl3  68  ARG68       0.1354
     35  NH2       -3.6220  -12.0520   -1.5020 N.pl3  68  ARG68       0.1354
     36  N          0.4160  -16.1770   -8.3460 N.am   69  TYR69      -0.1976
     37  CA         1.5800  -16.6450   -9.1410 C.3    69  TYR69       0.1639
     38  C          1.1430  -17.6820  -10.1400 C.2    69  TYR69       0.2290
     39  O          1.6480  -18.8250  -10.1030 O.2    69  TYR69      -0.2864
     40  CB         2.7410  -17.1430   -8.2480 C.3    69  TYR69       0.0560
     41  CG         3.1920  -16.0110   -7.3930 C.ar   69  TYR69      -0.0198
     42  CD1        2.5520  -15.7380   -6.1790 C.ar   69  TYR69      -0.0009
     43  CD2        4.2100  -15.1370   -7.8390 C.ar   69  TYR69      -0.0009
     44  CE1        2.9220  -14.6530   -5.4120 C.ar   69  TYR69       0.0417
     45  CE2        4.5990  -14.0460   -7.0790 C.ar   69  TYR69       0.0417
     46  CZ         3.9490  -13.7990   -5.8730 C.ar   69  TYR69       0.1957
     47  OH         4.3170  -12.7050   -5.1250 O.3    69  TYR69      -0.2866
     48  N          9.6460  -11.8870   -8.7480 N.3    96  TRP96      -0.1227
     49  CA         8.5950  -11.1060   -8.1030 C.3    96  TRP96       0.1737
     50  C          8.1630  -11.7270   -6.7630 C.2    96  TRP96       0.2595
     51  O          7.8970  -12.9310   -6.6840 O.2    96  TRP96      -0.2718
     52  CB         7.3460  -11.0660   -9.0240 C.3    96  TRP96       0.0564
     53  CG         7.5620  -10.2110  -10.2700 C.ar   96  TRP96       0.0003
     54  CD1        7.7650  -10.6590  -11.5740 C.ar   96  TRP96       0.0946
     55  CD2        7.6510   -8.7640  -10.3250 C.ar   96  TRP96       0.0152
     56  NE1        7.9430   -9.5870  -12.4030 N.ar   96  TRP96      -0.2442
     57  CE2        7.8800   -8.4170  -11.6870 C.ar   96  TRP96       0.0810
     58  CE3        7.5280   -7.7330   -9.3640 C.ar   96  TRP96       0.0012
     59  CZ2        8.0100   -7.0860  -12.1080 C.ar   96  TRP96       0.0191
     60  CZ3        7.6500   -6.4350   -9.7800 C.ar   96  TRP96       0.0001
     61  CH2        7.8860   -6.1120  -11.1410 C.ar   96  TRP96       0.0015
     62  N          8.0480  -10.8780   -5.7520 N.am   97  GLU97      -0.1965
     63  CA         7.4800  -11.2470   -4.4770 C.3    97  GLU97       0.1733
     64  C          6.4600  -10.1930   -4.0980 C.2    97  GLU97       0.2617
     65  O          6.6430   -8.9960   -4.4130 O.2    97  GLU97      -0.2715
     66  CB         8.5840  -11.3460   -3.3890 C.3    97  GLU97       0.0429
     67  CG         9.6020  -12.4510   -3.7290 C.3    97  GLU97       0.1163
     68  CD        10.6400  -12.6790   -2.6510 C.2    97  GLU97       0.3649
     69  OE1       10.4130  -12.4090   -1.4170 O.co2  97  GLU97      -0.2457
     70  OE2       11.7290  -13.1170   -3.0300 O.co2  97  GLU97      -0.2457
     71  N          5.3890  -10.6520   -3.4370 N.am   98  GLY98      -0.1940
     72  CA         4.5390   -9.8000   -2.5840 C.3    98  GLY98       0.2014
     73  C          4.4390  -10.4120   -1.2050 C.2    98  GLY98       0.2639
     74  O          5.1430  -11.3650   -0.8760 O.2    98  GLY98      -0.2714
     75  N          3.5570   -9.8740   -0.3710 N.am   99  CYS99      -0.1953
     76  CA         3.5240  -10.2690    1.0110 C.3    99  CYS99       0.1843
     77  C          2.1660   -9.8670    1.5390 C.2    99  CYS99       0.2625
     78  O          1.7890   -8.7110    1.4200 O.2    99  CYS99      -0.2714
     79  CB         4.6500   -9.5730    1.8270 C.3    99  CYS99       0.0997
     80  SG         4.8670  -10.2800    3.5140 S.3    99  CYS99      -0.0797
     81  N          1.5110  -10.7640    2.2870 N.am  100  LEU100     -0.1977
     82  CA         0.1910  -10.4350    2.8990 C.3   100  LEU100      0.1596
     83  C          0.2110   -9.3260    3.9420 C.2   100  LEU100      0.2287
     84  O         -0.8290   -8.7870    4.2090 O.2   100  LEU100     -0.2864
     85  CB        -0.5270  -11.6730    3.4630 C.3   100  LEU100      0.0297
     86  CG        -0.4300  -12.8690    2.5630 C.3   100  LEU100      0.0022
     87  CD1       -0.8090  -14.1380    3.3430 C.3   100  LEU100      0.0001
     88  CD2       -1.3330  -12.5060    1.3880 C.3   100  LEU100      0.0001
     89  N         11.2180  -21.1590   -7.2060 N.3   134  PHE134     -0.1241
     90  CA        10.1090  -20.5540   -6.4530 C.3   134  PHE134      0.1605
     91  C          9.9230  -21.1620   -5.0170 C.2   134  PHE134      0.2264
     92  O          9.7460  -20.4510   -4.0350 O.2   134  PHE134     -0.2867
     93  CB         8.7920  -20.6160   -7.2680 C.3   134  PHE134      0.0534
     94  CG         7.7090  -19.7140   -6.6920 C.ar  134  PHE134     -0.0203
     95  CD1        7.8460  -18.3470   -6.7450 C.ar  134  PHE134     -0.0042
     96  CD2        6.5680  -20.2490   -6.0800 C.ar  134  PHE134     -0.0042
     97  CE1        6.8610  -17.5060   -6.1840 C.ar  134  PHE134     -0.0003
     98  CE2        5.6060  -19.4270   -5.5200 C.ar  134  PHE134     -0.0003
     99  CZ         5.7560  -18.0560   -5.5580 C.ar  134  PHE134     -0.0000
    100  N         12.5180  -19.7150   -2.9270 N.3   137  ARG137     -0.1231
    101  CA        12.2540  -18.2930   -2.7190 C.3   137  ARG137      0.1694
    102  C         11.1540  -18.1310   -1.6310 C.2   137  ARG137      0.2591
    103  O         11.2340  -17.2880   -0.7330 O.2   137  ARG137     -0.2718
    104  CB        11.8070  -17.6720   -4.0790 C.3   137  ARG137      0.0321
    105  CG        10.9980  -16.3740   -3.9510 C.3   137  ARG137      0.0489
    106  CD        10.6970  -15.7390   -5.2920 C.3   137  ARG137      0.2205
    107  NE        11.8220  -15.8110   -6.2170 N.pl3 137  ARG137     -0.0865
    108  CZ        12.7650  -14.8710   -6.3130 C.cat 137  ARG137      0.5346
    109  NH1       12.6840  -13.7870   -5.5820 N.pl3 137  ARG137      0.1354
    110  NH2       13.7880  -15.0250   -7.1520 N.pl3 137  ARG137      0.1354
    111  N         10.1100  -18.9580   -1.7070 N.am  138  VAL138     -0.1980
    112  CA         9.0870  -18.9480   -0.6290 C.3   138  VAL138      0.1595
    113  C          9.6870  -19.1710    0.7510 C.2   138  VAL138      0.2287
    114  O          9.4460  -18.3640    1.7020 O.2   138  VAL138     -0.2864
    115  CB         7.9480  -19.9720   -0.8910 C.3   138  VAL138      0.0276
    116  CG1        6.9250  -19.8060    0.2280 C.3   138  VAL138      0.0022
    117  CG2        7.2880  -19.6530   -2.2040 C.3   138  VAL138      0.0022
    118  N         11.9460  -16.2780    1.8890 N.3   141  HIS141     -0.1226
    119  CA        11.0690  -15.1580    2.2510 C.3   141  HIS141      0.1752
    120  C         10.3520  -15.3570    3.6110 C.2   141  HIS141      0.2595
    121  O         10.2570  -14.4200    4.3890 O.2   141  HIS141     -0.2718
    122  CB        10.0300  -15.0430    1.1100 C.3   141  HIS141      0.0759
    123  CG         8.9430  -14.0540    1.3480 C.ar  141  HIS141      0.0818
    124  ND1        8.7580  -12.9530    0.5370 N.ar  141  HIS141     -0.2268
    125  CD2        7.9260  -14.0360    2.2450 C.ar  141  HIS141      0.1154
    126  CE1        7.7480  -12.2400    0.9990 C.ar  141  HIS141      0.1986
    127  NE2        7.2000  -12.8950    2.0040 N.ar  141  HIS141     -0.2212
    128  N          9.7440  -16.5320    3.8450 N.am  142  GLU142     -0.1979
    129  CA         9.0320  -16.7550    5.1160 C.3   142  GLU142      0.1602
    130  C         10.0620  -16.8320    6.2140 C.2   142  GLU142      0.2287
    131  O          9.8340  -16.3030    7.2930 O.2   142  GLU142     -0.2864
    132  CB         8.1420  -17.9960    5.0950 C.3   142  GLU142      0.0415
    133  CG         7.0830  -18.0450    3.9800 C.3   142  GLU142      0.1163
    134  CD         6.2250  -16.7620    3.8740 C.2   142  GLU142      0.3649
    135  OE1        6.1070  -16.0190    4.8650 O.co2 142  GLU142     -0.2457
    136  OE2        5.6430  -16.4400    2.8190 O.co2 142  GLU142     -0.2457
@<TRIPOS>BOND
     1    56    57   ar
     2    56    54   ar
     3    59    57   ar
     4    59    61   ar
     5    57    55   ar
     6    54    53   ar
     7    61    60   ar
     8    55    53   ar
     9    55    58   ar
    10    53    52    1
    11    38    39    2
    12    38    37    1
    13    60    58   ar
    14    28    27    2
    15    37    36    1
    16    37    40    1
    17    52    49    1
    18    48    49    1
    19    27    36   am
    20    27    26    1
    21    40    41    1
    22    49    50    1
    23    43    41   ar
    24    43    45   ar
    25    26    25    1
    26    26    29    1
    27    41    42   ar
    28    93    94    1
    29    93    90    1
    30    89    90    1
    31   110   108    1
    32    45    46   ar
    33    50    51    2
    34    50    62   am
    35    95    94   ar
    36    95    97   ar
    37    94    96   ar
    38    90    91    1
    39   108   107    2
    40   108   109    1
    41    29    30    1
    42   107   106    1
    43    97    99   ar
    44    42    44   ar
    45    96    98   ar
    46    46    44   ar
    47    46    47    1
    48    62    63    1
    49    99    98   ar
    50   106   105    1
    51    30    31    1
    52    91    92    2
    53    63    64    1
    54    63    66    1
    55    65    64    2
    56    64    71   am
    57   104   105    1
    58   104   101    1
    59    31    32    1
    60    67    66    1
    61    67    68    1
    62    71    72    1
    63    10     9    1
    64    34    33    1
    65    70    68   ar
    66   100   101    1
    67    32    33    2
    68   101   102    1
    69    68    69   ar
    70    72    73    1
    71    33    35    1
    72   117   115    1
    73     9    11    1
    74     9     6    1
    75   111   102   am
    76   111   112    1
    77   102   103    2
    78    73    74    2
    79    73    75   am
    80   115   112    1
    81   115   116    1
    82     6     5    1
    83     6     7    1
    84     5     3   am
    85   112   113    1
    86     4     3    2
    87    75    76    1
    88     3     2    1
    89     1     2    1
    90     7     8    2
    91     7    12   am
    92   124   126   ar
    93   124   123   ar
    94   113   114    2
    95   126   127   ar
    96    76    77    1
    97    76    79    1
    98   122   123    1
    99   122   119    1
   100    12    13    1
   101   123   125   ar
   102    88    86    1
   103    78    77    2
   104    77    81   am
   105    79    80    1
   106   118   119    1
   107   127   125   ar
   108   119   120    1
   109    81    82    1
   110    13    14    1
   111    86    87    1
   112    86    85    1
   113   136   134   ar
   114    82    85    1
   115    82    83    1
   116    15    14    2
   117   120   128   am
   118   120   121    2
   119   128   129    1
   120   134   133    1
   121   134   135   ar
   122    83    84    2
   123   133   132    1
   124   132   129    1
   125   129   130    1
   126    24    22   am
   127   130   131    2
   128    23    22    2
   129    22    21    1
   130    21    20    1
   131    20    17    1
   132    17    18    1
   133    17    16    1
   134    19    18    2
