@<TRIPOS>MOLECULE
tmp/5cy9A00.pdb
 125 121 0 0 0
SMALL
GASTEIGER

@<TRIPOS>ATOM
      1  N        -11.9710   15.7070   -9.4080 N.3    45  TRP45      -0.1228
      2  CA       -10.5680   15.3180   -9.6440 C.3    45  TRP45       0.1722
      3  C         -9.6310   15.5610   -8.4290 C.2    45  TRP45       0.2437
      4  O         -8.8240   14.6880   -8.1270 O.2    45  TRP45      -0.2733
      5  CB       -10.0290   15.9370  -10.9530 C.3    45  TRP45       0.0563
      6  CG       -10.0260   17.4370  -11.0300 C.ar   45  TRP45       0.0003
      7  CD1      -11.0660   18.2550  -11.4050 C.ar   45  TRP45       0.0946
      8  CD2       -8.9260   18.2970  -10.7380 C.ar   45  TRP45       0.0152
      9  NE1      -10.6770   19.5690  -11.3530 N.ar   45  TRP45      -0.2442
     10  CE2       -9.3690   19.6410  -10.9480 C.ar   45  TRP45       0.0810
     11  CE3       -7.6000   18.0780  -10.3680 C.ar   45  TRP45       0.0012
     12  CZ2       -8.5180   20.7340  -10.7760 C.ar   45  TRP45       0.0191
     13  CZ3       -6.7660   19.1560  -10.1700 C.ar   45  TRP45       0.0001
     14  CH2       -7.2170   20.4730  -10.3850 C.ar   45  TRP45       0.0015
     15  N         -9.7750   16.6760   -7.6570 N.am   46  PRO46      -0.2718
     16  CA        -8.8490   16.7730   -6.5170 C.3    46  PRO46       0.1535
     17  C         -9.1250   15.8040   -5.3690 C.2    46  PRO46       0.2598
     18  O         -8.3160   15.6990   -4.4180 O.2    46  PRO46      -0.2715
     19  CB        -9.0440   18.2170   -5.9950 C.3    46  PRO46       0.0310
     20  CG        -9.6780   18.9480   -7.1140 C.3    46  PRO46       0.0237
     21  CD       -10.5610   17.9350   -7.7710 C.3    46  PRO46       0.0939
     22  N        -10.2820   15.1600   -5.4190 N.am   47  PHE47      -0.1974
     23  CA       -10.8070   14.2750   -4.3400 C.3    47  PHE47       0.1639
     24  C        -10.7320   12.8050   -4.7010 C.2    47  PHE47       0.2290
     25  O        -11.1420   11.9560   -3.9060 O.2    47  PHE47      -0.2864
     26  CB       -12.2770   14.6610   -4.0590 C.3    47  PHE47       0.0560
     27  CG       -12.4730   16.1110   -3.6930 C.ar   47  PHE47      -0.0200
     28  CD1      -12.3450   16.5240   -2.3660 C.ar   47  PHE47      -0.0042
     29  CD2      -12.7100   17.0860   -4.6810 C.ar   47  PHE47      -0.0042
     30  CE1      -12.5000   17.8670   -2.0180 C.ar   47  PHE47      -0.0003
     31  CE2      -12.8850   18.4240   -4.3280 C.ar   47  PHE47      -0.0003
     32  CZ       -12.7520   18.8140   -3.0070 C.ar   47  PHE47      -0.0000
     33  N         -4.8660   13.3930   -0.6690 N.3    51  VAL51      -0.1245
     34  CA        -4.1850   14.6500   -0.9720 C.3    51  VAL51       0.1561
     35  C         -2.6890   14.5120   -0.6740 C.2    51  VAL51       0.2260
     36  O         -2.2950   14.0130    0.3620 O.2    51  VAL51      -0.2867
     37  CB        -4.8190   15.8490   -0.2250 C.3    51  VAL51       0.0252
     38  CG1       -4.6870   15.7080    1.2750 C.3    51  VAL51       0.0019
     39  CG2       -4.2600   17.1710   -0.7490 C.3    51  VAL51       0.0019
     40  N          1.9550   19.4440   -2.5230 N.3    56  LEU56      -0.1245
     41  CA         1.1400   20.6650   -2.6840 C.3    56  LEU56       0.1561
     42  C          1.5130   21.7810   -1.6980 C.2    56  LEU56       0.2260
     43  O          0.9240   22.8640   -1.7550 O.2    56  LEU56      -0.2867
     44  CB        -0.3570   20.3270   -2.5490 C.3    56  LEU56       0.0270
     45  CG        -0.9450   19.4760   -3.6750 C.3    56  LEU56       0.0019
     46  CD1       -2.2900   18.9100   -3.2200 C.3    56  LEU56       0.0001
     47  CD2       -1.0860   20.2820   -4.9470 C.3    56  LEU56       0.0001
     48  N          0.9190   22.1580    1.5950 N.3    58  LEU58      -0.1245
     49  CA        -0.1890   22.5660    2.4560 C.3    58  LEU58       0.1561
     50  C          0.3340   22.5730    3.8830 C.2    58  LEU58       0.2260
     51  O          0.4060   21.5230    4.5360 O.2    58  LEU58      -0.2867
     52  CB        -1.3770   21.5950    2.2960 C.3    58  LEU58       0.0270
     53  CG        -1.8620   21.4080    0.8590 C.3    58  LEU58       0.0019
     54  CD1       -3.0530   20.4670    0.8670 C.3    58  LEU58       0.0001
     55  CD2       -2.2470   22.7310    0.2110 C.3    58  LEU58       0.0001
     56  N         -0.9500   20.5240    7.3520 N.3    61  TYR61      -0.1241
     57  CA        -2.1370   19.7440    6.9770 C.3    61  TYR61       0.1605
     58  C         -2.3450   18.5720    7.9280 C.2    61  TYR61       0.2264
     59  O         -3.4410   18.3740    8.4210 O.2    61  TYR61      -0.2867
     60  CB        -2.0580   19.2500    5.5300 C.3    61  TYR61       0.0534
     61  CG        -3.3790   18.6620    5.0610 C.ar   61  TYR61      -0.0201
     62  CD1       -4.3850   19.4650    4.5200 C.ar   61  TYR61      -0.0009
     63  CD2       -3.6120   17.3060    5.1770 C.ar   61  TYR61      -0.0009
     64  CE1       -5.5910   18.9280    4.1130 C.ar   61  TYR61       0.0417
     65  CE2       -4.8270   16.7610    4.7900 C.ar   61  TYR61       0.0417
     66  CZ        -5.8070   17.5630    4.2490 C.ar   61  TYR61       0.1957
     67  OH        -7.0050   17.0000    3.8830 O.3    61  TYR61      -0.2866
     68  N        -14.1580   13.4030    4.5240 N.3    96  MET96      -0.1245
     69  CA       -13.5490   14.0570    3.3830 C.3    96  MET96       0.1570
     70  C        -14.0050   15.5180    3.2510 C.2    96  MET96       0.2261
     71  O        -13.1880   16.4150    3.1000 O.2    96  MET96      -0.2867
     72  CB       -13.8300   13.3020    2.0690 C.3    96  MET96       0.0387
     73  CG       -13.3320   14.0240    0.8320 C.3    96  MET96       0.0595
     74  SD       -13.7550   13.0530   -0.6180 S.3    96  MET96      -0.1393
     75  CE       -15.4420   13.6210   -0.9350 C.3    96  MET96       0.0692
     76  N        -11.8260   19.2530    4.3000 N.3   100  CYS100     -0.1235
     77  CA       -11.6510   20.3290    3.3280 C.3   100  CYS100      0.1677
     78  C        -12.1530   21.6610    3.9190 C.2   100  CYS100      0.2270
     79  O        -11.4580   22.6570    3.8440 O.2   100  CYS100     -0.2867
     80  CB       -12.3870   19.9740    2.0300 C.3   100  CYS100      0.0956
     81  SG       -12.0720   21.1610    0.7290 S.3   100  CYS100     -0.0801
     82  N         -9.7240   22.8190    6.9680 N.3   103  TYR103     -0.1227
     83  CA        -8.3700   23.2270    6.6180 C.3   103  TYR103      0.1736
     84  C         -8.3470   24.5310    5.8240 C.2   103  TYR103      0.2595
     85  O         -7.4330   25.3500    6.0020 O.2   103  TYR103     -0.2718
     86  CB        -7.6760   22.1220    5.8080 C.3   103  TYR103      0.0548
     87  CG        -6.2610   22.4930    5.5070 C.ar  103  TYR103     -0.0200
     88  CD1       -5.3300   22.5480    6.5190 C.ar  103  TYR103     -0.0009
     89  CD2       -5.8920   22.9280    4.2420 C.ar  103  TYR103     -0.0009
     90  CE1       -4.0180   22.9150    6.2650 C.ar  103  TYR103      0.0417
     91  CE2       -4.5930   23.3130    3.9690 C.ar  103  TYR103      0.0417
     92  CZ        -3.6620   23.3160    4.9960 C.ar  103  TYR103      0.1957
     93  OH        -2.3800   23.7190    4.7500 O.3   103  TYR103     -0.2866
     94  N         -9.3410   24.7440    4.9760 N.am  104  ASN104     -0.1974
     95  CA        -9.3140   25.8360    3.9920 C.3   104  ASN104      0.1688
     96  C        -10.2110   27.0070    4.3420 C.2   104  ASN104      0.2292
     97  O        -11.1690   26.8650    5.0830 O.2   104  ASN104     -0.2864
     98  CB        -9.6990   25.2810    2.6330 C.3   104  ASN104      0.1181
     99  CG        -8.7130   24.2380    2.1550 C.2   104  ASN104      0.2629
    100  OD1       -7.5900   24.5840    1.7860 O.2   104  ASN104     -0.2716
    101  ND2       -9.1010   22.9500    2.1850 N.am  104  ASN104     -0.0877
    102  N        -11.3770   27.9700   -3.8020 N.3   109  ASP109     -0.1225
    103  CA       -11.8820   27.1300   -4.8790 C.3   109  ASP109      0.1805
    104  C        -12.0930   25.6790   -4.4310 C.2   109  ASP109      0.2597
    105  O        -13.0810   25.0720   -4.8090 O.2   109  ASP109     -0.2718
    106  CB       -10.9220   27.1580   -6.0650 C.3   109  ASP109      0.1424
    107  CG       -10.8490   28.5250   -6.7190 C.2   109  ASP109      0.3668
    108  OD1      -11.8130   29.3190   -6.5980 O.co2 109  ASP109     -0.2456
    109  OD2       -9.8110   28.7960   -7.3530 O.co2 109  ASP109     -0.2456
    110  N        -11.1700   25.1360   -3.6400 N.am  110  ILE110     -0.1980
    111  CA       -11.2730   23.7190   -3.2540 C.3   110  ILE110      0.1595
    112  C        -12.5090   23.5150   -2.3830 C.2   110  ILE110      0.2287
    113  O        -13.1370   22.4780   -2.4230 O.2   110  ILE110     -0.2864
    114  CB       -10.0110   23.1990   -2.5760 C.3   110  ILE110      0.0276
    115  CG1      -10.0270   21.6790   -2.4480 C.3   110  ILE110      0.0022
    116  CG2       -9.8340   23.7900   -1.1860 C.3   110  ILE110      0.0022
    117  CD1       -9.6850   20.9680   -3.7390 C.3   110  ILE110      0.0001
    118  N        -15.5290   23.4750   -4.6110 N.3   113  MET113     -0.1245
    119  CA       -15.6090   22.1910   -5.2730 C.3   113  MET113      0.1570
    120  C        -16.1990   21.1400   -4.3360 C.2   113  MET113      0.2261
    121  O        -17.0960   20.3960   -4.7010 O.2   113  MET113     -0.2867
    122  CB       -14.2320   21.7770   -5.7330 C.3   113  MET113      0.0387
    123  CG       -13.7240   22.6690   -6.8460 C.3   113  MET113      0.0595
    124  SD       -12.0200   22.4580   -7.3580 S.3   113  MET113     -0.1393
    125  CE       -12.1760   21.0990   -8.4850 C.3   113  MET113      0.0692
@<TRIPOS>BOND
     1     7     9   ar
     2     7     6   ar
     3     9    10   ar
     4     6     5    1
     5     6     8   ar
     6     5     2    1
     7    10    12   ar
     8    10     8   ar
     9    12    14   ar
    10     8    11   ar
    11    14    13   ar
    12    11    13   ar
    13     2     1    1
    14     2     3    1
    15   125   124    1
    16     3     4    2
    17     3    15   am
    18    21    15    1
    19    21    20    1
    20    15    16    1
    21   124   123    1
    22   109   107   ar
    23    20    19    1
    24   123   122    1
    25   107   108   ar
    26   107   106    1
    27    16    19    1
    28    16    17    1
    29   106   103    1
    30   122   119    1
    31    22    17   am
    32    22    23    1
    33    17    18    2
    34   119   118    1
    35   119   120    1
    36    47    45    1
    37   103   104    1
    38   103   102    1
    39   105   104    2
    40    24    23    1
    41    24    25    2
    42   121   120    2
    43    29    31   ar
    44    29    27   ar
    45   104   110   am
    46    23    26    1
    47    31    32   ar
    48    26    27    1
    49   117   115    1
    50    27    28   ar
    51    45    46    1
    52    45    44    1
    53   110   111    1
    54   111   114    1
    55   111   112    1
    56    32    30   ar
    57    41    44    1
    58    41    40    1
    59    41    42    1
    60   114   115    1
    61   114   116    1
    62   113   112    2
    63    28    30   ar
    64    43    42    2
    65    34    35    1
    66    34    33    1
    67    34    37    1
    68    75    74    1
    69    39    37    1
    70    35    36    2
    71    74    73    1
    72    37    38    1
    73    55    53    1
    74    81    80    1
    75    73    72    1
    76    53    54    1
    77    53    52    1
    78    48    49    1
    79   100    99    2
    80    80    77    1
    81    72    69    1
    82    99   101   am
    83    99    98    1
    84    52    49    1
    85    49    50    1
    86    98    95    1
    87    71    70    2
    88    70    69    1
    89    77    78    1
    90    77    76    1
    91    69    68    1
    92    79    78    2
    93    67    66    1
    94    50    51    2
    95    91    89   ar
    96    91    92   ar
    97    95    96    1
    98    95    94    1
    99    64    66   ar
   100    64    62   ar
   101    89    87   ar
   102    66    65   ar
   103    96    97    2
   104    62    61   ar
   105    93    92    1
   106    65    63   ar
   107    94    84   am
   108    92    90   ar
   109    61    63   ar
   110    61    60    1
   111    87    86    1
   112    87    88   ar
   113    60    57    1
   114    86    83    1
   115    84    85    2
   116    84    83    1
   117    90    88   ar
   118    83    82    1
   119    57    56    1
   120    57    58    1
   121    58    59    2
