@<TRIPOS>MOLECULE
tmp/5cyfA00.pdb
 108 102 0 0 0
SMALL
GASTEIGER

@<TRIPOS>ATOM
      1  N        -61.4670    8.2490   22.6970 N.3    39  CYS39      -0.1221
      2  CA       -61.0910    6.8250   22.8110 C.3    39  CYS39       0.1808
      3  C        -61.2020    6.2360   21.4310 C.2    39  CYS39       0.2602
      4  O        -61.4820    6.9570   20.4820 O.2    39  CYS39      -0.2717
      5  CB       -61.9730    6.0520   23.7860 C.3    39  CYS39       0.0970
      6  SG       -63.6540    5.7790   23.1420 S.3    39  CYS39      -0.0800
      7  N        -60.9860    4.9290   21.3170 N.am   40  GLY40      -0.1942
      8  CA       -60.7890    4.2940   20.0330 C.3    40  GLY40       0.2014
      9  C        -62.0750    4.0320   19.2820 C.2    40  GLY40       0.2639
     10  O        -62.0250    3.7360   18.1120 O.2    40  GLY40      -0.2714
     11  N        -63.2250    4.1630   19.9390 N.am   41  SER41      -0.1949
     12  CA       -64.5090    3.7730   19.3350 C.3    41  SER41       0.1924
     13  C        -65.5030    4.9230   19.2350 C.2    41  SER41       0.2314
     14  O        -65.7530    5.6170   20.2230 O.2    41  SER41      -0.2863
     15  CB       -65.1240    2.6410   20.1660 C.3    41  SER41       0.2116
     16  OG       -66.5110    2.7300   20.1440 O.3    41  SER41      -0.2180
     17  N        -68.5380    4.2320   21.5620 N.3    44  ARG44      -0.1245
     18  CA       -68.2580    4.4440   22.9800 C.3    44  ARG44       0.1563
     19  C        -68.1120    5.9500   23.2920 C.2    44  ARG44       0.2260
     20  O        -68.6460    6.4130   24.2860 O.2    44  ARG44      -0.2867
     21  CB       -66.9830    3.7000   23.4220 C.3    44  ARG44       0.0307
     22  CG       -67.1950    2.3770   24.1930 C.3    44  ARG44       0.0489
     23  CD       -65.9160    1.9310   24.9670 C.3    44  ARG44       0.2205
     24  NE       -65.5290    2.9280   25.9640 N.pl3  44  ARG44      -0.0865
     25  CZ       -64.2820    3.3150   26.2290 C.cat  44  ARG44       0.5346
     26  NH1      -63.2480    2.7770   25.5900 N.pl3  44  ARG44       0.1354
     27  NH2      -64.0720    4.2510   27.1500 N.pl3  44  ARG44       0.1354
     28  N        -60.4430    8.0600   17.9360 N.3    85  HIS85      -0.1226
     29  CA       -59.1310    8.1070   17.3020 C.3    85  HIS85       0.1752
     30  C        -58.8130    6.8290   16.5400 C.2    85  HIS85       0.2597
     31  O        -57.7830    6.7520   15.8860 O.2    85  HIS85      -0.2718
     32  CB       -58.0070    8.4340   18.3190 C.3    85  HIS85       0.0759
     33  CG       -57.9760    7.5700   19.5520 C.ar   85  HIS85       0.0818
     34  ND1      -57.9220    6.1960   19.5080 N.ar   85  HIS85      -0.2268
     35  CD2      -57.9670    7.9040   20.8710 C.ar   85  HIS85       0.1154
     36  CE1      -57.8490    5.7150   20.7430 C.ar   85  HIS85       0.1986
     37  NE2      -57.8690    6.7350   21.5850 N.ar   85  HIS85      -0.2212
     38  N        -59.7140    5.8580   16.5560 N.am   86  GLY86      -0.1942
     39  CA       -59.4470    4.5960   15.8560 C.3    86  GLY86       0.2014
     40  C        -58.3630    3.8300   16.6130 C.2    86  GLY86       0.2638
     41  O        -57.9690    4.2370   17.7030 O.2    86  GLY86      -0.2714
     42  N        -57.8740    2.7340   16.0550 N.am   87  ILE87      -0.1977
     43  CA       -56.8570    1.9220   16.7400 C.3    87  ILE87       0.1596
     44  C        -55.4730    2.3540   16.3220 C.2    87  ILE87       0.2287
     45  O        -55.1890    2.4090   15.1300 O.2    87  ILE87      -0.2864
     46  CB       -57.0270    0.4150   16.4200 C.3    87  ILE87       0.0276
     47  CG1      -58.3940   -0.0610   16.8980 C.3    87  ILE87       0.0022
     48  CG2      -55.9040   -0.4400   17.0770 C.3    87  ILE87       0.0022
     49  CD1      -58.5840   -1.5770   16.7600 C.3    87  ILE87       0.0001
     50  N        -57.6250   10.5780   27.3080 N.3   115  ARG115     -0.1245
     51  CA       -57.9160    9.3130   26.6650 C.3   115  ARG115      0.1563
     52  C        -58.5650    8.3800   27.6760 C.2   115  ARG115      0.2260
     53  O        -57.9730    8.0540   28.7230 O.2   115  ARG115     -0.2867
     54  CB       -56.6550    8.6490   26.0550 C.3   115  ARG115      0.0307
     55  CG       -56.9520    7.1840   25.6380 C.3   115  ARG115      0.0489
     56  CD       -55.8820    6.5630   24.7360 C.3   115  ARG115      0.2205
     57  NE       -55.8450    5.1190   24.9570 N.pl3 115  ARG115     -0.0865
     58  CZ       -56.8020    4.2750   24.5830 C.cat 115  ARG115      0.5346
     59  NH1      -57.8700    4.7220   23.9420 N.pl3 115  ARG115      0.1354
     60  NH2      -56.6850    2.9740   24.8340 N.pl3 115  ARG115      0.1354
     61  N        -59.6200    4.8660   27.8960 N.3   117  GLY117     -0.1210
     62  CA       -59.4840    3.6620   27.1050 C.3   117  GLY117      0.1956
     63  C        -59.6880    2.3830   27.8730 C.2   117  GLY117      0.2612
     64  O        -59.9370    2.4020   29.0850 O.2   117  GLY117     -0.2717
     65  N        -59.6100    1.2710   27.1420 N.am  118  THR118     -0.1952
     66  CA       -59.3730   -0.0290   27.7560 C.3   118  THR118      0.1897
     67  C        -57.8880   -0.3410   27.5750 C.2   118  THR118      0.2313
     68  O        -57.1850    0.3290   26.8060 O.2   118  THR118     -0.2863
     69  CB       -60.2170   -1.1290   27.1270 C.3   118  THR118      0.1794
     70  OG1      -59.9190   -1.1560   25.7280 O.3   118  THR118     -0.2208
     71  CG2      -61.7240   -0.8320   27.3690 C.3   118  THR118      0.0378
     72  N        -52.5710    1.0970   22.9640 N.3   227  MET227     -0.1230
     73  CA       -52.0040    1.3320   21.6230 C.3   227  MET227      0.1702
     74  C        -51.9360    2.7880   21.0960 C.2   227  MET227      0.2592
     75  O        -51.5790    2.9900   19.9420 O.2   227  MET227     -0.2718
     76  CB       -52.7780    0.4630   20.6040 C.3   227  MET227      0.0401
     77  CG       -52.5190   -1.0480   20.8730 C.3   227  MET227      0.0596
     78  SD       -53.3670   -2.1820   19.7680 S.3   227  MET227     -0.1393
     79  CE       -52.6510   -1.7130   18.2000 C.3   227  MET227      0.0692
     80  N        -52.2310    3.7830   21.9240 N.am  228  GLU228     -0.1979
     81  CA       -52.2350    5.1740   21.4640 C.3   228  GLU228      0.1602
     82  C        -51.5520    6.1690   22.4020 C.2   228  GLU228      0.2287
     83  O        -51.2790    7.2930   21.9860 O.2   228  GLU228     -0.2864
     84  CB       -53.7000    5.6550   21.2350 C.3   228  GLU228      0.0415
     85  CG       -54.4720    4.8420   20.1780 C.3   228  GLU228      0.1163
     86  CD       -55.1380    3.5900   20.7380 C.2   228  GLU228      0.3649
     87  OE1      -55.3940    3.5090   21.9710 O.co2 228  GLU228     -0.2457
     88  OE2      -55.3990    2.6860   19.9300 O.co2 228  GLU228     -0.2457
     89  N        -67.6140   -7.0130   30.7120 N.3   266  PHE266     -0.1241
     90  CA       -66.7530   -6.1960   29.8590 C.3   266  PHE266      0.1605
     91  C        -67.3870   -4.8150   29.6680 C.2   266  PHE266      0.2264
     92  O        -66.6950   -3.7880   29.7150 O.2   266  PHE266     -0.2867
     93  CB       -66.4880   -6.8510   28.4960 C.3   266  PHE266      0.0534
     94  CG       -65.4350   -6.1310   27.6700 C.ar  266  PHE266     -0.0203
     95  CD1      -65.7590   -5.0090   26.9180 C.ar  266  PHE266     -0.0042
     96  CD2      -64.1210   -6.5730   27.6560 C.ar  266  PHE266     -0.0042
     97  CE1      -64.7860   -4.3320   26.1720 C.ar  266  PHE266     -0.0003
     98  CE2      -63.1500   -5.9130   26.9100 C.ar  266  PHE266     -0.0003
     99  CZ       -63.4830   -4.7940   26.1690 C.ar  266  PHE266     -0.0000
    100  N        -65.8810   -1.1540   30.7340 N.3   270  GLU270     -0.1245
    101  CA       -65.8420   -0.0380   29.8000 C.3   270  GLU270      0.1567
    102  C        -66.4340    1.2470   30.3430 C.2   270  GLU270      0.2260
    103  O        -66.0760    2.3120   29.8860 O.2   270  GLU270     -0.2867
    104  CB       -66.5930   -0.3900   28.5170 C.3   270  GLU270      0.0388
    105  CG       -65.7760   -1.1330   27.5070 C.3   270  GLU270      0.1160
    106  CD       -66.5330   -1.3490   26.2140 C.2   270  GLU270      0.3649
    107  OE1      -67.7730   -1.5290   26.2750 O.co2 270  GLU270     -0.2457
    108  OE2      -65.8850   -1.3210   25.1420 O.co2 270  GLU270     -0.2457
@<TRIPOS>BOND
     1    45    44    2
     2    39    38    1
     3    39    40    1
     4    31    30    2
     5    42    40   am
     6    42    43    1
     7    44    43    1
     8    46    43    1
     9    46    47    1
    10    46    48    1
    11    30    38   am
    12    30    29    1
    13    40    41    2
    14    49    47    1
    15    29    28    1
    16    29    32    1
    17    10     9    2
    18    79    78    1
    19    32    33    1
    20    13    12    1
    21    13    14    2
    22     9    11   am
    23     9     8    1
    24    12    11    1
    25    12    15    1
    26    34    33   ar
    27    34    36   ar
    28    33    35   ar
    29    78    77    1
    30    88    86   ar
    31    75    74    2
    32     8     7    1
    33    16    15    1
    34    85    86    1
    35    85    84    1
    36     4     3    2
    37    76    77    1
    38    76    73    1
    39    86    87   ar
    40    36    37   ar
    41    35    37   ar
    42    74    73    1
    43    74    80   am
    44    84    81    1
    45     7     3   am
    46     3     2    1
    47    81    80    1
    48    81    82    1
    49    17    18    1
    50    73    72    1
    51    83    82    2
    52     1     2    1
    53     2     5    1
    54    18    19    1
    55    18    21    1
    56     6     5    1
    57    19    20    2
    58    21    22    1
    59    59    58    1
    60    22    23    1
    61    58    60    1
    62    58    57    2
    63    56    57    1
    64    56    55    1
    65    23    24    1
    66   108   106   ar
    67    26    25    1
    68    55    54    1
    69    70    69    1
    70    24    25    2
    71    54    51    1
    72    99    97   ar
    73    99    98   ar
    74    97    95   ar
    75   106   107   ar
    76   106   105    1
    77    25    27    1
    78    51    50    1
    79    51    52    1
    80    68    67    2
    81    98    96   ar
    82    95    94   ar
    83    62    63    1
    84    62    61    1
    85    69    71    1
    86    69    66    1
    87    65    66    1
    88    65    63   am
    89   105   104    1
    90    67    66    1
    91    96    94   ar
    92    94    93    1
    93    52    53    2
    94    63    64    2
    95    93    90    1
    96   104   101    1
    97    91    92    2
    98    91    90    1
    99   101   102    1
   100   101   100    1
   101    90    89    1
   102   103   102    2
