@<TRIPOS>MOLECULE
tmp/5cyoA00.pdb
 140 134 0 0 0
SMALL
GASTEIGER

@<TRIPOS>ATOM
      1  N         27.2340   -6.7050    6.9220 N.3    13  SER13      -0.1202
      2  CA        26.0160   -6.0340    7.3540 C.3    13  SER13       0.2020
      3  C         24.7940   -6.8570    7.0050 C.2    13  SER13       0.2619
      4  O         24.8180   -7.6670    6.0740 O.2    13  SER13      -0.2717
      5  CB        25.9030   -4.6510    6.7130 C.3    13  SER13       0.2103
      6  OG        27.0020   -3.8420    7.0730 O.3    13  SER13      -0.2182
      7  N         23.7170   -6.6370    7.7480 N.am   14  GLY14      -0.1942
      8  CA        22.4590   -7.2960    7.4580 C.3    14  GLY14       0.2014
      9  C         22.4450   -8.7580    7.8590 C.2    14  GLY14       0.2639
     10  O         21.6550   -9.5370    7.3250 O.2    14  GLY14      -0.2714
     11  N         23.3120   -9.1380    8.7950 N.am   15  LEU15      -0.1963
     12  CA        23.3300  -10.5210    9.2640 C.3    15  LEU15       0.1728
     13  C         22.7170  -10.6590   10.6590 C.2    15  LEU15       0.2617
     14  O         22.7340  -11.7390   11.2460 O.2    15  LEU15      -0.2715
     15  CB        24.7570  -11.0740    9.2620 C.3    15  LEU15       0.0311
     16  CG        25.3970  -11.2560    7.8810 C.3    15  LEU15       0.0022
     17  CD1       26.7580  -11.9290    7.9990 C.3    15  LEU15       0.0001
     18  CD2       24.4770  -12.0340    6.9450 C.3    15  LEU15       0.0001
     19  N         22.1740   -9.5650   11.1840 N.am   16  GLY16      -0.1940
     20  CA        21.5320   -9.5890   12.4870 C.3    16  GLY16       0.2014
     21  C         22.5080   -9.4310   13.6440 C.2    16  GLY16       0.2639
     22  O         22.2020   -9.8180   14.7760 O.2    16  GLY16      -0.2714
     23  N         23.6780   -8.8600   13.3660 N.am   17  LYS17      -0.1963
     24  CA        24.7120   -8.6980   14.3860 C.3    17  LYS17       0.1728
     25  C         24.2830   -7.7490   15.5050 C.2    17  LYS17       0.2617
     26  O         24.3910   -8.0830   16.6820 O.2    17  LYS17      -0.2715
     27  CB        26.0140   -8.1840   13.7660 C.3    17  LYS17       0.0311
     28  CG        26.6440   -9.1140   12.7440 C.3    17  LYS17       0.0038
     29  CD        28.0470   -8.6330   12.3810 C.3    17  LYS17       0.0206
     30  CE        28.0280   -7.2110   11.8210 C.3    17  LYS17       0.1093
     31  NZ        27.0780   -7.0770   10.6520 N.3    17  LYS17      -0.1314
     32  N         23.8050   -6.5660   15.1380 N.am   18  SER18      -0.1936
     33  CA        23.3990   -5.5870   16.1350 C.3    18  SER18       0.2055
     34  C         22.1950   -6.0990   16.9210 C.2    18  SER18       0.2643
     35  O         22.0730   -5.8550   18.1250 O.2    18  SER18      -0.2714
     36  CB        23.0870   -4.2430   15.4750 C.3    18  SER18       0.2130
     37  OG        24.2440   -3.7130   14.8560 O.3    18  SER18      -0.2179
     38  N         21.3220   -6.8300   16.2330 N.am   19  THR19      -0.1950
     39  CA        20.1660   -7.4490   16.8660 C.3    19  THR19       0.1897
     40  C         20.5850   -8.4760   17.9230 C.2    19  THR19       0.2313
     41  O         20.0390   -8.5070   19.0270 O.2    19  THR19      -0.2863
     42  CB        19.2610   -8.1520   15.8290 C.3    19  THR19       0.1794
     43  OG1       18.7880   -7.1990   14.8640 O.3    19  THR19      -0.2208
     44  CG2       18.0700   -8.8190   16.5170 C.3    19  THR19       0.0378
     45  N         13.6020   -0.4410   15.5290 N.3    40  ARG40      -0.1231
     46  CA        14.4570   -0.7730   14.4020 C.3    40  ARG40       0.1694
     47  C         15.8740   -0.2330   14.6500 C.2    40  ARG40       0.2592
     48  O         16.0590    0.9010   15.0990 O.2    40  ARG40      -0.2718
     49  CB        13.8850   -0.2290   13.0920 C.3    40  ARG40       0.0321
     50  CG        14.7400   -0.6330   11.9180 C.3    40  ARG40       0.0489
     51  CD        14.3570    0.0560   10.6170 C.3    40  ARG40       0.2205
     52  NE        15.3730   -0.2060    9.6110 N.pl3  40  ARG40      -0.0865
     53  CZ        16.4780    0.5210    9.4800 C.cat  40  ARG40       0.5346
     54  NH1       16.6650    1.5720   10.2690 N.pl3  40  ARG40       0.1354
     55  NH2       17.3810    0.2220    8.5490 N.pl3  40  ARG40       0.1354
     56  N         16.8700   -1.0680   14.3860 N.am   41  ILE41      -0.1966
     57  CA        18.2700   -0.7030   14.5680 C.3    41  ILE41       0.1712
     58  C         18.8850   -0.1450   13.2910 C.2    41  ILE41       0.2458
     59  O         18.8180   -0.7800   12.2360 O.2    41  ILE41      -0.2730
     60  CB        19.0980   -1.9110   15.0280 C.3    41  ILE41       0.0289
     61  CG1       18.5000   -2.5140   16.3020 C.3    41  ILE41       0.0022
     62  CG2       20.5530   -1.5180   15.2310 C.3    41  ILE41       0.0023
     63  CD1       19.1800   -3.7910   16.7370 C.3    41  ILE41       0.0001
     64  N         19.4960    1.0430   13.3770 N.am   42  PRO42      -0.2716
     65  CA        20.1630    1.6020   12.1990 C.3    42  PRO42       0.1536
     66  C         21.3330    0.7320   11.7550 C.2    42  PRO42       0.2598
     67  O         21.8680   -0.0330   12.5620 O.2    42  PRO42      -0.2715
     68  CB        20.6620    2.9660   12.6880 C.3    42  PRO42       0.0310
     69  CG        19.8660    3.2580   13.9150 C.3    42  PRO42       0.0237
     70  CD        19.6040    1.9330   14.5430 C.3    42  PRO42       0.0939
     71  N         21.7110    0.8330   10.4840 N.am   43  LYS43      -0.1964
     72  CA        22.9070    0.1610   10.0080 C.3    43  LYS43       0.1728
     73  C         24.1090    0.6710   10.7890 C.2    43  LYS43       0.2616
     74  O         24.2460    1.8710   11.0030 O.2    43  LYS43      -0.2715
     75  CB        23.1300    0.3950    8.5140 C.3    43  LYS43       0.0311
     76  CG        24.3330   -0.3680    7.9870 C.3    43  LYS43       0.0038
     77  CD        25.0340    0.3810    6.8660 C.3    43  LYS43       0.0206
     78  CE        24.7710   -0.2600    5.5260 C.3    43  LYS43       0.1093
     79  NZ        25.4680    0.4590    4.4210 N.3    43  LYS43      -0.1314
     80  N         24.9720   -0.2440   11.2070 N.am   44  THR44      -0.1951
     81  CA        26.1350    0.1070   12.0170 C.3    44  THR44       0.1897
     82  C         27.2740    0.6200   11.1420 C.2    44  THR44       0.2313
     83  O         27.8120   -0.1290   10.3340 O.2    44  THR44      -0.2863
     84  CB        26.6350   -1.1050   12.8230 C.3    44  THR44       0.1794
     85  OG1       25.5230   -1.7770   13.4260 O.3    44  THR44      -0.2208
     86  CG2       27.6340   -0.6740   13.8940 C.3    44  THR44       0.0378
     87  N         21.1170  -15.4840   11.1950 N.3   150  LYS150     -0.1245
     88  CA        19.7280  -15.6640   10.7690 C.3   150  LYS150      0.1561
     89  C         19.4100  -17.1190   10.4640 C.2   150  LYS150      0.2260
     90  O         18.8950  -17.4350    9.3950 O.2   150  LYS150     -0.2867
     91  CB        19.4230  -14.8080    9.5370 C.3   150  LYS150      0.0271
     92  CG        19.6400  -13.3170    9.7330 C.3   150  LYS150      0.0035
     93  CD        19.2240  -12.5690    8.4680 C.3   150  LYS150      0.0206
     94  CE        19.3180  -11.0760    8.6430 C.3   150  LYS150      0.1093
     95  NZ        18.8540  -10.3720    7.4140 N.3   150  LYS150     -0.1314
     96  N         17.2580  -19.0920   11.1910 N.3   152  ASP152     -0.1225
     97  CA        15.8750  -19.4070   10.8680 C.3   152  ASP152      0.1805
     98  C         15.6870  -19.5190    9.3520 C.2   152  ASP152      0.2598
     99  O         14.6770  -20.0360    8.8840 O.2   152  ASP152     -0.2718
    100  CB        14.9370  -18.3590   11.4680 C.3   152  ASP152      0.1424
    101  CG        15.3260  -16.9390   11.0960 C.2   152  ASP152      0.3668
    102  OD1       16.4380  -16.4970   11.4740 O.co2 152  ASP152     -0.2456
    103  OD2       14.5070  -16.2570   10.4510 O.co2 152  ASP152     -0.2456
    104  N         16.6820  -19.0540    8.5980 N.am  153  THR153     -0.1953
    105  CA        16.6800  -19.1460    7.1410 C.3   153  THR153      0.1897
    106  C         16.8010  -20.5910    6.6730 C.2   153  THR153      0.2313
    107  O         16.3650  -20.9490    5.5830 O.2   153  THR153     -0.2863
    108  CB        17.8830  -18.3530    6.5440 C.3   153  THR153      0.1794
    109  OG1       17.8460  -16.9970    6.9910 O.3   153  THR153     -0.2208
    110  CG2       17.8930  -18.3880    5.0210 C.3   153  THR153      0.0378
    111  N         19.4920  -17.0950   16.1970 N.3   205  VAL205     -0.1231
    112  CA        18.4000  -16.2310   15.7850 C.3   205  VAL205      0.1692
    113  C         18.3130  -15.0530   16.7490 C.2   205  VAL205      0.2592
    114  O         18.3640  -15.2470   17.9630 O.2   205  VAL205     -0.2718
    115  CB        17.0570  -16.9950   15.7680 C.3   205  VAL205      0.0266
    116  CG1       15.9170  -16.0690   15.3630 C.3   205  VAL205      0.0020
    117  CG2       17.1390  -18.1950   14.8320 C.3   205  VAL205      0.0020
    118  N         18.1910  -13.8390   16.2220 N.am  206  GLY206     -0.1957
    119  CA        18.0820  -12.6640   17.0700 C.3   206  GLY206      0.1869
    120  C         16.6210  -12.3220   17.3120 C.2   206  GLY206      0.2309
    121  O         15.7830  -12.5100   16.4370 O.2   206  GLY206     -0.2863
    122  N         13.2240   -9.9530   18.0790 N.3   208  ASP208     -0.1239
    123  CA        12.6590   -8.6370   17.7830 C.3   208  ASP208      0.1674
    124  C         11.5140   -8.2830   18.7340 C.2   208  ASP208      0.2266
    125  O         10.9070   -7.2260   18.5990 O.2   208  ASP208     -0.2867
    126  CB        12.1650   -8.5420   16.3290 C.3   208  ASP208      0.1410
    127  CG        11.1920   -9.6540   15.9490 C.2   208  ASP208      0.3668
    128  OD1       10.6810  -10.3550   16.8430 O.co2 208  ASP208     -0.2456
    129  OD2       10.9180   -9.8110   14.7390 O.co2 208  ASP208     -0.2456
    130  N         11.4940  -14.1260   17.9970 N.3   221  ARG221     -0.1245
    131  CA        11.4130  -13.4990   16.6870 C.3   221  ARG221      0.1563
    132  C         10.1210  -13.9010   15.9880 C.2   221  ARG221      0.2260
    133  O          9.8100  -15.0900   15.8870 O.2   221  ARG221     -0.2867
    134  CB        12.6140  -13.8480   15.8060 C.3   221  ARG221      0.0307
    135  CG        12.4040  -13.3440   14.3790 C.3   221  ARG221      0.0489
    136  CD        13.6520  -13.2950   13.5360 C.3   221  ARG221      0.2205
    137  NE        13.2800  -12.9940   12.1560 N.pl3 221  ARG221     -0.0865
    138  CZ        13.1760  -11.7660   11.6570 C.cat 221  ARG221      0.5346
    139  NH1       13.4500  -10.7100   12.4160 N.pl3 221  ARG221      0.1354
    140  NH2       12.8130  -11.5960   10.3920 N.pl3 221  ARG221      0.1354
@<TRIPOS>BOND
     1    79    78    1
     2   110   108    1
     3    78    77    1
     4   107   106    2
     5     4     3    2
     6   108   109    1
     7   108   105    1
     8   106   105    1
     9     5     6    1
    10     5     2    1
    11    77    76    1
    12     1     2    1
    13    18    16    1
    14     3     2    1
    15     3     7   am
    16   105   104    1
    17    10     9    2
    18    95    94    1
    19     8     7    1
    20     8     9    1
    21     9    11   am
    22    16    17    1
    23    16    15    1
    24    76    75    1
    25    93    94    1
    26    93    92    1
    27    75    72    1
    28    55    53    1
    29   104    98   am
    30    11    12    1
    31    99    98    2
    32    15    12    1
    33    12    13    1
    34    98    97    1
    35    90    89    2
    36    53    52    2
    37    53    54    1
    38    91    92    1
    39    91    88    1
    40    52    51    1
    41    72    71    1
    42    72    73    1
    43    83    82    2
    44   140   138    1
    45   103   101   ar
    46    89    88    1
    47    71    66   am
    48    51    50    1
    49    31    30    1
    50    13    19   am
    51    13    14    2
    52    88    87    1
    53    73    74    2
    54    73    80   am
    55    97    96    1
    56    97   100    1
    57   101   100    1
    58   101   102   ar
    59    82    81    1
    60    19    20    1
    61    80    81    1
    62   138   137    2
    63   138   139    1
    64    66    65    1
    65    66    67    2
    66    30    29    1
    67    50    49    1
    68    81    84    1
    69   137   136    1
    70    65    68    1
    71    65    64    1
    72    59    58    2
    73    29    28    1
    74    20    21    1
    75    68    69    1
    76    28    27    1
    77    84    85    1
    78    84    86    1
    79    49    46    1
    80    58    64   am
    81    58    57    1
    82    23    21   am
    83    23    24    1
    84    64    70    1
    85   136   135    1
    86    21    22    2
    87    27    24    1
    88    69    70    1
    89   135   134    1
    90    56    57    1
    91    56    47   am
    92    24    25    1
    93    46    47    1
    94    46    45    1
    95    57    60    1
    96    47    48    2
    97   129   127   ar
    98   117   115    1
    99    37    36    1
   100    43    42    1
   101    60    62    1
   102    60    61    1
   103    32    25   am
   104    32    33    1
   105   116   115    1
   106    36    33    1
   107    25    26    2
   108   115   112    1
   109   112   111    1
   110   112   113    1
   111   134   131    1
   112    42    44    1
   113    42    39    1
   114   133   132    2
   115   127   126    1
   116   127   128   ar
   117   132   131    1
   118    33    34    1
   119   118   113   am
   120   118   119    1
   121    38    39    1
   122    38    34   am
   123    61    63    1
   124   126   123    1
   125   121   120    2
   126   131   130    1
   127   113   114    2
   128    39    40    1
   129    34    35    2
   130   119   120    1
   131   123   122    1
   132   123   124    1
   133    40    41    2
   134   125   124    2
