@<TRIPOS>MOLECULE
tmp/5cypB01.pdb
 121 115 0 0 0
SMALL
GASTEIGER

@<TRIPOS>ATOM
      1  N          4.1900   21.3940    1.5640 N.3    14  SER14      -0.1202
      2  CA         3.8390   22.6870    2.1410 C.3    14  SER14       0.2020
      3  C          3.2930   22.5640    3.5600 C.2    14  SER14       0.2619
      4  O          2.3840   21.7750    3.8180 O.2    14  SER14      -0.2717
      5  CB         2.8190   23.4030    1.2550 C.3    14  SER14       0.2103
      6  OG         3.2100   23.3610   -0.1060 O.3    14  SER14      -0.2182
      7  N          3.8570   23.3440    4.4760 N.am   15  GLY15      -0.1942
      8  CA         3.3470   23.4190    5.8320 C.3    15  GLY15       0.2014
      9  C          3.7940   22.2970    6.7490 C.2    15  GLY15       0.2639
     10  O          3.0820   21.9360    7.6840 O.2    15  GLY15      -0.2714
     11  N          4.9710   21.7390    6.4820 N.am   16  LEU16      -0.1963
     12  CA         5.4960   20.6510    7.3010 C.3    16  LEU16       0.1728
     13  C          6.4200   21.1520    8.4090 C.2    16  LEU16       0.2617
     14  O          6.9540   20.3610    9.1870 O.2    16  LEU16      -0.2715
     15  CB         6.2350   19.6360    6.4260 C.3    16  LEU16       0.0311
     16  CG         5.3550   18.7560    5.5380 C.3    16  LEU16       0.0022
     17  CD1        6.1990   17.7360    4.7920 C.3    16  LEU16       0.0001
     18  CD2        4.2780   18.0670    6.3640 C.3    16  LEU16       0.0001
     19  N          6.6070   22.4660    8.4810 N.am   17  GLY17      -0.1940
     20  CA         7.4180   23.0530    9.5320 C.3    17  GLY17       0.2014
     21  C          8.8800   23.1600    9.1450 C.2    17  GLY17       0.2639
     22  O          9.7590   23.1390   10.0060 O.2    17  GLY17      -0.2714
     23  N          9.1390   23.2750    7.8460 N.am   18  LYS18      -0.1963
     24  CA        10.5040   23.3620    7.3370 C.3    18  LYS18       0.1728
     25  C         11.2020   24.6460    7.7790 C.2    18  LYS18       0.2617
     26  O         12.3090   24.6050    8.3160 O.2    18  LYS18      -0.2715
     27  CB        10.5170   23.2670    5.8100 C.3    18  LYS18       0.0311
     28  CG        10.0310   21.9350    5.2610 C.3    18  LYS18       0.0038
     29  CD        10.2570   21.8430    3.7590 C.3    18  LYS18       0.0206
     30  CE         9.5870   22.9880    3.0180 C.3    18  LYS18       0.1093
     31  NZ         8.1040   22.8710    3.0260 N.3    18  LYS18      -0.1314
     32  N         10.5520   25.7820    7.5440 N.am   19  SER19      -0.1936
     33  CA        11.1140   27.0800    7.9060 C.3    19  SER19       0.2055
     34  C         11.2700   27.2260    9.4180 C.2    19  SER19       0.2643
     35  O         12.2330   27.8240    9.8970 O.2    19  SER19      -0.2714
     36  CB        10.2390   28.2110    7.3610 C.3    19  SER19       0.2130
     37  OG         9.9670   28.0280    5.9830 O.3    19  SER19      -0.2179
     38  N         10.3120   26.6770   10.1580 N.am   20  THR20      -0.1950
     39  CA        10.3140   26.7500   11.6160 C.3    20  THR20       0.1897
     40  C         11.5130   26.0070   12.2060 C.2    20  THR20       0.2313
     41  O         12.0260   26.3730   13.2630 O.2    20  THR20      -0.2863
     42  CB         9.0060   26.1760   12.2010 C.3    20  THR20       0.1794
     43  OG1        7.8860   26.8810   11.6510 O.3    20  THR20      -0.2208
     44  CG2        8.9820   26.3020   13.7190 C.3    20  THR20       0.0378
     45  N          5.7790   33.0270   10.7640 N.3    29  ILE29      -0.1231
     46  CA         6.6850   32.8060    9.6450 C.3    29  ILE29       0.1678
     47  C          5.8900   32.7710    8.3440 C.2    29  ILE29       0.2434
     48  O          5.0080   31.9290    8.1780 O.2    29  ILE29      -0.2733
     49  CB         7.4810   31.4970    9.7990 C.3    29  ILE29       0.0265
     50  CG1        8.3240   31.5330   11.0750 C.3    29  ILE29       0.0019
     51  CG2        8.3630   31.2650    8.5820 C.3    29  ILE29       0.0020
     52  CD1        9.2000   30.3140   11.2620 C.3    29  ILE29       0.0001
     53  N          6.2000   33.6890    7.4180 N.am   30  PRO30      -0.2718
     54  CA         5.4580   33.8000    6.1570 C.3    30  PRO30       0.1535
     55  C          5.6260   32.5780    5.2570 C.2    30  PRO30       0.2598
     56  O          6.5020   31.7460    5.4900 O.2    30  PRO30      -0.2715
     57  CB         6.0640   35.0450    5.5020 C.3    30  PRO30       0.0310
     58  CG         7.4250   35.1560    6.0930 C.3    30  PRO30       0.0237
     59  CD         7.2860   34.6800    7.5080 C.3    30  PRO30       0.0939
     60  N          4.7790   32.4820    4.2380 N.am   31  LYS31      -0.1964
     61  CA         4.8410   31.3880    3.2770 C.3    31  LYS31       0.1728
     62  C          6.0900   31.4890    2.4040 C.2    31  LYS31       0.2616
     63  O          6.3430   32.5210    1.7820 O.2    31  LYS31      -0.2715
     64  CB         3.5750   31.3840    2.4170 C.3    31  LYS31       0.0311
     65  CG         3.5170   30.3040    1.3530 C.3    31  LYS31       0.0038
     66  CD         2.0940   30.1350    0.8360 C.3    31  LYS31       0.0206
     67  CE         1.4790   31.4720    0.4430 C.3    31  LYS31       0.1093
     68  NZ         2.1150   32.0600   -0.7660 N.3    31  LYS31      -0.1314
     69  N          6.8680   30.4110    2.3660 N.am   32  THR32      -0.1951
     70  CA         8.1190   30.3830    1.6130 C.3    32  THR32       0.1897
     71  C          7.8660   30.2540    0.1140 C.2    32  THR32       0.2313
     72  O          7.4570   29.1980   -0.3670 O.2    32  THR32      -0.2863
     73  CB         9.0240   29.2230    2.0710 C.3    32  THR32       0.1794
     74  OG1        9.0990   29.2070    3.5020 O.3    32  THR32      -0.2208
     75  CG2       10.4230   29.3740    1.4920 C.3    32  THR32       0.0378
     76  N         13.4840   25.9220    1.0360 N.3    55  THR55      -0.1218
     77  CA        12.8320   25.7010   -0.2490 C.3    55  THR55       0.1862
     78  C         11.3170   25.8190   -0.1290 C.2    55  THR55       0.2287
     79  O         10.7450   25.4790    0.9080 O.2    55  THR55      -0.2866
     80  CB        13.1830   24.3150   -0.8280 C.3    55  THR55       0.1770
     81  OG1       12.7440   23.2920    0.0760 O.3    55  THR55      -0.2211
     82  CG2       14.6840   24.1870   -1.0440 C.3    55  THR55       0.0375
     83  N          7.5400   24.7440   -0.4430 N.3    57  GLY57      -0.1225
     84  CA         6.9000   23.4450   -0.3530 C.3    57  GLY57       0.1811
     85  C          6.2870   22.9990   -1.6660 C.2    57  GLY57       0.2280
     86  O          5.8630   23.8220   -2.4770 O.2    57  GLY57      -0.2866
     87  N          6.6630   17.4530   12.1120 N.3   137  LYS137     -0.1245
     88  CA         5.6840   17.6290   13.1850 C.3   137  LYS137      0.1561
     89  C          5.4260   16.3300   13.9450 C.2   137  LYS137      0.2260
     90  O          4.3140   15.8060   13.9350 O.2   137  LYS137     -0.2867
     91  CB         4.3700   18.1770   12.6220 C.3   137  LYS137      0.0271
     92  CG         4.5070   19.5320   11.9450 C.3   137  LYS137      0.0035
     93  CD         3.2020   19.9610   11.2970 C.3   137  LYS137      0.0206
     94  CE         3.2680   21.4060   10.8340 C.3   137  LYS137      0.1093
     95  NZ         1.9670   21.8700   10.2750 N.3   137  LYS137     -0.1314
     96  N          5.1130   15.7790   16.9550 N.3   139  ASP139     -0.1225
     97  CA         4.2080   15.9260   18.0890 C.3   139  ASP139      0.1805
     98  C          2.7780   15.5650   17.6900 C.2   139  ASP139      0.2598
     99  O          1.9090   15.3900   18.5450 O.2   139  ASP139     -0.2718
    100  CB         4.2720   17.3500   18.6510 C.3   139  ASP139      0.1424
    101  CG         4.0840   18.4100   17.5840 C.2   139  ASP139      0.3668
    102  OD1        4.5540   18.2020   16.4460 O.co2 139  ASP139     -0.2456
    103  OD2        3.4740   19.4560   17.8880 O.co2 139  ASP139     -0.2456
    104  N          2.5430   15.4620   16.3850 N.am  140  THR140     -0.1953
    105  CA         1.2510   15.0380   15.8560 C.3   140  THR140      0.1897
    106  C          0.9390   13.5920   16.2380 C.2   140  THR140      0.2313
    107  O         -0.2080   13.2460   16.5230 O.2   140  THR140     -0.2863
    108  CB         1.2070   15.1780   14.3190 C.3   140  THR140      0.1794
    109  OG1        1.5170   16.5270   13.9510 O.3   140  THR140     -0.2208
    110  CG2       -0.1650   14.8100   13.7760 C.3   140  THR140      0.0378
    111  N         10.5760   18.2410   15.9530 N.3   192  VAL192     -0.1231
    112  CA         9.4960   19.1420   16.3400 C.3   192  VAL192      0.1692
    113  C         10.0000   20.5820   16.3760 C.2   192  VAL192      0.2592
    114  O         10.9760   20.8890   17.0620 O.2   192  VAL192     -0.2718
    115  CB         8.9050   18.7780   17.7210 C.3   192  VAL192      0.0266
    116  CG1        7.9560   19.8680   18.1990 C.3   192  VAL192      0.0020
    117  CG2        8.1950   17.4310   17.6720 C.3   192  VAL192      0.0020
    118  N          9.3350   21.4600   15.6320 N.am  193  GLY193     -0.1957
    119  CA         9.6920   22.8670   15.6130 C.3   193  GLY193      0.1869
    120  C          9.3840   23.5620   16.9250 C.2   193  GLY193      0.2309
    121  O          8.3670   24.2430   17.0560 O.2   193  GLY193     -0.2863
@<TRIPOS>BOND
     1    86    85    2
     2    85    84    1
     3    82    80    1
     4    80    77    1
     5    80    81    1
     6    68    67    1
     7    83    84    1
     8    72    71    2
     9    77    78    1
    10    77    76    1
    11    78    79    2
    12     6     5    1
    13    71    70    1
    14    67    66    1
    15    66    65    1
    16     5     2    1
    17    65    64    1
    18    75    73    1
    19     1     2    1
    20    70    73    1
    21    70    69    1
    22    63    62    2
    23    73    74    1
    24     2     3    1
    25    69    62   am
    26    62    61    1
    27    64    61    1
    28    30    31    1
    29    30    29    1
    30    61    60    1
    31     3     4    2
    32     3     7   am
    33    29    28    1
    34    60    55   am
    35     7     8    1
    36    17    16    1
    37    55    56    2
    38    55    54    1
    39    28    27    1
    40    57    58    1
    41    57    54    1
    42    16    18    1
    43    16    15    1
    44    27    24    1
    45     8     9    1
    46    37    36    1
    47    58    59    1
    48    54    53    1
    49    15    12    1
    50    11     9   am
    51    11    12    1
    52     9    10    2
    53    12    13    1
    54    24    25    1
    55    24    23    1
    56    36    33    1
    57    53    59    1
    58    53    47   am
    59    32    25   am
    60    32    33    1
    61    25    26    2
    62    23    21   am
    63    33    34    1
    64    48    47    2
    65    47    46    1
    66    13    19   am
    67    13    14    2
    68    19    20    1
    69    51    49    1
    70    21    20    1
    71    21    22    2
    72    34    35    2
    73    34    38   am
    74    46    49    1
    75    46    45    1
    76    49    50    1
    77    38    39    1
    78    95    94    1
    79    94    93    1
    80    50    52    1
    81    93    92    1
    82    39    42    1
    83    39    40    1
    84    43    42    1
    85    92    91    1
    86    87    88    1
    87    42    44    1
    88    40    41    2
    89    91    88    1
    90    88    89    1
    91   110   108    1
    92    90    89    2
    93   109   108    1
    94   108   105    1
    95   119   118    1
    96   119   120    1
    97   118   113   am
    98   105   106    1
    99   105   104    1
   100   111   112    1
   101   106   107    2
   102   112   113    1
   103   112   115    1
   104   113   114    2
   105   104    98   am
   106   102   101   ar
   107   120   121    2
   108    96    97    1
   109   101   103   ar
   110   101   100    1
   111   117   115    1
   112    98    97    1
   113    98    99    2
   114   115   116    1
   115    97   100    1
