@<TRIPOS>MOLECULE
tmp/5cyrA00.pdb
 185 178 0 0 0
SMALL
GASTEIGER

@<TRIPOS>ATOM
      1  N         51.0210   12.9870   40.1400 N.3   155  ARG155     -0.1245
      2  CA        51.1630   14.3900   39.7940 C.3   155  ARG155      0.1563
      3  C         49.8350   15.1300   39.9400 C.2   155  ARG155      0.2260
      4  O         49.8120   16.3490   40.1120 O.2   155  ARG155     -0.2867
      5  CB        51.7310   14.5360   38.3800 C.3   155  ARG155      0.0307
      6  CG        52.7240   15.6730   38.2860 C.3   155  ARG155      0.0489
      7  CD        53.6160   15.6240   37.0670 C.3   155  ARG155      0.2205
      8  NE        54.5730   16.7280   37.1080 N.pl3 155  ARG155     -0.0865
      9  CZ        55.6620   16.7470   37.8720 C.cat 155  ARG155      0.5346
     10  NH1       56.4730   17.7970   37.8490 N.pl3 155  ARG155      0.1354
     11  NH2       55.9450   15.7150   38.6570 N.pl3 155  ARG155      0.1354
     12  N         55.1890   10.5250   36.2550 N.3   269  LYS269     -0.1245
     13  CA        54.8650   11.7990   35.6150 C.3   269  LYS269      0.1561
     14  C         53.9020   11.6600   34.4380 C.2   269  LYS269      0.2260
     15  O         54.2470   11.0980   33.3970 O.2   269  LYS269     -0.2867
     16  CB        56.1480   12.4890   35.1460 C.3   269  LYS269      0.0271
     17  CG        55.9440   13.8500   34.5050 C.3   269  LYS269      0.0035
     18  CD        57.2500   14.6340   34.4930 C.3   269  LYS269      0.0206
     19  CE        57.0670   16.0220   33.9090 C.3   269  LYS269      0.1093
     20  NZ        56.6600   17.0020   34.9460 N.3   269  LYS269     -0.1314
     21  N         50.7730   14.4600   33.0780 N.3   271  ARG271     -0.1245
     22  CA        50.0680   15.7040   33.3760 C.3   271  ARG271      0.1563
     23  C         48.5500   15.5840   33.2920 C.2   271  ARG271      0.2260
     24  O         48.0090   15.1690   32.2670 O.2   271  ARG271     -0.2867
     25  CB        50.5500   16.8040   32.4310 C.3   271  ARG271      0.0307
     26  CG        52.0570   16.8280   32.2740 C.3   271  ARG271      0.0489
     27  CD        52.5000   17.7280   31.1390 C.3   271  ARG271      0.2205
     28  NE        53.8940   17.4800   30.7820 N.pl3 271  ARG271     -0.0865
     29  CZ        54.9350   17.9600   31.4540 C.cat 271  ARG271      0.5346
     30  NH1       54.7440   18.7180   32.5250 N.pl3 271  ARG271      0.1354
     31  NH2       56.1700   17.6820   31.0560 N.pl3 271  ARG271      0.1354
     32  N         56.0650   34.1550   31.3000 N.3   340  TYR340     -0.1241
     33  CA        55.0650   33.5250   30.4440 C.3   340  TYR340      0.1605
     34  C         54.5920   32.2500   31.1230 C.2   340  TYR340      0.2264
     35  O         55.0320   31.1520   30.7780 O.2   340  TYR340     -0.2867
     36  CB        55.6260   33.2140   29.0540 C.3   340  TYR340      0.0534
     37  CG        54.5650   32.8770   28.0280 C.ar  340  TYR340     -0.0201
     38  CD1       54.0700   33.8500   27.1730 C.ar  340  TYR340     -0.0009
     39  CD2       54.0560   31.5880   27.9180 C.ar  340  TYR340     -0.0009
     40  CE1       53.1010   33.5520   26.2360 C.ar  340  TYR340      0.0417
     41  CE2       53.0840   31.2800   26.9840 C.ar  340  TYR340      0.0417
     42  CZ        52.6110   32.2680   26.1460 C.ar  340  TYR340      0.1957
     43  OH        51.6440   31.9740   25.2140 O.3   340  TYR340     -0.2866
     44  N         54.6080   29.3540   33.4740 N.3   342  ASP342     -0.1225
     45  CA        55.6420   28.6400   34.2120 C.3   342  ASP342      0.1805
     46  C         57.0130   28.7270   33.5430 C.2   342  ASP342      0.2597
     47  O         57.9600   28.0670   33.9690 O.2   342  ASP342     -0.2718
     48  CB        55.2430   27.1750   34.3930 C.3   342  ASP342      0.1424
     49  CG        54.7400   26.5470   33.1120 C.2   342  ASP342      0.3668
     50  OD1       54.2830   27.2980   32.2240 O.co2 342  ASP342     -0.2456
     51  OD2       54.7980   25.3050   32.9910 O.co2 342  ASP342     -0.2456
     52  N         57.1170   29.5420   32.4970 N.am  343  ASP343     -0.1974
     53  CA        58.4020   29.7870   31.8490 C.3   343  ASP343      0.1709
     54  C         58.8320   31.2320   32.0810 C.2   343  ASP343      0.2293
     55  O         58.0990   32.1670   31.7610 O.2   343  ASP343     -0.2864
     56  CB        58.3310   29.4840   30.3520 C.3   343  ASP343      0.1436
     57  CG        59.6890   29.1600   29.7600 C.2   343  ASP343      0.3671
     58  OD1       60.4110   28.3220   30.3430 O.co2 343  ASP343     -0.2456
     59  OD2       60.0360   29.7470   28.7170 O.co2 343  ASP343     -0.2456
     60  N         62.8880   26.8540   36.3230 N.3   360  ASP360     -0.1225
     61  CA        61.5500   26.3170   36.1180 C.3   360  ASP360      0.1805
     62  C         60.9200   25.9170   37.4470 C.2   360  ASP360      0.2598
     63  O         61.6210   25.7480   38.4460 O.2   360  ASP360     -0.2718
     64  CB        61.5910   25.1160   35.1690 C.3   360  ASP360      0.1424
     65  CG        62.4360   25.3730   33.9380 C.2   360  ASP360      0.3668
     66  OD1       61.9040   25.9220   32.9500 O.co2 360  ASP360     -0.2456
     67  OD2       63.6340   25.0240   33.9610 O.co2 360  ASP360     -0.2456
     68  N         59.5990   25.7680   37.4570 N.am  361  PHE361     -0.1962
     69  CA        58.8890   25.3770   38.6690 C.3   361  PHE361      0.1771
     70  C         58.4420   23.9230   38.6110 C.2   361  PHE361      0.2619
     71  O         58.1710   23.3950   37.5330 O.2   361  PHE361     -0.2715
     72  CB        57.6710   26.2760   38.9000 C.3   361  PHE361      0.0574
     73  CG        57.9730   27.7450   38.8310 C.ar  361  PHE361     -0.0200
     74  CD1       58.6360   28.3810   39.8700 C.ar  361  PHE361     -0.0042
     75  CD2       57.5770   28.4950   37.7330 C.ar  361  PHE361     -0.0042
     76  CE1       58.9120   29.7360   39.8100 C.ar  361  PHE361     -0.0003
     77  CE2       57.8460   29.8510   37.6660 C.ar  361  PHE361     -0.0003
     78  CZ        58.5130   30.4720   38.7060 C.ar  361  PHE361     -0.0000
     79  N         58.3810   23.2280   39.7440 N.am  362  LYS362     -0.1963
     80  CA        57.9720   21.8120   39.7250 C.3   362  LYS362      0.1728
     81  C         56.4850   21.6590   40.0300 C.2   362  LYS362      0.2616
     82  O         56.0960   21.6240   41.1970 O.2   362  LYS362     -0.2715
     83  CB        58.8010   21.0010   40.7230 C.3   362  LYS362      0.0311
     84  CG        58.4090   19.5350   40.8080 C.3   362  LYS362      0.0038
     85  CD        59.3480   18.7650   41.7220 C.3   362  LYS362      0.0206
     86  CE        58.6640   17.5430   42.3130 C.3   362  LYS362      0.1093
     87  NZ        59.4650   16.3050   42.1090 N.3   362  LYS362     -0.1314
     88  N         55.6510   21.5750   38.9850 N.am  363  GLN363     -0.1963
     89  CA        54.1920   21.4980   39.1450 C.3   363  GLN363      0.1733
     90  C         53.9640   22.9050   39.6390 C.2   363  GLN363      0.2616
     91  O         54.0980   23.1650   40.8340 O.2   363  GLN363     -0.2715
     92  CB        53.8100   20.4790   40.2120 C.3   363  GLN363      0.0408
     93  CG        52.3700   19.9990   40.1240 C.3   363  GLN363      0.0908
     94  CD        52.1030   19.1850   38.8740 C.2   363  GLN363      0.2608
     95  OE1       52.3450   19.6430   37.7570 O.2   363  GLN363     -0.2717
     96  NE2       51.6000   17.9690   39.0560 N.am  363  GLN363     -0.0878
     97  N         53.6790   23.8450   38.7480 N.am  364  MET364     -0.1963
     98  CA        53.6440   25.2120   39.2740 C.3   364  MET364      0.1736
     99  C         52.1550   25.4290   39.4650 C.2   364  MET364      0.2616
    100  O         51.7540   26.2290   40.3110 O.2   364  MET364     -0.2715
    101  CB        54.0990   25.7970   37.9210 C.3   364  MET364      0.0427
    102  CG        53.4790   27.1410   37.6010 C.3   364  MET364      0.0599
    103  SD        53.8490   28.3590   38.8680 S.3   364  MET364     -0.1393
    104  CE        52.9920   29.7790   38.2130 C.3   364  MET364      0.0692
    105  N         51.3360   24.7280   38.6860 N.am  365  ASP365     -0.1971
    106  CA        49.8860   24.8710   38.7640 C.3   365  ASP365      0.1709
    107  C         49.3620   24.6080   40.1710 C.2   365  ASP365      0.2293
    108  O         48.4700   25.3090   40.6510 O.2   365  ASP365     -0.2864
    109  CB        49.2050   23.9260   37.7730 C.3   365  ASP365      0.1436
    110  CG        49.4960   24.2840   36.3300 C.2   365  ASP365      0.3671
    111  OD1       49.4640   25.4870   36.0000 O.co2 365  ASP365     -0.2456
    112  OD2       49.7580   23.3610   35.5290 O.co2 365  ASP365     -0.2456
    113  N         62.8700   23.7870   40.3400 N.3   479  LYS479     -0.1245
    114  CA        63.5770   22.5380   40.0570 C.3   479  LYS479      0.1561
    115  C         65.0590   22.6260   40.3930 C.2   479  LYS479      0.2260
    116  O         65.6960   23.6600   40.2000 O.2   479  LYS479     -0.2867
    117  CB        63.4020   22.1300   38.5920 C.3   479  LYS479      0.0271
    118  CG        62.3690   21.0320   38.3750 C.3   479  LYS479      0.0035
    119  CD        62.3400   20.5610   36.9260 C.3   479  LYS479      0.0206
    120  CE        61.8670   21.6600   35.9880 C.3   479  LYS479      0.1093
    121  NZ        60.4800   22.1100   36.2990 N.3   479  LYS479     -0.1314
    122  N         60.9700   30.0060   26.4460 N.3   504  LEU504     -0.1231
    123  CA        59.8750   29.5630   25.5850 C.3   504  LEU504      0.1693
    124  C         60.3290   28.4180   24.6830 C.2   504  LEU504      0.2592
    125  O         59.9370   28.3350   23.5190 O.2   504  LEU504     -0.2718
    126  CB        59.3300   30.7300   24.7560 C.3   504  LEU504      0.0284
    127  CG        58.5810   31.8070   25.5460 C.3   504  LEU504      0.0019
    128  CD1       58.0890   32.9220   24.6330 C.3   504  LEU504      0.0001
    129  CD2       57.4220   31.1960   26.3140 C.3   504  LEU504      0.0001
    130  N         61.1620   27.5410   25.2370 N.am  505  GLY505     -0.1957
    131  CA        61.6330   26.3630   24.5320 C.3   505  GLY505      0.1869
    132  C         62.5830   26.6470   23.3820 C.2   505  GLY505      0.2309
    133  O         62.8040   25.7850   22.5310 O.2   505  GLY505     -0.2863
    134  N         62.0000   16.8440   18.5870 N.3   531  MET531     -0.1245
    135  CA        60.7770   17.4570   18.0840 C.3   531  MET531      0.1570
    136  C         60.3010   16.7790   16.8060 C.2   531  MET531      0.2261
    137  O         59.1010   16.6690   16.5590 O.2   531  MET531     -0.2867
    138  CB        60.9850   18.9510   17.8370 C.3   531  MET531      0.0387
    139  CG        61.1590   19.7700   19.0980 C.3   531  MET531      0.0595
    140  SD        60.9150   21.5260   18.7870 S.3   531  MET531     -0.1393
    141  CE        59.2030   21.5330   18.2490 C.3   531  MET531      0.0692
    142  N         53.3640   14.8520   17.8180 N.3   536  ARG536     -0.1245
    143  CA        52.2830   14.8070   18.7960 C.3   536  ARG536      0.1563
    144  C         51.0180   14.2060   18.1880 C.2   536  ARG536      0.2260
    145  O         49.9000   14.5630   18.5610 O.2   536  ARG536     -0.2867
    146  CB        52.0050   16.2040   19.3550 C.3   536  ARG536      0.0307
    147  CG        52.5590   16.4160   20.7600 C.3   536  ARG536      0.0489
    148  CD        52.4080   17.8530   21.2340 C.3   536  ARG536      0.2205
    149  NE        53.2650   18.7660   20.4850 N.pl3 536  ARG536     -0.0865
    150  CZ        52.8280   19.6180   19.5630 C.cat 536  ARG536      0.5346
    151  NH1       51.5360   19.6810   19.2730 N.pl3 536  ARG536      0.1354
    152  NH2       53.6850   20.4070   18.9330 N.pl3 536  ARG536      0.1354
    153  N         54.1950   23.7070   14.5730 N.3   601  ALA601     -0.1231
    154  CA        53.8030   23.3030   15.9170 C.3   601  ALA601      0.1694
    155  C         53.8960   24.4550   16.9130 C.2   601  ALA601      0.2592
    156  O         53.0680   24.5700   17.8150 O.2   601  ALA601     -0.2718
    157  CB        54.6570   22.1360   16.3810 C.3   601  ALA601      0.0304
    158  N         54.9070   25.3020   16.7480 N.am  602  TYR602     -0.1962
    159  CA        55.1260   26.4180   17.6610 C.3   602  TYR602      0.1771
    160  C         53.9890   27.4230   17.5660 C.2   602  TYR602      0.2619
    161  O         53.5340   27.7540   16.4700 O.2   602  TYR602     -0.2715
    162  CB        56.4580   27.1030   17.3630 C.3   602  TYR602      0.0574
    163  CG        57.0710   27.7920   18.5580 C.ar  602  TYR602     -0.0198
    164  CD1       57.6770   27.0580   19.5680 C.ar  602  TYR602     -0.0009
    165  CD2       57.0530   29.1740   18.6750 C.ar  602  TYR602     -0.0009
    166  CE1       58.2440   27.6790   20.6610 C.ar  602  TYR602      0.0417
    167  CE2       57.6200   29.8040   19.7640 C.ar  602  TYR602      0.0417
    168  CZ        58.2110   29.0520   20.7550 C.ar  602  TYR602      0.1957
    169  OH        58.7770   29.6730   21.8420 O.3   602  TYR602     -0.2866
    170  N         53.5410   27.9120   18.7170 N.am  603  ALA603     -0.1963
    171  CA        52.3690   28.7730   18.7750 C.3   603  ALA603      0.1728
    172  C         52.7290   30.2420   18.9650 C.2   603  ALA603      0.2616
    173  O         51.8750   31.1170   18.8100 O.2   603  ALA603     -0.2715
    174  CB        51.4420   28.3150   19.8920 C.3   603  ALA603      0.0334
    175  N         53.9880   30.5130   19.3020 N.am  604  PHE604     -0.1974
    176  CA        54.3940   31.8720   19.6480 C.3   604  PHE604      0.1639
    177  C         55.2370   32.5240   18.5570 C.2   604  PHE604      0.2290
    178  O         56.0070   33.4410   18.8370 O.2   604  PHE604     -0.2864
    179  CB        55.1800   31.8950   20.9660 C.3   604  PHE604      0.0560
    180  CG        54.5960   31.0330   22.0540 C.ar  604  PHE604     -0.0200
    181  CD1       53.2250   30.8640   22.1830 C.ar  604  PHE604     -0.0042
    182  CD2       55.4320   30.3990   22.9570 C.ar  604  PHE604     -0.0042
    183  CE1       52.7020   30.0670   23.1820 C.ar  604  PHE604     -0.0003
    184  CE2       54.9170   29.6070   23.9630 C.ar  604  PHE604     -0.0003
    185  CZ        53.5490   29.4410   24.0770 C.ar  604  PHE604     -0.0000
@<TRIPOS>BOND
     1   153   154    1
     2   154   157    1
     3   154   155    1
     4   161   160    2
     5   137   136    2
     6   158   155   am
     7   158   159    1
     8   136   135    1
     9   155   156    2
    10   162   159    1
    11   162   163    1
    12   160   159    1
    13   160   170   am
    14   142   143    1
    15   138   135    1
    16   138   139    1
    17   135   134    1
    18   144   145    2
    19   144   143    1
    20   141   140    1
    21   177   178    2
    22   177   176    1
    23   163   165   ar
    24   163   164   ar
    25   165   167   ar
    26   170   171    1
    27   171   172    1
    28   171   174    1
    29   140   139    1
    30   143   146    1
    31   173   172    2
    32   152   150    1
    33   172   175   am
    34   151   150    1
    35   175   176    1
    36   146   147    1
    37   150   149    2
    38   164   166   ar
    39   176   179    1
    40   167   168   ar
    41   149   148    1
    42   166   168   ar
    43   168   169    1
    44   147   148    1
    45   179   180    1
    46   180   181   ar
    47   180   182   ar
    48   181   183   ar
    49   133   132    2
    50   182   184   ar
    51   183   185   ar
    52   132   131    1
    53   125   124    2
    54   184   185   ar
    55   131   130    1
    56   128   127    1
    57   124   130   am
    58   124   123    1
    59   126   127    1
    60   126   123    1
    61    43    42    1
    62   127   129    1
    63   123   122    1
    64    42    40   ar
    65    42    41   ar
    66    40    38   ar
    67    41    39   ar
    68    38    37   ar
    69    39    37   ar
    70    37    36    1
    71    59    57   ar
    72    36    33    1
    73    57    58   ar
    74    57    56    1
    75    56    53    1
    76    33    34    1
    77    33    32    1
    78    35    34    2
    79    28    27    1
    80    28    29    2
    81    31    29    1
    82    27    26    1
    83    29    30    1
    84    55    54    2
    85    53    54    1
    86    53    52    1
    87    50    49   ar
    88    24    23    2
    89    26    25    1
    90    25    22    1
    91    52    46   am
    92    66    65   ar
    93    51    49   ar
    94    21    22    1
    95    49    48    1
    96    23    22    1
    97    15    14    2
    98    44    45    1
    99    46    47    2
   100    46    45    1
   101    19    18    1
   102    19    20    1
   103    65    67   ar
   104    65    64    1
   105    45    48    1
   106    14    13    1
   107    18    17    1
   108    17    16    1
   109    16    13    1
   110    64    61    1
   111   112   110   ar
   112    13    12    1
   113   120   121    1
   114   120   119    1
   115   111   110   ar
   116    61    60    1
   117    61    62    1
   118   110   109    1
   119   119   118    1
   120     7     8    1
   121     7     6    1
   122     8     9    2
   123    62    68   am
   124    62    63    2
   125    68    69    1
   126    71    70    2
   127   102   101    1
   128   102   103    1
   129    77    75   ar
   130    77    78   ar
   131    75    73   ar
   132    95    94    2
   133   109   106    1
   134    10     9    1
   135     9    11    1
   136   101    98    1
   137   104   103    1
   138     6     5    1
   139   118   117    1
   140     5     2    1
   141   117   114    1
   142    70    69    1
   143    70    79   am
   144    69    72    1
   145   105   106    1
   146   105    99   am
   147    78    76   ar
   148    97    98    1
   149    97    90   am
   150   106   107    1
   151    73    72    1
   152    73    74   ar
   153    94    96   am
   154    94    93    1
   155    88    89    1
   156    88    81   am
   157    89    90    1
   158    89    92    1
   159    98    99    1
   160    99   100    2
   161    90    91    2
   162    80    79    1
   163    80    81    1
   164    80    83    1
   165     2     3    1
   166     2     1    1
   167    76    74   ar
   168     3     4    2
   169    81    82    2
   170   114   113    1
   171   114   115    1
   172    93    92    1
   173   107   108    2
   174   116   115    2
   175    83    84    1
   176    84    85    1
   177    85    86    1
   178    87    86    1
