@<TRIPOS>MOLECULE
tmp/5cyvB00.pdb
 122 115 0 0 0
SMALL
GASTEIGER

@<TRIPOS>ATOM
      1  N         82.8220  151.5070   73.1370 N.3     4  LEU4       -0.1245
      2  CA        84.2120  151.6280   73.6310 C.3     4  LEU4        0.1561
      3  C         85.1930  150.8400   72.7220 C.2     4  LEU4        0.2260
      4  O         86.2670  151.2880   72.3850 O.2     4  LEU4       -0.2867
      5  CB        84.3300  151.1250   75.0980 C.3     4  LEU4        0.0270
      6  CG        85.7470  151.2050   75.6800 C.3     4  LEU4        0.0019
      7  CD1       86.0890  152.6620   75.7940 C.3     4  LEU4        0.0001
      8  CD2       85.8000  150.4780   77.0220 C.3     4  LEU4        0.0001
      9  N         86.6200  152.7000   69.9010 N.3     7  ASP7       -0.1239
     10  CA        87.3750  153.9000   70.1990 C.3     7  ASP7        0.1674
     11  C         88.8620  153.5860   69.9050 C.2     7  ASP7        0.2266
     12  O         89.4290  152.7480   70.5360 O.2     7  ASP7       -0.2867
     13  CB        87.0990  154.2750   71.6890 C.3     7  ASP7        0.1410
     14  CG        88.0200  155.3730   72.2650 C.2     7  ASP7        0.3668
     15  OD1       89.0480  155.7390   71.6660 O.co2   7  ASP7       -0.2456
     16  OD2       87.7470  155.8190   73.4120 O.co2   7  ASP7       -0.2456
     17  N         91.4780  155.1770   70.5930 N.3     9  GLY9       -0.1210
     18  CA        92.3880  155.4780   71.7160 C.3     9  GLY9        0.1956
     19  C         92.3210  154.3240   72.6870 C.2     9  GLY9        0.2611
     20  O         93.3270  153.8360   73.1810 O.2     9  GLY9       -0.2717
     21  N         91.1240  153.8590   72.9770 N.am   10  PHE10      -0.1976
     22  CA        90.9750  152.6910   73.8340 C.3    10  PHE10       0.1639
     23  C         91.7320  151.5150   73.2580 C.2    10  PHE10       0.2290
     24  O         92.4290  150.7820   74.0010 O.2    10  PHE10      -0.2864
     25  CB        89.4640  152.2960   74.0080 C.3    10  PHE10       0.0560
     26  CG        89.2610  150.8980   74.5900 C.ar   10  PHE10      -0.0200
     27  CD1       89.4270  150.7060   75.9850 C.ar   10  PHE10      -0.0042
     28  CD2       88.9400  149.8190   73.7920 C.ar   10  PHE10      -0.0042
     29  CE1       89.2430  149.4180   76.5340 C.ar   10  PHE10      -0.0003
     30  CE2       88.7640  148.5400   74.3140 C.ar   10  PHE10      -0.0003
     31  CZ        88.9240  148.3490   75.7240 C.ar   10  PHE10      -0.0000
     32  N         95.5100  151.8370   73.7600 N.3    13  SER13      -0.1202
     33  CA        95.9270  151.5900   75.1410 C.3    13  SER13       0.2020
     34  C         95.7040  150.1080   75.4780 C.2    13  SER13       0.2618
     35  O         96.5030  149.5350   76.2530 O.2    13  SER13      -0.2717
     36  CB        95.1350  152.5070   76.1030 C.3    13  SER13       0.2103
     37  OG        95.4970  153.8840   75.8810 O.3    13  SER13      -0.2182
     38  N         94.6110  149.5170   74.9930 N.am   14  ARG14      -0.1979
     39  CA        94.3260  148.1280   75.2720 C.3    14  ARG14       0.1597
     40  C         95.4060  147.2000   74.7100 C.2    14  ARG14       0.2287
     41  O         96.0250  146.4290   75.4490 O.2    14  ARG14      -0.2864
     42  CB        92.9410  147.7680   74.6820 C.3    14  ARG14       0.0334
     43  CG        92.5540  146.3330   74.9010 C.3    14  ARG14       0.0492
     44  CD        92.0540  146.0840   76.3380 C.3    14  ARG14       0.2205
     45  NE        91.2360  144.8760   76.3260 N.pl3  14  ARG14      -0.0865
     46  CZ        91.7300  143.6400   76.2590 C.cat  14  ARG14       0.5346
     47  NH1       90.9390  142.5840   76.1980 N.pl3  14  ARG14       0.1354
     48  NH2       93.0430  143.4460   76.2230 N.pl3  14  ARG14       0.1354
     49  N         98.4080  148.1820   73.5200 N.3    16  GLY16      -0.1210
     50  CA        99.6830  148.5720   74.1310 C.3    16  GLY16       0.1956
     51  C         99.9110  147.9380   75.5050 C.2    16  GLY16       0.2612
     52  O        101.0340  147.5170   75.8180 O.2    16  GLY16      -0.2717
     53  N         98.8170  147.8600   76.2640 N.am   17  GLY17      -0.1942
     54  CA        98.9560  147.2600   77.5880 C.3    17  GLY17       0.2014
     55  C         99.1650  145.7730   77.5340 C.2    17  GLY17       0.2638
     56  O         99.8770  145.2300   78.4110 O.2    17  GLY17      -0.2714
     57  N         98.5190  145.1110   76.5660 N.am   18  MET18      -0.1976
     58  CA        98.7990  143.6820   76.3470 C.3    18  MET18       0.1605
     59  C        100.2760  143.4590   76.0730 C.2    18  MET18       0.2287
     60  O        100.9210  142.5370   76.6430 O.2    18  MET18      -0.2864
     61  CB        97.9920  143.1250   75.1620 C.3    18  MET18       0.0413
     62  CG        96.5220  143.1370   75.4240 C.3    18  MET18       0.0598
     63  SD        95.5310  142.8420   73.8930 S.3    18  MET18      -0.1393
     64  CE        96.0070  141.1600   73.5470 C.3    18  MET18       0.0692
     65  N        102.8260  145.4770   76.8360 N.3    20  LEU20      -0.1231
     66  CA       103.6460  145.7370   78.0330 C.3    20  LEU20       0.1693
     67  C        103.6480  144.5710   79.0260 C.2    20  LEU20       0.2592
     68  O        104.6890  144.1820   79.5310 O.2    20  LEU20      -0.2718
     69  CB       103.1460  147.0330   78.7310 C.3    20  LEU20       0.0284
     70  CG       103.4400  148.3250   77.9600 C.3    20  LEU20       0.0019
     71  CD1      102.6400  149.4590   78.4520 C.3    20  LEU20       0.0001
     72  CD2      104.9200  148.7490   78.0300 C.3    20  LEU20       0.0001
     73  N        102.4940  144.0150   79.2970 N.am   21  GLY21      -0.1957
     74  CA       102.4220  142.9450   80.2810 C.3    21  GLY21       0.1869
     75  C        103.1310  141.7040   79.7430 C.2    21  GLY21       0.2309
     76  O        103.8230  141.0270   80.5000 O.2    21  GLY21      -0.2863
     77  N        106.9120  142.3420   80.1110 N.3    24  ASN24      -0.1225
     78  CA       107.4220  142.1480   81.4790 C.3    24  ASN24       0.1785
     79  C        107.4840  140.6510   81.8240 C.2    24  ASN24       0.2597
     80  O        108.4430  140.2020   82.4740 O.2    24  ASN24      -0.2718
     81  CB       106.5260  142.9040   82.4670 C.3    24  ASN24       0.1169
     82  CG       106.8250  144.3960   82.5250 C.2    24  ASN24       0.2627
     83  OD1      107.9700  144.8150   82.3090 O.2    24  ASN24      -0.2716
     84  ND2      105.8030  145.2040   82.8180 N.am   24  ASN24      -0.0877
     85  N        106.4570  139.8750   81.4460 N.am   25  LYS25      -0.1980
     86  CA       106.4780  138.4570   81.7700 C.3    25  LYS25       0.1596
     87  C        107.6010  137.7600   80.9960 C.2    25  LYS25       0.2287
     88  O        108.3120  136.9290   81.5870 O.2    25  LYS25      -0.2864
     89  CB       105.1250  137.8160   81.4460 C.3    25  LYS25       0.0298
     90  CG       104.0010  138.2630   82.4170 C.3    25  LYS25       0.0038
     91  CD       102.6680  137.6200   82.0480 C.3    25  LYS25       0.0206
     92  CE       101.5550  138.1440   82.9510 C.3    25  LYS25       0.1093
     93  NZ       101.3950  139.6410   82.8790 N.3    25  LYS25      -0.1314
     94  N        112.8320  144.7070   83.1950 N.3    33  ARG33      -0.1231
     95  CA       111.4440  145.0780   82.9960 C.3    33  ARG33       0.1694
     96  C        111.3800  145.9930   81.7590 C.2    33  ARG33       0.2592
     97  O        112.3710  146.2640   81.1920 O.2    33  ARG33      -0.2718
     98  CB       110.7880  145.6900   84.2180 C.3    33  ARG33       0.0321
     99  CG       110.3680  144.6610   85.2400 C.3    33  ARG33       0.0489
    100  CD       109.9540  145.2640   86.5520 C.3    33  ARG33       0.2205
    101  NE       108.9140  146.2470   86.4490 N.pl3  33  ARG33      -0.0865
    102  CZ       107.6530  145.9860   86.2410 C.cat  33  ARG33       0.5346
    103  NH1      107.2370  144.7590   86.1200 N.pl3  33  ARG33       0.1354
    104  NH2      106.8030  146.9780   86.1930 N.pl3  33  ARG33       0.1354
    105  N        110.1970  146.4240   81.3760 N.am   34  VAL34      -0.1966
    106  CA       110.0880  147.1410   80.1120 C.3    34  VAL34       0.1727
    107  C        111.0760  148.3240   80.0020 C.2    34  VAL34       0.2616
    108  O        111.7730  148.4720   78.9910 O.2    34  VAL34      -0.2715
    109  CB       108.6570  147.6440   79.8820 C.3    34  VAL34       0.0290
    110  CG1      108.0740  148.2210   81.1040 C.3    34  VAL34       0.0023
    111  CG2      108.6250  148.6650   78.7280 C.3    34  VAL34       0.0023
    112  N        111.1410  149.1430   81.0560 N.am   35  ARG35      -0.1977
    113  CA       112.0180  150.3380   80.9200 C.3    35  ARG35       0.1597
    114  C        113.5180  150.0250   80.9770 C.2    35  ARG35       0.2287
    115  O        114.2650  150.5730   80.1530 O.2    35  ARG35      -0.2864
    116  CB       111.6900  151.3800   82.0020 C.3    35  ARG35       0.0334
    117  CG       110.3030  152.0130   81.8190 C.3    35  ARG35       0.0492
    118  CD       110.1710  153.1870   82.7720 C.3    35  ARG35       0.2205
    119  NE       108.8310  153.8160   82.6260 N.pl3  35  ARG35      -0.0865
    120  CZ       108.4920  154.9760   83.1440 C.cat  35  ARG35       0.5346
    121  NH1      107.2300  155.4340   82.9950 N.pl3  35  ARG35       0.1354
    122  NH2      109.3990  155.7390   83.8350 N.pl3  35  ARG35       0.1354
@<TRIPOS>BOND
     1     9    10    1
     2    11    10    1
     3    11    12    2
     4    10    13    1
     5    17    18    1
     6    15    14   ar
     7    13    14    1
     8    18    19    1
     9    14    16   ar
    10     4     3    2
    11    19    21   am
    12    19    20    2
    13     3     2    1
    14    21    22    1
    15     1     2    1
    16    23    22    1
    17    23    24    2
    18    49    50    1
    19    64    63    1
    20     2     5    1
    21    32    33    1
    22    28    30   ar
    23    28    26   ar
    24    22    25    1
    25    63    62    1
    26    25    26    1
    27    50    51    1
    28    30    31   ar
    29    26    27   ar
    30    42    43    1
    31    42    39    1
    32    40    39    1
    33    40    41    2
    34    43    44    1
    35    38    39    1
    36    38    34   am
    37     5     6    1
    38    33    34    1
    39    33    36    1
    40    61    62    1
    41    61    58    1
    42    34    35    2
    43    51    52    2
    44    51    53   am
    45     6     7    1
    46     6     8    1
    47    31    29   ar
    48    37    36    1
    49    27    29   ar
    50    59    58    1
    51    59    60    2
    52    47    46    1
    53    48    46    1
    54    46    45    2
    55    53    54    1
    56    45    44    1
    57    58    57    1
    58    57    55   am
    59    65    66    1
    60    55    54    1
    61    55    56    2
    62    70    72    1
    63    70    71    1
    64    70    69    1
    65    66    69    1
    66    66    67    1
    67   111   109    1
    68   108   107    2
    69    67    73   am
    70    67    68    2
    71    73    74    1
    72    75    74    1
    73    75    76    2
    74   109   106    1
    75   109   110    1
    76   107   106    1
    77   107   112   am
    78    77    78    1
    79   106   105    1
    80   115   114    2
    81   113   114    1
    82   113   112    1
    83   113   116    1
    84    87    88    2
    85    87    86    1
    86    97    96    2
    87   105    96   am
    88    89    86    1
    89    89    90    1
    90    85    86    1
    91    85    79   am
    92    78    79    1
    93    78    81    1
    94    96    95    1
    95   117   116    1
    96   117   118    1
    97    79    80    2
    98    91    90    1
    99    91    92    1
   100    83    82    2
   101    81    82    1
   102    82    84   am
   103   119   118    1
   104   119   120    2
   105    93    92    1
   106   121   120    1
   107    95    94    1
   108    95    98    1
   109   120   122    1
   110    98    99    1
   111    99   100    1
   112   103   102    1
   113   104   102    1
   114   102   101    2
   115   101   100    1
