@<TRIPOS>MOLECULE
tmp/5cyvB01.pdb
 104 98 0 0 0
SMALL
GASTEIGER

@<TRIPOS>ATOM
      1  N        100.8220  144.3100   75.2280 N.3    19  VAL19      -0.1231
      2  CA       102.2330  144.1470   74.8600 C.3    19  VAL19       0.1692
      3  C        103.1000  144.3970   76.0830 C.2    19  VAL19       0.2591
      4  O        104.0030  143.5810   76.3550 O.2    19  VAL19      -0.2718
      5  CB       102.6090  145.0950   73.7280 C.3    19  VAL19       0.0266
      6  CG1      104.1580  145.0160   73.4860 C.3    19  VAL19       0.0020
      7  CG2      101.8990  144.6800   72.4320 C.3    19  VAL19       0.0020
      8  N        102.8260  145.4770   76.8360 N.am   20  LEU20      -0.1980
      9  CA       103.6460  145.7370   78.0330 C.3    20  LEU20       0.1596
     10  C        103.6480  144.5710   79.0260 C.2    20  LEU20       0.2287
     11  O        104.6890  144.1820   79.5310 O.2    20  LEU20      -0.2864
     12  CB       103.1460  147.0330   78.7310 C.3    20  LEU20       0.0297
     13  CG       103.4400  148.3250   77.9600 C.3    20  LEU20       0.0022
     14  CD1      102.6400  149.4590   78.4520 C.3    20  LEU20       0.0001
     15  CD2      104.9200  148.7490   78.0300 C.3    20  LEU20       0.0001
     16  N        105.6420  141.6190   77.6270 N.3    23  VAL23      -0.1245
     17  CA       107.0690  141.8710   77.6710 C.3    23  VAL23       0.1561
     18  C        107.5960  141.7580   79.0990 C.2    23  VAL23       0.2260
     19  O        108.6170  141.0890   79.2930 O.2    23  VAL23      -0.2867
     20  CB       107.4010  143.2660   77.1150 C.3    23  VAL23       0.0252
     21  CG1      108.8790  143.6380   77.3920 C.3    23  VAL23       0.0019
     22  CG2      106.9970  143.3150   75.6400 C.3    23  VAL23       0.0019
     23  N        110.1970  146.4240   81.3760 N.3    34  VAL34      -0.1231
     24  CA       110.0880  147.1410   80.1120 C.3    34  VAL34       0.1692
     25  C        111.0760  148.3240   80.0020 C.2    34  VAL34       0.2591
     26  O        111.7730  148.4720   78.9910 O.2    34  VAL34      -0.2718
     27  CB       108.6570  147.6440   79.8820 C.3    34  VAL34       0.0266
     28  CG1      108.0740  148.2210   81.1040 C.3    34  VAL34       0.0020
     29  CG2      108.6250  148.6650   78.7280 C.3    34  VAL34       0.0020
     30  N        111.1410  149.1430   81.0560 N.am   35  ARG35      -0.1980
     31  CA       112.0180  150.3380   80.9200 C.3    35  ARG35       0.1597
     32  C        113.5180  150.0250   80.9770 C.2    35  ARG35       0.2287
     33  O        114.2650  150.5730   80.1530 O.2    35  ARG35      -0.2864
     34  CB       111.6900  151.3800   82.0020 C.3    35  ARG35       0.0334
     35  CG       110.3030  152.0130   81.8190 C.3    35  ARG35       0.0492
     36  CD       110.1710  153.1870   82.7720 C.3    35  ARG35       0.2205
     37  NE       108.8310  153.8160   82.6260 N.pl3  35  ARG35      -0.0865
     38  CZ       108.4920  154.9760   83.1440 C.cat  35  ARG35       0.5346
     39  NH1      107.2300  155.4340   82.9950 N.pl3  35  ARG35       0.1354
     40  NH2      109.3990  155.7390   83.8350 N.pl3  35  ARG35       0.1354
     41  N        114.9340  147.1950   80.1610 N.3    37  TYR37      -0.1227
     42  CA       115.2050  146.6030   78.8730 C.3    37  TYR37       0.1736
     43  C        115.3440  147.6050   77.7610 C.2    37  TYR37       0.2596
     44  O        116.2860  147.5070   76.9440 O.2    37  TYR37      -0.2718
     45  CB       114.0710  145.5800   78.5460 C.3    37  TYR37       0.0548
     46  CG       114.0680  145.0550   77.1510 C.ar   37  TYR37      -0.0200
     47  CD1      114.9640  144.0950   76.7440 C.ar   37  TYR37      -0.0009
     48  CD2      113.1100  145.5400   76.2120 C.ar   37  TYR37      -0.0009
     49  CE1      114.9650  143.6070   75.4380 C.ar   37  TYR37       0.0417
     50  CE2      113.0810  145.0320   74.9240 C.ar   37  TYR37       0.0417
     51  CZ       114.0080  144.0540   74.5440 C.ar   37  TYR37       0.1957
     52  OH       114.0400  143.6110   73.2510 O.3    37  TYR37      -0.2866
     53  N        114.4470  148.5810   77.7030 N.am   38  SER38      -0.1952
     54  CA       114.5280  149.5750   76.6290 C.3    38  SER38       0.1924
     55  C        115.8600  150.3390   76.6830 C.2    38  SER38       0.2314
     56  O        116.4600  150.5710   75.6340 O.2    38  SER38      -0.2863
     57  CB       113.3840  150.5890   76.7440 C.3    38  SER38       0.2116
     58  OG       112.1070  149.9230   76.6210 O.3    38  SER38      -0.2180
     59  N        112.0680  157.0660   74.5460 N.3    59  MET59      -0.1230
     60  CA       111.1020  156.4660   75.4710 C.3    59  MET59       0.1702
     61  C        109.9710  157.4110   75.8270 C.2    59  MET59       0.2593
     62  O        109.0530  156.9960   76.5350 O.2    59  MET59      -0.2718
     63  CB       111.8330  155.9950   76.7450 C.3    59  MET59       0.0401
     64  CG       112.7830  154.8610   76.4070 C.3    59  MET59       0.0596
     65  SD       113.7460  154.2950   77.8170 S.3    59  MET59      -0.1393
     66  CE       112.4330  153.5440   78.9010 C.3    59  MET59       0.0692
     67  N        109.9990  158.6660   75.3810 N.am   60  GLY60      -0.1942
     68  CA       108.9900  159.6680   75.7560 C.3    60  GLY60       0.2014
     69  C        109.0340  160.0620   77.2140 C.2    60  GLY60       0.2638
     70  O        108.0070  160.4800   77.7450 O.2    60  GLY60      -0.2714
     71  N        110.2210  160.0290   77.8310 N.am   61  LEU61      -0.1977
     72  CA       110.3600  160.3120   79.2780 C.3    61  LEU61       0.1596
     73  C        111.2280  161.5190   79.4710 C.2    61  LEU61       0.2287
     74  O        112.0010  161.8730   78.5900 O.2    61  LEU61      -0.2864
     75  CB       110.9600  159.1280   80.0360 C.3    61  LEU61       0.0297
     76  CG       110.0820  157.8780   79.9900 C.3    61  LEU61       0.0022
     77  CD1      110.8330  156.7460   80.4880 C.3    61  LEU61       0.0001
     78  CD2      108.7820  158.1050   80.8380 C.3    61  LEU61       0.0001
     79  N        114.1200  160.7110   84.5570 N.3    65  GLN65      -0.1245
     80  CA       113.5190  159.3960   84.8100 C.3    65  GLN65       0.1566
     81  C        114.3850  158.2660   84.3070 C.2    65  GLN65       0.2260
     82  O        114.1660  157.1180   84.6050 O.2    65  GLN65      -0.2867
     83  CB       112.1440  159.3370   84.1780 C.3    65  GLN65       0.0367
     84  CG       111.2600  160.3730   84.7920 C.3    65  GLN65       0.0905
     85  CD       110.0020  160.5480   84.0050 C.2    65  GLN65       0.2608
     86  OE1      110.0250  161.0720   82.9060 O.2    65  GLN65      -0.2717
     87  NE2      108.8810  160.0940   84.5700 N.am   65  GLN65      -0.0878
     88  N        111.6420  138.7670   73.9900 N.3   110  VAL110     -0.1245
     89  CA       110.6580  139.7850   73.6670 C.3   110  VAL110      0.1561
     90  C        110.1400  139.6480   72.2150 C.2   110  VAL110      0.2260
     91  O        108.9250  139.6810   72.0180 O.2   110  VAL110     -0.2867
     92  CB       111.2820  141.1860   73.9280 C.3   110  VAL110      0.0252
     93  CG1      110.4010  142.2400   73.3540 C.3   110  VAL110      0.0019
     94  CG2      111.5160  141.3850   75.4490 C.3   110  VAL110      0.0019
     95  N        106.2770  139.0290   71.2740 N.3   114  HIS114     -0.1241
     96  CA       105.5100  139.9030   70.3440 C.3   114  HIS114      0.1621
     97  C        104.8030  139.0630   69.2970 C.2   114  HIS114      0.2264
     98  O        103.7240  139.4540   68.7810 O.2   114  HIS114     -0.2867
     99  CB       106.4200  140.9320   69.6050 C.3   114  HIS114      0.0745
    100  CG       106.8990  142.0610   70.4620 C.ar  114  HIS114      0.0817
    101  ND1      107.6310  143.1250   69.9710 N.ar  114  HIS114     -0.2268
    102  CD2      106.7230  142.3100   71.7860 C.ar  114  HIS114      0.1154
    103  CE1      107.9140  143.9650   70.9600 C.ar  114  HIS114      0.1986
    104  NE2      107.4070  143.4670   72.0760 N.ar  114  HIS114     -0.2212
@<TRIPOS>BOND
     1    98    97    2
     2    97    96    1
     3    99    96    1
     4    99   100    1
     5   101   100   ar
     6   101   103   ar
     7    96    95    1
     8   100   102   ar
     9   103   104   ar
    10   102   104   ar
    11    91    90    2
    12    90    89    1
    13     7     5    1
    14    52    51    1
    15    93    92    1
    16     6     5    1
    17    89    92    1
    18    89    88    1
    19     5     2    1
    20    92    94    1
    21    51    50   ar
    22    51    49   ar
    23    59    60    1
    24     2     1    1
    25     2     3    1
    26    50    48   ar
    27    67    68    1
    28    67    61   am
    29    49    47   ar
    30    60    61    1
    31    60    63    1
    32    56    55    2
    33    22    20    1
    34    68    69    1
    35    61    62    2
    36     3     4    2
    37     3     8   am
    38    48    46   ar
    39    64    63    1
    40    64    65    1
    41    58    57    1
    42    54    55    1
    43    54    57    1
    44    54    53    1
    45    47    46   ar
    46     8     9    1
    47    44    43    2
    48    20    21    1
    49    20    17    1
    50    46    45    1
    51    69    70    2
    52    69    71   am
    53    16    17    1
    54    17    18    1
    55    53    43   am
    56    43    42    1
    57    65    66    1
    58    71    72    1
    59    13    15    1
    60    13    14    1
    61    13    12    1
    62     9    12    1
    63     9    10    1
    64    45    42    1
    65    74    73    2
    66    29    27    1
    67    42    41    1
    68    26    25    2
    69    10    11    2
    70    18    19    2
    71    72    73    1
    72    72    75    1
    73    27    24    1
    74    27    28    1
    75    76    75    1
    76    76    77    1
    77    76    78    1
    78    25    24    1
    79    25    30   am
    80    24    23    1
    81    33    32    2
    82    31    32    1
    83    31    30    1
    84    31    34    1
    85    35    34    1
    86    35    36    1
    87    37    36    1
    88    37    38    2
    89    86    85    2
    90    39    38    1
    91    38    40    1
    92    85    87   am
    93    85    84    1
    94    83    84    1
    95    83    80    1
    96    81    82    2
    97    81    80    1
    98    79    80    1
