@<TRIPOS>MOLECULE
tmp/5czbA01.pdb
 89 86 0 0 0
SMALL
GASTEIGER

@<TRIPOS>ATOM
      1  N        -37.2170   25.7490    4.1280 N.3    83  LEU83      -0.1231
      2  CA       -36.8880   26.1130    5.5260 C.3    83  LEU83       0.1693
      3  C        -37.8230   25.3760    6.4460 C.2    83  LEU83       0.2592
      4  O        -39.0100   25.2790    6.1510 O.2    83  LEU83      -0.2718
      5  CB       -37.0490   27.6180    5.7850 C.3    83  LEU83       0.0284
      6  CG       -35.8550   28.5080    5.5000 C.3    83  LEU83       0.0019
      7  CD1      -36.2690   29.9770    5.5920 C.3    83  LEU83       0.0001
      8  CD2      -34.7100   28.2100    6.4430 C.3    83  LEU83       0.0001
      9  N        -37.2960   24.8360    7.5430 N.am   84  LEU84      -0.1966
     10  CA       -38.1540   24.3500    8.5990 C.3    84  LEU84       0.1728
     11  C        -38.5250   25.5290    9.5040 C.2    84  LEU84       0.2617
     12  O        -37.7150   26.3880    9.7630 O.2    84  LEU84      -0.2715
     13  CB       -37.4960   23.2010    9.3690 C.3    84  LEU84       0.0311
     14  CG       -37.8950   21.7780    8.9770 C.3    84  LEU84       0.0022
     15  CD1      -37.6760   21.4490    7.5160 C.3    84  LEU84       0.0001
     16  CD2      -37.1530   20.8030    9.8840 C.3    84  LEU84       0.0001
     17  N        -39.7670   25.5680    9.9660 N.am   85  SER85      -0.1936
     18  CA       -40.1520   26.4980   11.0110 C.3    85  SER85       0.2055
     19  C        -39.4590   26.1320   12.3020 C.2    85  SER85       0.2642
     20  O        -39.0550   24.9760   12.5250 O.2    85  SER85      -0.2714
     21  CB       -41.6490   26.4350   11.2550 C.3    85  SER85       0.2130
     22  OG       -41.9630   25.2020   11.8320 O.3    85  SER85      -0.2179
     23  N        -39.3620   27.1130   13.1820 N.am   86  ILE86      -0.1977
     24  CA       -38.8950   26.8560   14.5440 C.3    86  ILE86       0.1596
     25  C        -39.5690   25.6500   15.2460 C.2    86  ILE86       0.2287
     26  O        -38.8790   24.8200   15.8450 O.2    86  ILE86      -0.2864
     27  CB       -38.9440   28.1430   15.3780 C.3    86  ILE86       0.0276
     28  CG1      -38.4180   27.8840   16.7870 C.3    86  ILE86       0.0022
     29  CG2      -40.3520   28.7410   15.3970 C.3    86  ILE86       0.0022
     30  CD1      -37.9010   29.1490   17.4420 C.3    86  ILE86       0.0001
     31  N        -32.8820   30.5790   20.2170 N.3   120  ILE120     -0.1231
     32  CA       -32.8690   30.0530   18.8530 C.3   120  ILE120      0.1692
     33  C        -32.9840   31.1940   17.8070 C.2   120  ILE120      0.2591
     34  O        -32.2150   31.2230   16.8400 O.2   120  ILE120     -0.2718
     35  CB       -33.9780   28.9840   18.6580 C.3   120  ILE120      0.0266
     36  CG1      -33.6330   27.7070   19.4620 C.3   120  ILE120      0.0019
     37  CG2      -34.1630   28.6010   17.1910 C.3   120  ILE120      0.0020
     38  CD1      -34.8620   26.9900   19.9480 C.3   120  ILE120      0.0001
     39  N        -33.9280   32.1070   18.0190 N.am  121  ARG121     -0.1980
     40  CA       -34.0820   33.2820   17.1310 C.3   121  ARG121      0.1597
     41  C        -32.8480   34.1670   17.1020 C.2   121  ARG121      0.2287
     42  O        -32.4130   34.5730   16.0230 O.2   121  ARG121     -0.2864
     43  CB       -35.3290   34.0900   17.4510 C.3   121  ARG121      0.0334
     44  CG       -36.6020   33.3260   17.1480 C.3   121  ARG121      0.0492
     45  CD       -37.8600   34.0760   17.5670 C.3   121  ARG121      0.2205
     46  NE       -39.0500   33.3530   17.1000 N.pl3 121  ARG121     -0.0865
     47  CZ       -40.2770   33.4320   17.6210 C.cat 121  ARG121      0.5346
     48  NH1      -40.5430   34.2160   18.6680 N.pl3 121  ARG121      0.1354
     49  NH2      -41.2600   32.6990   17.0840 N.pl3 121  ARG121      0.1354
     50  N        -30.2470   32.3590   14.9810 N.3   124  TRP124     -0.1227
     51  CA       -30.6120   32.4410   13.5610 C.3   124  TRP124      0.1737
     52  C        -30.2170   33.8100   13.0000 C.2   124  TRP124      0.2595
     53  O        -29.4970   33.8970   12.0140 O.2   124  TRP124     -0.2718
     54  CB       -32.1040   32.1890   13.3250 C.3   124  TRP124      0.0564
     55  CG       -32.4920   32.1250   11.8380 C.ar  124  TRP124      0.0003
     56  CD1      -33.0800   33.1190   11.1000 C.ar  124  TRP124      0.0946
     57  CD2      -32.2740   31.0370   10.9260 C.ar  124  TRP124      0.0152
     58  NE1      -33.2390   32.7170    9.7970 N.ar  124  TRP124     -0.2442
     59  CE2      -32.7590   31.4400    9.6670 C.ar  124  TRP124      0.0810
     60  CE3      -31.7050   29.7660   11.0510 C.ar  124  TRP124      0.0012
     61  CZ2      -32.7160   30.6090    8.5460 C.ar  124  TRP124      0.0191
     62  CZ3      -31.6470   28.9450    9.9310 C.ar  124  TRP124      0.0001
     63  CH2      -32.1560   29.3650    8.6990 C.ar  124  TRP124      0.0015
     64  N        -30.6490   34.8680   13.6810 N.am  125  GLU125     -0.1979
     65  CA       -30.2780   36.2460   13.3020 C.3   125  GLU125      0.1602
     66  C        -28.7680   36.4210   13.2300 C.2   125  GLU125      0.2287
     67  O        -28.2580   36.9830   12.2770 O.2   125  GLU125     -0.2864
     68  CB       -30.9130   37.2840   14.2460 C.3   125  GLU125      0.0415
     69  CG       -32.3810   37.6000   13.9350 C.3   125  GLU125      0.1163
     70  CD       -32.7220   37.8450   12.4410 C.2   125  GLU125      0.3649
     71  OE1      -32.1230   38.7740   11.8160 O.co2 125  GLU125     -0.2457
     72  OE2      -33.6080   37.1050   11.9080 O.co2 125  GLU125     -0.2457
     73  N        -33.3770   23.9720   10.8520 N.3   171  MET171     -0.1245
     74  CA       -34.1340   24.9360   10.0370 C.3   171  MET171      0.1570
     75  C        -33.5070   25.1750    8.6510 C.2   171  MET171      0.2261
     76  O        -34.2160   25.0490    7.6370 O.2   171  MET171     -0.2867
     77  CB       -34.3490   26.2570   10.7860 C.3   171  MET171      0.0387
     78  CG       -35.2090   26.1100   12.0600 C.3   171  MET171      0.0595
     79  SD       -35.7240   27.6910   12.7960 S.3   171  MET171     -0.1393
     80  CE       -34.1480   28.2640   13.3670 C.3   171  MET171      0.0692
     81  N        -32.7840   33.2580    3.2130 N.3   246  GLU246     -0.1245
     82  CA       -32.2120   33.0850    4.5720 C.3   246  GLU246      0.1567
     83  C        -31.5390   31.7150    4.7260 C.2   246  GLU246      0.2260
     84  O        -30.5110   31.5940    5.4060 O.2   246  GLU246     -0.2867
     85  CB       -33.2560   33.3220    5.6630 C.3   246  GLU246      0.0388
     86  CG       -33.5860   34.8100    5.7860 C.3   246  GLU246      0.1160
     87  CD       -34.4200   35.1880    6.9680 C.2   246  GLU246      0.3649
     88  OE1      -34.6550   34.3460    7.8660 O.co2 246  GLU246     -0.2457
     89  OE2      -34.8330   36.3710    6.9960 O.co2 246  GLU246     -0.2457
@<TRIPOS>BOND
     1    81    82    1
     2     1     2    1
     3    82    83    1
     4    82    85    1
     5    83    84    2
     6     6     7    1
     7     6     5    1
     8     6     8    1
     9     2     5    1
    10     2     3    1
    11    85    86    1
    12    86    87    1
    13     4     3    2
    14     3     9   am
    15    87    89   ar
    16    87    88   ar
    17    15    14    1
    18     9    10    1
    19    76    75    2
    20    61    63   ar
    21    61    59   ar
    22    10    13    1
    23    10    11    1
    24    75    74    1
    25    63    62   ar
    26    14    13    1
    27    14    16    1
    28    11    12    2
    29    11    17   am
    30    59    58   ar
    31    59    57   ar
    32    58    56   ar
    33    62    60   ar
    34    17    18    1
    35    74    77    1
    36    74    73    1
    37    77    78    1
    38    57    60   ar
    39    57    55   ar
    40    18    21    1
    41    18    19    1
    42    56    55   ar
    43    21    22    1
    44    71    70   ar
    45    55    54    1
    46    72    70   ar
    47    53    52    2
    48    78    79    1
    49    67    66    2
    50    19    20    2
    51    19    23   am
    52    70    69    1
    53    79    80    1
    54    52    51    1
    55    52    64   am
    56    23    24    1
    57    66    65    1
    58    65    64    1
    59    65    68    1
    60    54    51    1
    61    51    50    1
    62    69    68    1
    63    24    25    1
    64    24    27    1
    65    25    26    2
    66    27    29    1
    67    27    28    1
    68    42    41    2
    69    28    30    1
    70    34    33    2
    71    49    47    1
    72    46    45    1
    73    46    47    2
    74    41    40    1
    75    40    43    1
    76    40    39    1
    77    44    43    1
    78    44    45    1
    79    37    35    1
    80    47    48    1
    81    33    39   am
    82    33    32    1
    83    35    32    1
    84    35    36    1
    85    32    31    1
    86    36    38    1
