@<TRIPOS>MOLECULE
tmp/5czbA04.pdb
 73 68 0 0 0
SMALL
GASTEIGER

@<TRIPOS>ATOM
      1  N        -33.5250   14.1260   25.3630 N.3    96  HIS96      -0.1226
      2  CA       -32.3170   14.1320   26.2140 C.3    96  HIS96       0.1752
      3  C        -31.1100   14.7750   25.5600 C.2    96  HIS96       0.2597
      4  O        -29.9830   14.5930   26.0300 O.2    96  HIS96      -0.2718
      5  CB       -31.9590   12.6940   26.6470 C.3    96  HIS96       0.0759
      6  CG       -33.1070   11.9550   27.2590 C.ar   96  HIS96       0.0818
      7  ND1      -33.8040   12.4360   28.3470 N.ar   96  HIS96      -0.2268
      8  CD2      -33.6930   10.7840   26.9180 C.ar   96  HIS96       0.1154
      9  CE1      -34.7760   11.5950   28.6480 C.ar   96  HIS96       0.1986
     10  NE2      -34.7260   10.5810   27.8000 N.ar   96  HIS96      -0.2212
     11  N        -31.3280   15.5470   24.4930 N.am   97  SER97      -0.1938
     12  CA       -30.2630   16.2630   23.8220 C.3    97  SER97       0.2055
     13  C        -29.5790   17.1910   24.8300 C.2    97  SER97       0.2642
     14  O        -30.2130   17.6710   25.7590 O.2    97  SER97      -0.2714
     15  CB       -30.7990   17.0950   22.6380 C.3    97  SER97       0.2130
     16  OG       -29.7300   17.4590   21.7840 O.3    97  SER97      -0.2179
     17  N        -28.2830   17.3890   24.6410 N.am   98  ALA98      -0.1977
     18  CA       -27.4500   18.1710   25.5540 C.3    98  ALA98       0.1597
     19  C        -27.9720   19.5950   25.7060 C.2    98  ALA98       0.2287
     20  O        -28.1950   20.2790   24.7070 O.2    98  ALA98      -0.2864
     21  CB       -26.0260   18.2070   25.0260 C.3    98  ALA98       0.0319
     22  N        -16.3130   13.1140   20.1180 N.3   158  ILE158     -0.1245
     23  CA       -17.4690   13.7890   19.5050 C.3   158  ILE158      0.1561
     24  C        -17.3190   15.2930   19.6420 C.2   158  ILE158      0.2260
     25  O        -16.8960   15.7870   20.6910 O.2   158  ILE158     -0.2867
     26  CB       -18.8300   13.3090   20.0340 C.3   158  ILE158      0.0252
     27  CG1      -18.9750   13.5720   21.5310 C.3   158  ILE158      0.0019
     28  CG2      -18.9540   11.8190   19.7430 C.3   158  ILE158      0.0019
     29  CD1      -20.3240   13.1640   22.1160 C.3   158  ILE158      0.0001
     30  N        -19.4600   18.8910   18.8790 N.3   160  PHE160     -0.1241
     31  CA       -20.7990   19.4380   18.6070 C.3   160  PHE160      0.1605
     32  C        -20.9520   20.8800   19.0950 C.2   160  PHE160      0.2264
     33  O        -20.3420   21.2340   20.0990 O.2   160  PHE160     -0.2867
     34  CB       -21.8890   18.5650   19.2390 C.3   160  PHE160      0.0534
     35  CG       -21.7420   18.3740   20.7300 C.ar  160  PHE160     -0.0203
     36  CD1      -20.9310   17.3710   21.2370 C.ar  160  PHE160     -0.0042
     37  CD2      -22.4410   19.1890   21.6380 C.ar  160  PHE160     -0.0042
     38  CE1      -20.7960   17.1990   22.6280 C.ar  160  PHE160     -0.0003
     39  CE2      -22.3150   19.0080   23.0320 C.ar  160  PHE160     -0.0003
     40  CZ       -21.4900   18.0080   23.5210 C.ar  160  PHE160     -0.0000
     41  N        -27.7260   23.8820   16.9950 N.3   166  ARG166     -0.1245
     42  CA       -28.2740   22.6080   16.4540 C.3   166  ARG166      0.1563
     43  C        -29.7270   22.7910   15.9510 C.2   166  ARG166      0.2260
     44  O        -30.0810   22.2820   14.8720 O.2   166  ARG166     -0.2867
     45  CB       -28.1480   21.4380   17.4490 C.3   166  ARG166      0.0307
     46  CG       -26.7430   21.1530   17.9570 C.3   166  ARG166      0.0489
     47  CD       -26.5970   19.7590   18.5770 C.3   166  ARG166      0.2205
     48  NE       -27.4400   19.5470   19.7590 N.pl3 166  ARG166     -0.0865
     49  CZ       -27.1470   19.8950   21.0190 C.cat 166  ARG166      0.5346
     50  NH1      -26.0460   20.5700   21.3140 N.pl3 166  ARG166      0.1354
     51  NH2      -27.9860   19.5810   22.0070 N.pl3 166  ARG166      0.1354
     52  N        -18.0330   15.3740   14.0610 N.3   280  SER280     -0.1202
     53  CA       -18.8920   14.2010   14.1510 C.3   280  SER280      0.2020
     54  C        -20.3290   14.5270   14.5500 C.2   280  SER280      0.2619
     55  O        -21.2250   13.8030   14.1920 O.2   280  SER280     -0.2717
     56  CB       -18.3230   13.2190   15.1650 C.3   280  SER280      0.2103
     57  OG       -18.3500   13.7850   16.4650 O.3   280  SER280     -0.2182
     58  N        -20.5430   15.6140   15.3040 N.am  281  GLY281     -0.1956
     59  CA       -21.8620   15.9600   15.8300 C.3   281  GLY281      0.1869
     60  C        -22.5030   17.2230   15.2780 C.2   281  GLY281      0.2309
     61  O        -22.9160   18.0950   16.0340 O.2   281  GLY281     -0.2863
     62  N        -24.9310   11.5560   14.4030 N.3   550  GLY550     -0.1225
     63  CA       -24.4500   12.7540   15.0870 C.3   550  GLY550      0.1811
     64  C        -25.3060   13.9840   14.9240 C.2   550  GLY550      0.2280
     65  O        -24.9520   15.0440   15.4650 O.2   550  GLY550     -0.2866
     66  N        -28.4670   14.7690   15.8090 N.3   552  ASP552     -0.1239
     67  CA       -29.3560   15.2190   16.8790 C.3   552  ASP552      0.1674
     68  C        -30.8280   15.1840   16.4270 C.2   552  ASP552      0.2266
     69  O        -31.5890   16.1440   16.6370 O.2   552  ASP552     -0.2867
     70  CB       -28.9000   16.6280   17.3240 C.3   552  ASP552      0.1410
     71  CG       -29.5280   17.0760   18.5890 C.2   552  ASP552      0.3668
     72  OD1      -29.6840   16.2430   19.4970 O.co2 552  ASP552     -0.2456
     73  OD2      -29.8420   18.2850   18.7140 O.co2 552  ASP552     -0.2456
@<TRIPOS>BOND
     1    52    53    1
     2    53    54    1
     3    53    56    1
     4    55    54    2
     5    62    63    1
     6    54    58   am
     7    44    43    2
     8    64    63    1
     9    64    65    2
    10    56    57    1
    11    60    59    1
    12    60    61    2
    13    58    59    1
    14    66    67    1
    15    43    42    1
    16    68    69    2
    17    68    67    1
    18    42    41    1
    19    42    45    1
    20    67    70    1
    21    70    71    1
    22    45    46    1
    23    46    47    1
    24    47    48    1
    25    71    73   ar
    26    71    72   ar
    27    31    30    1
    28    31    32    1
    29    31    34    1
    30    32    33    2
    31    34    35    1
    32    23    24    1
    33    23    26    1
    34    23    22    1
    35    24    25    2
    36    28    26    1
    37    48    49    2
    38    26    27    1
    39    35    36   ar
    40    35    37   ar
    41    49    50    1
    42    49    51    1
    43    36    38   ar
    44    27    29    1
    45    37    39   ar
    46    16    15    1
    47    38    40   ar
    48    15    12    1
    49    39    40   ar
    50    12    11    1
    51    12    13    1
    52    11     3   am
    53    17    13   am
    54    17    18    1
    55    20    19    2
    56    13    14    2
    57    21    18    1
    58     1     2    1
    59    18    19    1
    60     3     4    2
    61     3     2    1
    62     2     5    1
    63     5     6    1
    64     8     6   ar
    65     8    10   ar
    66     6     7   ar
    67    10     9   ar
    68     7     9   ar
