@<TRIPOS>MOLECULE
tmp/5czbA00.pdb
 170 169 0 0 0
SMALL
GASTEIGER

@<TRIPOS>ATOM
      1  N        -30.1030  -15.7410   13.6100 N.3   417  LEU417     -0.1245
      2  CA       -30.1310  -16.7650   14.6330 C.3   417  LEU417      0.1561
      3  C        -29.9530  -16.1610   16.0350 C.2   417  LEU417      0.2260
      4  O        -30.6560  -16.5220   16.9670 O.2   417  LEU417     -0.2867
      5  CB       -29.0460  -17.8030   14.3470 C.3   417  LEU417      0.0270
      6  CG       -28.7980  -18.8930   15.3810 C.3   417  LEU417      0.0019
      7  CD1      -30.0540  -19.7150   15.5870 C.3   417  LEU417      0.0001
      8  CD2      -27.6420  -19.7820   14.9510 C.3   417  LEU417      0.0001
      9  N        -32.7440  -13.6290   17.5650 N.3   420  ARG420     -0.1231
     10  CA       -33.9460  -14.3360   17.9350 C.3   420  ARG420      0.1694
     11  C        -33.7350  -15.1820   19.1870 C.2   420  ARG420      0.2591
     12  O        -34.4970  -15.0890   20.1480 O.2   420  ARG420     -0.2718
     13  CB       -34.3970  -15.2290   16.7780 C.3   420  ARG420      0.0321
     14  CG       -34.7180  -14.4180   15.5060 C.3   420  ARG420      0.0489
     15  CD       -34.9440  -15.3290   14.3090 C.3   420  ARG420      0.2205
     16  NE       -36.1650  -16.1110   14.4810 N.pl3 420  ARG420     -0.0865
     17  CZ       -36.4880  -17.2100   13.7930 C.cat 420  ARG420      0.5346
     18  NH1      -35.6680  -17.7210   12.8790 N.pl3 420  ARG420      0.1354
     19  NH2      -37.6490  -17.8160   14.0240 N.pl3 420  ARG420      0.1354
     20  N        -32.7010  -16.0140   19.1540 N.am  421  MET421     -0.1979
     21  CA       -32.3580  -16.8940   20.2850 C.3   421  MET421      0.1605
     22  C        -32.0620  -16.1060   21.5590 C.2   421  MET421      0.2287
     23  O        -32.5710  -16.4700   22.6290 O.2   421  MET421     -0.2864
     24  CB       -31.1340  -17.7370   19.9400 C.3   421  MET421      0.0413
     25  CG       -30.8020  -18.7980   20.9740 C.3   421  MET421      0.0598
     26  SD       -29.4330  -19.8850   20.5430 S.3   421  MET421     -0.1393
     27  CE       -28.1400  -18.7640   20.0400 C.3   421  MET421      0.0692
     28  N        -37.3690  -18.5400    9.6230 N.3   472  LEU472     -0.1231
     29  CA       -36.0420  -18.9260    9.1030 C.3   472  LEU472      0.1693
     30  C        -35.3540  -20.0630    9.8530 C.2   472  LEU472      0.2592
     31  O        -35.2990  -20.0920   11.0850 O.2   472  LEU472     -0.2718
     32  CB       -35.0770  -17.7510    9.0740 C.3   472  LEU472      0.0284
     33  CG       -35.3080  -16.6340    8.0450 C.3   472  LEU472      0.0019
     34  CD1      -34.0660  -15.7520    8.0180 C.3   472  LEU472      0.0001
     35  CD2      -35.6450  -17.1490    6.6400 C.3   472  LEU472      0.0001
     36  N        -34.8110  -20.9860    9.0760 N.am  473  HIS473     -0.1962
     37  CA       -34.0720  -22.1120    9.5910 C.3   473  HIS473      0.1787
     38  C        -33.0610  -22.5300    8.5100 C.2   473  HIS473      0.2621
     39  O        -32.9820  -21.9040    7.4270 O.2   473  HIS473     -0.2715
     40  CB       -35.0460  -23.2270    9.9780 C.3   473  HIS473      0.0785
     41  CG       -35.7720  -23.8230    8.8160 C.ar  473  HIS473      0.0821
     42  ND1      -35.5060  -25.0910    8.3560 N.ar  473  HIS473     -0.2267
     43  CD2      -36.7280  -23.3160    7.9990 C.ar  473  HIS473      0.1154
     44  CE1      -36.2730  -25.3490    7.3150 C.ar  473  HIS473      0.1986
     45  NE2      -37.0200  -24.2860    7.0720 N.ar  473  HIS473     -0.2212
     46  N        -32.2830  -23.5570    8.8090 N.am  474  SER474     -0.1936
     47  CA       -31.2370  -24.0460    7.9120 C.3   474  SER474      0.2055
     48  C        -30.3100  -22.8730    7.5260 C.2   474  SER474      0.2643
     49  O        -30.1260  -22.4960    6.3470 O.2   474  SER474     -0.2714
     50  CB       -31.8690  -24.7350    6.6960 C.3   474  SER474      0.2130
     51  OG       -30.8820  -25.4040    5.9660 O.3   474  SER474     -0.2179
     52  N        -29.7880  -22.2630    8.5770 N.am  475  TYR475     -0.1973
     53  CA       -28.8250  -21.1820    8.4930 C.3   475  TYR475      0.1639
     54  C        -27.5390  -21.7670    7.9190 C.2   475  TYR475      0.2290
     55  O        -27.3610  -22.9850    7.9480 O.2   475  TYR475     -0.2864
     56  CB       -28.5780  -20.6110    9.8840 C.3   475  TYR475      0.0560
     57  CG       -29.7050  -19.7510   10.4170 C.ar  475  TYR475     -0.0198
     58  CD1      -29.8210  -18.4210   10.0290 C.ar  475  TYR475     -0.0009
     59  CD2      -30.6360  -20.2540   11.3380 C.ar  475  TYR475     -0.0009
     60  CE1      -30.8520  -17.6130   10.5050 C.ar  475  TYR475      0.0417
     61  CE2      -31.6470  -19.4500   11.8500 C.ar  475  TYR475      0.0417
     62  CZ       -31.7760  -18.1460   11.4210 C.ar  475  TYR475      0.1957
     63  OH       -32.7780  -17.3220   11.9210 O.3   475  TYR475     -0.2866
     64  N        -23.5200  -20.0670   11.3510 N.3   480  ILE480     -0.1245
     65  CA       -23.6190  -20.9010   12.5670 C.3   480  ILE480      0.1561
     66  C        -22.2800  -20.9320   13.3090 C.2   480  ILE480      0.2260
     67  O        -22.2110  -20.6260   14.5140 O.2   480  ILE480     -0.2867
     68  CB       -24.1120  -22.2950   12.2290 C.3   480  ILE480      0.0252
     69  CG1      -25.5870  -22.2210   11.8370 C.3   480  ILE480      0.0019
     70  CG2      -23.9130  -23.2560   13.4170 C.3   480  ILE480      0.0019
     71  CD1      -26.1230  -23.4700   11.1610 C.3   480  ILE480      0.0001
     72  N        -21.5370  -17.5910   14.9450 N.3   483  VAL483     -0.1231
     73  CA       -22.3890  -17.4420   16.1360 C.3   483  VAL483      0.1692
     74  C        -21.8580  -18.2790   17.2990 C.2   483  VAL483      0.2591
     75  O        -21.6670  -17.7650   18.4040 O.2   483  VAL483     -0.2718
     76  CB       -23.8680  -17.7790   15.8530 C.3   483  VAL483      0.0266
     77  CG1      -24.7010  -17.7680   17.1340 C.3   483  VAL483      0.0020
     78  CG2      -24.4700  -16.8000   14.8380 C.3   483  VAL483      0.0020
     79  N        -21.5570  -19.5380   17.0430 N.am  484  ALA484     -0.1980
     80  CA       -21.1410  -20.4400   18.1030 C.3   484  ALA484      0.1597
     81  C        -19.8310  -19.9920   18.7440 C.2   484  ALA484      0.2287
     82  O        -19.6830  -19.9710   19.9680 O.2   484  ALA484     -0.2864
     83  CB       -21.0100  -21.8680   17.5670 C.3   484  ALA484      0.0319
     84  N        -20.3630  -16.8700   20.8830 N.3   487  LEU487     -0.1231
     85  CA       -21.0260  -17.2690   22.1150 C.3   487  LEU487      0.1693
     86  C        -20.1280  -18.0340   23.0840 C.2   487  LEU487      0.2591
     87  O        -20.2620  -17.8160   24.2850 O.2   487  LEU487     -0.2718
     88  CB       -22.3160  -18.0260   21.8490 C.3   487  LEU487      0.0284
     89  CG       -23.3330  -17.2900   20.9770 C.3   487  LEU487      0.0019
     90  CD1      -24.5940  -18.1150   20.8020 C.3   487  LEU487      0.0001
     91  CD2      -23.6710  -15.8920   21.4560 C.3   487  LEU487      0.0001
     92  N        -19.2120  -18.8700   22.5910 N.am  488  ARG488     -0.1980
     93  CA       -18.1480  -19.4730   23.4380 C.3   488  ARG488      0.1597
     94  C        -17.2830  -18.3980   24.0590 C.2   488  ARG488      0.2287
     95  O        -17.0370  -18.4130   25.2560 O.2   488  ARG488     -0.2864
     96  CB       -17.1620  -20.3890   22.6570 C.3   488  ARG488      0.0334
     97  CG       -17.6330  -21.7790   22.3420 C.3   488  ARG488      0.0492
     98  CD       -16.4880  -22.6970   21.8660 C.3   488  ARG488      0.2205
     99  NE       -15.7890  -22.2770   20.6340 N.pl3 488  ARG488     -0.0865
    100  CZ       -16.2410  -22.3960   19.3780 C.cat 488  ARG488      0.5346
    101  NH1      -17.4480  -22.8940   19.1030 N.pl3 488  ARG488      0.1354
    102  NH2      -15.4790  -21.9750   18.3710 N.pl3 488  ARG488      0.1354
    103  N        -21.9370  -17.3350   26.7190 N.3   492  VAL492     -0.1231
    104  CA       -23.3940  -17.2430   26.6210 C.3   492  VAL492      0.1678
    105  C        -23.9720  -18.6510   26.8210 C.2   492  VAL492      0.2434
    106  O        -23.4500  -19.6290   26.2690 O.2   492  VAL492     -0.2733
    107  CB       -23.7840  -16.6400   25.2650 C.3   492  VAL492      0.0265
    108  CG1      -25.2770  -16.7850   24.9680 C.3   492  VAL492      0.0020
    109  CG2      -23.3230  -15.1810   25.1810 C.3   492  VAL492      0.0020
    110  N        -25.0350  -18.7880   27.6310 N.am  493  PRO493     -0.2718
    111  CA       -25.5560  -20.1310   27.8450 C.3   493  PRO493      0.1520
    112  C        -26.0150  -20.8070   26.5670 C.2   493  PRO493      0.2440
    113  O        -26.2500  -20.1350   25.5590 O.2   493  PRO493     -0.2731
    114  CB       -26.7560  -19.9190   28.7680 C.3   493  PRO493      0.0310
    115  CG       -26.5280  -18.6040   29.4080 C.3   493  PRO493      0.0237
    116  CD       -25.7320  -17.7860   28.4470 C.3   493  PRO493      0.0939
    117  N        -26.1140  -22.1360   26.5870 N.am  494  PRO494     -0.2716
    118  CA       -26.3890  -22.8750   25.3550 C.3   494  PRO494      0.1536
    119  C        -27.8240  -22.7610   24.8690 C.2   494  PRO494      0.2598
    120  O        -28.6790  -22.2980   25.6030 O.2   494  PRO494     -0.2715
    121  CB       -26.1050  -24.3070   25.7440 C.3   494  PRO494      0.0310
    122  CG       -26.3390  -24.3580   27.2240 C.3   494  PRO494      0.0237
    123  CD       -25.9000  -23.0260   27.7360 C.3   494  PRO494      0.0939
    124  N        -28.0700  -23.2320   23.6460 N.am  495  LEU495     -0.1978
    125  CA       -29.4040  -23.2150   23.0470 C.3   495  LEU495      0.1596
    126  C        -30.4900  -23.7800   23.9610 C.2   495  LEU495      0.2287
    127  O        -31.5690  -23.1890   24.0680 O.2   495  LEU495     -0.2864
    128  CB       -29.4070  -23.9380   21.6930 C.3   495  LEU495      0.0297
    129  CG       -30.7750  -24.1770   21.0320 C.3   495  LEU495      0.0022
    130  CD1      -31.4260  -22.8640   20.6750 C.3   495  LEU495      0.0001
    131  CD2      -30.6210  -25.0850   19.8260 C.3   495  LEU495      0.0001
    132  N        -31.7170  -21.0680   26.3470 N.3   498  TRP498     -0.1227
    133  CA       -32.5130  -20.0460   25.6750 C.3   498  TRP498      0.1737
    134  C        -33.8660  -20.5890   25.2180 C.2   498  TRP498      0.2595
    135  O        -34.8700  -19.8670   25.2950 O.2   498  TRP498     -0.2718
    136  CB       -31.7450  -19.4200   24.5070 C.3   498  TRP498      0.0564
    137  CG       -30.5640  -18.7190   24.9950 C.ar  498  TRP498      0.0003
    138  CD1      -29.2730  -19.1360   24.9120 C.ar  498  TRP498      0.0946
    139  CD2      -30.5530  -17.5010   25.7400 C.ar  498  TRP498      0.0152
    140  NE1      -28.4460  -18.2380   25.5460 N.ar  498  TRP498     -0.2442
    141  CE2      -29.2080  -17.2180   26.0540 C.ar  498  TRP498      0.0810
    142  CE3      -31.5560  -16.6080   26.1600 C.ar  498  TRP498      0.0012
    143  CZ2      -28.8350  -16.0920   26.7820 C.ar  498  TRP498      0.0191
    144  CZ3      -31.1900  -15.4960   26.8710 C.ar  498  TRP498      0.0001
    145  CH2      -29.8330  -15.2360   27.1680 C.ar  498  TRP498      0.0015
    146  N        -33.8810  -21.8430   24.7570 N.am  499  ARG499     -0.1980
    147  CA       -35.1230  -22.5310   24.3650 C.3   499  ARG499      0.1597
    148  C        -36.0930  -22.6610   25.5430 C.2   499  ARG499      0.2287
    149  O        -37.2880  -22.4090   25.3780 O.2   499  ARG499     -0.2864
    150  CB       -34.8280  -23.9140   23.7740 C.3   499  ARG499      0.0334
    151  CG       -36.0310  -24.6160   23.1350 C.3   499  ARG499      0.0492
    152  CD       -35.7340  -26.0610   22.6950 C.3   499  ARG499      0.2205
    153  NE       -34.7840  -26.1270   21.5720 N.pl3 499  ARG499     -0.0865
    154  CZ       -35.0550  -25.8310   20.2890 C.cat 499  ARG499      0.5346
    155  NH1      -36.2690  -25.4310   19.8880 N.pl3 499  ARG499      0.1354
    156  NH2      -34.0860  -25.9310   19.3820 N.pl3 499  ARG499      0.1354
    157  N        -39.9990  -20.4860   16.9670 N.3   526  TRP526     -0.1241
    158  CA       -38.7910  -21.3300   16.8860 C.3   526  TRP526      0.1605
    159  C        -38.5800  -22.2260   18.1130 C.2   526  TRP526      0.2264
    160  O        -38.0820  -23.3320   17.9640 O.2   526  TRP526     -0.2867
    161  CB       -37.5300  -20.4750   16.6310 C.3   526  TRP526      0.0550
    162  CG       -37.2080  -19.4650   17.7570 C.ar  526  TRP526      0.0003
    163  CD1      -37.6090  -18.1780   17.8110 C.ar  526  TRP526      0.0946
    164  CD2      -36.4620  -19.7010   18.9740 C.ar  526  TRP526      0.0152
    165  NE1      -37.1600  -17.5770   18.9680 N.ar  526  TRP526     -0.2442
    166  CE2      -36.4530  -18.4920   19.6990 C.ar  526  TRP526      0.0810
    167  CE3      -35.8080  -20.8090   19.5180 C.ar  526  TRP526      0.0012
    168  CZ2      -35.8050  -18.3560   20.9340 C.ar  526  TRP526      0.0191
    169  CZ3      -35.1470  -20.6680   20.7530 C.ar  526  TRP526      0.0001
    170  CH2      -35.1570  -19.4490   21.4380 C.ar  526  TRP526      0.0015
@<TRIPOS>BOND
     1    51    50    1
     2    49    48    2
     3    35    33    1
     4    50    47    1
     5    45    44   ar
     6    45    43   ar
     7    44    42   ar
     8    39    38    2
     9    48    47    1
    10    48    52   am
    11    47    46    1
    12    54    55    2
    13    54    53    1
    14    43    41   ar
    15    34    33    1
    16    33    32    1
    17    42    41   ar
    18    53    52    1
    19    53    56    1
    20    38    46   am
    21    38    37    1
    22    41    40    1
    23    32    29    1
    24    36    37    1
    25    36    30   am
    26    29    28    1
    27    29    30    1
    28    37    40    1
    29    30    31    2
    30    56    57    1
    31    58    57   ar
    32    58    60   ar
    33    57    59   ar
    34    60    62   ar
    35    71    69    1
    36    59    61   ar
    37    64    65    1
    38    62    61   ar
    39    62    63    1
    40    69    68    1
    41    68    65    1
    42    68    70    1
    43    65    66    1
    44    18    17    1
    45    66    67    2
    46     1     2    1
    47    17    19    1
    48    17    16    2
    49    15    16    1
    50    15    14    1
    51     5     2    1
    52     5     6    1
    53     2     3    1
    54    78    76    1
    55    72    73    1
    56     8     6    1
    57     6     7    1
    58    14    13    1
    59    76    73    1
    60    76    77    1
    61     3     4    2
    62    73    74    1
    63   161   158    1
    64   161   162    1
    65    13    10    1
    66   158   157    1
    67   158   159    1
    68    79    74   am
    69    79    80    1
    70    74    75    2
    71     9    10    1
    72    83    80    1
    73   162   163   ar
    74   162   164   ar
    75   163   165   ar
    76    10    11    1
    77   160   159    2
    78    80    81    1
    79   102   100    1
    80    81    82    2
    81   165   166   ar
    82   164   167   ar
    83   164   166   ar
    84   101   100    1
    85    20    11   am
    86    20    21    1
    87    11    12    2
    88   100    99    2
    89   156   154    1
    90   167   169   ar
    91   166   168   ar
    92   131   129    1
    93   155   154    1
    94    24    21    1
    95    24    25    1
    96    27    26    1
    97    21    22    1
    98   154   153    2
    99    26    25    1
   100    99    98    1
   101   130   129    1
   102   169   170   ar
   103    90    89    1
   104    84    85    1
   105   168   170   ar
   106    89    91    1
   107    89    88    1
   108   129   128    1
   109    22    23    2
   110   153   152    1
   111   128   125    1
   112    88    85    1
   113    98    97    1
   114    85    86    1
   115    97    96    1
   116    92    86   am
   117    92    93    1
   118    96    93    1
   119   152   151    1
   120   125   124    1
   121   125   126    1
   122    86    87    2
   123   151   150    1
   124    93    94    1
   125   124   119   am
   126   150   147    1
   127   126   127    2
   128    94    95    2
   129   147   146    1
   130   147   148    1
   131   136   137    1
   132   136   133    1
   133   146   134   am
   134   119   118    1
   135   119   120    2
   136   138   137   ar
   137   138   140   ar
   138   108   107    1
   139   137   139   ar
   140   109   107    1
   141   134   135    2
   142   134   133    1
   143   107   104    1
   144   118   121    1
   145   118   117    1
   146   149   148    2
   147   140   141   ar
   148   113   112    2
   149   133   132    1
   150   139   141   ar
   151   139   142   ar
   152   121   122    1
   153   141   143   ar
   154   142   144   ar
   155   106   105    2
   156   112   117   am
   157   112   111    1
   158   117   123    1
   159   104   103    1
   160   104   105    1
   161   143   145   ar
   162   105   110   am
   163   144   145   ar
   164   122   123    1
   165   110   111    1
   166   110   116    1
   167   111   114    1
   168   116   115    1
   169   114   115    1
