@<TRIPOS>MOLECULE
tmp/5czdA01.pdb
 131 124 0 0 0
SMALL
GASTEIGER

@<TRIPOS>ATOM
      1  N         48.5860   68.6070   60.5500 N.3     9  MET9       -0.1245
      2  CA        47.1910   68.8190   60.2140 C.3     9  MET9        0.1570
      3  C         47.0380   69.0440   58.7260 C.2     9  MET9        0.2261
      4  O         47.9820   69.4410   58.0340 O.2     9  MET9       -0.2867
      5  CB        46.6130   69.9900   60.9800 C.3     9  MET9        0.0387
      6  CG        45.1780   69.7520   61.3620 C.3     9  MET9        0.0595
      7  SD        44.6350   70.8000   62.7100 S.3     9  MET9       -0.1393
      8  CE        42.8730   70.6120   62.5050 C.3     9  MET9        0.0692
      9  N         40.0810   74.8240   60.3770 N.3    53  TYR53      -0.1241
     10  CA        41.1450   74.7350   61.3410 C.3    53  TYR53       0.1605
     11  C         40.8030   75.4640   62.6420 C.2    53  TYR53       0.2264
     12  O         41.6740   75.9930   63.3140 O.2    53  TYR53      -0.2867
     13  CB        42.4980   75.2380   60.7420 C.3    53  TYR53       0.0534
     14  CG        42.9050   74.4430   59.5000 C.ar   53  TYR53      -0.0201
     15  CD1       43.4550   73.1500   59.6090 C.ar   53  TYR53      -0.0009
     16  CD2       42.6990   74.9620   58.2260 C.ar   53  TYR53      -0.0009
     17  CE1       43.7660   72.3990   58.4740 C.ar   53  TYR53       0.0417
     18  CE2       43.0120   74.2360   57.0870 C.ar   53  TYR53       0.0417
     19  CZ        43.5260   72.9480   57.2010 C.ar   53  TYR53       0.1957
     20  OH        43.8030   72.2380   56.0450 O.3    53  TYR53      -0.2866
     21  N         41.3400   71.4930   65.8970 N.3    58  GLN58      -0.1245
     22  CA        42.6770   71.1500   66.3060 C.3    58  GLN58       0.1566
     23  C         42.6830   70.1610   67.4820 C.2    58  GLN58       0.2260
     24  O         43.4600   69.1920   67.4890 O.2    58  GLN58      -0.2867
     25  CB        43.4320   72.4070   66.6600 C.3    58  GLN58       0.0367
     26  CG        43.7370   73.2690   65.4550 C.3    58  GLN58       0.0905
     27  CD        44.3860   74.5760   65.8370 C.2    58  GLN58       0.2608
     28  OE1       45.3590   74.5980   66.5960 O.2    58  GLN58      -0.2717
     29  NE2       43.8610   75.6710   65.3090 N.am   58  GLN58      -0.0878
     30  N         55.3100   68.9600   63.0550 N.3    87  SER87      -0.1202
     31  CA        54.5140   70.2030   63.0960 C.3    87  SER87       0.2020
     32  C         53.4220   70.0240   64.1880 C.2    87  SER87       0.2618
     33  O         53.7450   69.8760   65.3750 O.2    87  SER87      -0.2717
     34  CB        53.9680   70.5300   61.6700 C.3    87  SER87       0.2103
     35  OG        52.9970   71.5860   61.6380 O.3    87  SER87      -0.2182
     36  N         52.1510   70.0090   63.8180 N.am   88  PHE88      -0.1975
     37  CA        51.0650   69.8860   64.8060 C.3    88  PHE88       0.1639
     38  C         51.2920   68.6460   65.6840 C.2    88  PHE88       0.2290
     39  O         51.1080   68.6910   66.9060 O.2    88  PHE88      -0.2864
     40  CB        49.6570   69.8080   64.1230 C.3    88  PHE88       0.0560
     41  CG        48.5440   69.5820   65.1000 C.ar   88  PHE88      -0.0200
     42  CD1       48.3490   68.3250   65.6590 C.ar   88  PHE88      -0.0042
     43  CD2       47.7860   70.6200   65.5340 C.ar   88  PHE88      -0.0042
     44  CE1       47.3980   68.1060   66.6250 C.ar   88  PHE88      -0.0003
     45  CE2       46.8350   70.4350   66.5030 C.ar   88  PHE88      -0.0003
     46  CZ        46.6220   69.1760   67.0490 C.ar   88  PHE88      -0.0000
     47  N         53.7650   67.3240   66.9210 N.3    90  GLU90      -0.1231
     48  CA        54.5940   67.4080   68.0940 C.3    90  GLU90       0.1699
     49  C         53.7010   67.2660   69.3190 C.2    90  GLU90       0.2592
     50  O         54.0780   66.6710   70.3140 O.2    90  GLU90      -0.2718
     51  CB        55.3500   68.7270   68.1270 C.3    90  GLU90       0.0402
     52  CG        56.5610   68.7750   67.1960 C.3    90  GLU90       0.1161
     53  CD        57.1610   70.1830   67.1080 C.2    90  GLU90       0.3649
     54  OE1       56.6530   71.0640   67.8390 O.co2  90  GLU90      -0.2457
     55  OE2       58.1320   70.4180   66.3330 O.co2  90  GLU90      -0.2457
     56  N         52.4960   67.8110   69.2330 N.am   91  LYS91      -0.1980
     57  CA        51.5950   67.8300   70.3860 C.3    91  LYS91       0.1596
     58  C         51.0500   66.4360   70.5620 C.2    91  LYS91       0.2287
     59  O         50.9950   65.9400   71.6550 O.2    91  LYS91      -0.2864
     60  CB        50.4860   68.8140   70.1880 C.3    91  LYS91       0.0298
     61  CG        50.9900   70.1710   69.7570 C.3    91  LYS91       0.0038
     62  CD        49.8840   70.9730   69.1350 C.3    91  LYS91       0.0206
     63  CE        50.4350   72.2870   68.6410 C.3    91  LYS91       0.1093
     64  NZ        49.3560   73.0570   67.9630 N.3    91  LYS91      -0.1314
     65  N         47.5420   77.2380   72.8290 N.3   112  LEU112     -0.1245
     66  CA        48.3530   77.6570   71.6740 C.3   112  LEU112      0.1561
     67  C         47.5110   78.0880   70.4860 C.2   112  LEU112      0.2260
     68  O         47.9500   78.9130   69.6890 O.2   112  LEU112     -0.2867
     69  CB        49.2880   76.5300   71.2030 C.3   112  LEU112      0.0270
     70  CG        50.3350   76.0360   72.1920 C.3   112  LEU112      0.0019
     71  CD1       51.0120   74.7810   71.6750 C.3   112  LEU112      0.0001
     72  CD2       51.3670   77.0930   72.5520 C.3   112  LEU112      0.0001
     73  N         47.9320   81.6200   68.9940 N.3   116  MET116     -0.1245
     74  CA        48.2770   81.8900   67.5870 C.3   116  MET116      0.1570
     75  C         47.3320   82.9150   66.9810 C.2   116  MET116      0.2261
     76  O         47.7570   83.8330   66.2710 O.2   116  MET116     -0.2867
     77  CB        48.2820   80.6190   66.7460 C.3   116  MET116      0.0387
     78  CG        49.6720   80.0150   66.6940 C.3   116  MET116      0.0595
     79  SD        49.8160   78.3320   66.0660 S.3   116  MET116     -0.1393
     80  CE        48.8980   77.3160   67.2330 C.3   116  MET116      0.0692
     81  N         49.6270   78.9100   53.0090 N.3   192  MET192     -0.1245
     82  CA        49.0280   78.7510   54.3450 C.3   192  MET192      0.1570
     83  C         49.0420   80.0440   55.2130 C.2   192  MET192      0.2261
     84  O         50.0220   80.8080   55.2980 O.2   192  MET192     -0.2867
     85  CB        49.6960   77.5590   55.0430 C.3   192  MET192      0.0387
     86  CG        49.3910   77.4220   56.5230 C.3   192  MET192      0.0595
     87  SD        50.1240   75.9390   57.2640 S.3   192  MET192     -0.1393
     88  CE        51.8600   76.3400   57.5770 C.3   192  MET192      0.0692
     89  N         54.2260   79.8520   59.6520 N.3   196  MET196     -0.1230
     90  CA        54.8100   79.0070   60.6850 C.3   196  MET196      0.1702
     91  C         56.2780   78.6330   60.4010 C.2   196  MET196      0.2592
     92  O         56.6900   78.4690   59.2580 O.2   196  MET196     -0.2718
     93  CB        53.9700   77.7270   60.8370 C.3   196  MET196      0.0401
     94  CG        54.3370   76.9080   62.0690 C.3   196  MET196      0.0596
     95  SD        54.5230   77.9350   63.5570 S.3   196  MET196     -0.1393
     96  CE        52.9160   78.7460   63.5830 C.3   196  MET196      0.0692
     97  N         57.0600   78.5040   61.4680 N.am  197  HIS197     -0.1976
     98  CA        58.4280   78.1320   61.3720 C.3   197  HIS197      0.1656
     99  C         59.3190   79.2610   60.7970 C.2   197  HIS197      0.2291
    100  O         59.8940   79.1340   59.7070 O.2   197  HIS197     -0.2864
    101  CB        58.6040   76.8620   60.5230 C.3   197  HIS197      0.0771
    102  CG        57.6620   75.7560   60.8410 C.ar  197  HIS197      0.0820
    103  ND1       57.6330   75.1240   62.0650 N.ar  197  HIS197     -0.2267
    104  CD2       56.7790   75.0950   60.0530 C.ar  197  HIS197      0.1154
    105  CE1       56.7270   74.1640   62.0310 C.ar  197  HIS197      0.1986
    106  NE2       56.1910   74.1290   60.8230 N.ar  197  HIS197     -0.2212
    107  N         58.6050   71.6400   71.2370 N.3   244  LEU244     -0.1245
    108  CA        57.3790   72.3680   71.0630 C.3   244  LEU244      0.1561
    109  C         57.6330   73.8800   70.9570 C.2   244  LEU244      0.2260
    110  O         56.9270   74.5740   70.2240 O.2   244  LEU244     -0.2867
    111  CB        56.4330   72.0520   72.1940 C.3   244  LEU244      0.0270
    112  CG        55.9270   70.5930   72.1490 C.3   244  LEU244      0.0019
    113  CD1       55.5560   70.0730   73.5290 C.3   244  LEU244      0.0001
    114  CD2       54.7370   70.4300   71.2180 C.3   244  LEU244      0.0001
    115  N         59.7670   74.8600   67.5190 N.3   247  CYS247     -0.1221
    116  CA        58.8540   74.7080   66.4060 C.3   247  CYS247      0.1808
    117  C         58.3460   76.0210   65.7730 C.2   247  CYS247      0.2601
    118  O         58.1430   76.0890   64.5510 O.2   247  CYS247     -0.2717
    119  CB        57.6840   73.8950   66.9080 C.3   247  CYS247      0.0970
    120  SG        56.5230   73.4640   65.6230 S.3   247  CYS247     -0.0800
    121  N         58.1660   77.0570   66.5820 N.am  248  PHE248     -0.1976
    122  CA        57.7210   78.3420   66.0640 C.3   248  PHE248      0.1639
    123  C         58.7670   79.0880   65.2350 C.2   248  PHE248      0.2290
    124  O         58.4330   79.9500   64.4430 O.2   248  PHE248     -0.2864
    125  CB        57.2500   79.2230   67.2070 C.3   248  PHE248      0.0560
    126  CG        56.0320   78.6950   67.8980 C.ar  248  PHE248     -0.0200
    127  CD1       54.7860   78.7770   67.2990 C.ar  248  PHE248     -0.0042
    128  CD2       56.1190   78.0920   69.1520 C.ar  248  PHE248     -0.0042
    129  CE1       53.6390   78.3060   67.9470 C.ar  248  PHE248     -0.0003
    130  CE2       54.9850   77.6230   69.7990 C.ar  248  PHE248     -0.0003
    131  CZ        53.7490   77.7300   69.2000 C.ar  248  PHE248     -0.0000
@<TRIPOS>BOND
     1    81    82    1
     2    82    85    1
     3    82    83    1
     4    85    86    1
     5    83    84    2
     6    20    19    1
     7    86    87    1
     8    18    19   ar
     9    18    16   ar
    10    19    17   ar
    11    87    88    1
    12     4     3    2
    13    16    14   ar
    14    17    15   ar
    15     3     2    1
    16    92    91    2
    17    14    15   ar
    18    14    13    1
    19    89    90    1
    20   100    99    2
    21   104   106   ar
    22   104   102   ar
    23     2     1    1
    24     2     5    1
    25     9    10    1
    26    91    90    1
    27    91    97   am
    28   101   102    1
    29   101    98    1
    30    90    93    1
    31    13    10    1
    32    99    98    1
    33   106   105   ar
    34    93    94    1
    35   102   103   ar
    36     5     6    1
    37    10    11    1
    38     6     7    1
    39    98    97    1
    40    35    34    1
    41    34    31    1
    42   105   103   ar
    43    94    95    1
    44     8     7    1
    45    11    12    2
    46    30    31    1
    47    31    32    1
    48    95    96    1
    49    36    32   am
    50    36    37    1
    51    40    37    1
    52    40    41    1
    53    32    33    2
    54   124   123    2
    55   118   117    2
    56    37    38    1
    57    41    43   ar
    58    41    42   ar
    59   123   122    1
    60    29    27   am
    61    26    27    1
    62    26    25    1
    63    43    45   ar
    64   120   119    1
    65    42    44   ar
    66    38    39    2
    67   117   116    1
    68   117   121   am
    69    27    28    2
    70    21    22    1
    71   122   121    1
    72   122   125    1
    73    79    78    1
    74    79    80    1
    75    76    75    2
    76    22    25    1
    77    22    23    1
    78    55    53   ar
    79   116   119    1
    80   116   115    1
    81    45    46   ar
    82    44    46   ar
    83    78    77    1
    84    77    74    1
    85    47    48    1
    86    75    74    1
    87    53    52    1
    88    53    54   ar
    89    52    51    1
    90   125   126    1
    91   127   126   ar
    92   127   129   ar
    93    23    24    2
    94    74    73    1
    95   126   128   ar
    96   129   131   ar
    97    64    63    1
    98    48    51    1
    99    48    49    1
   100    63    62    1
   101    62    61    1
   102   128   130   ar
   103   131   130   ar
   104    56    49   am
   105    56    57    1
   106    49    50    2
   107    68    67    2
   108    61    60    1
   109    60    57    1
   110   110   109    2
   111    57    58    1
   112    67    66    1
   113    58    59    2
   114   109   108    1
   115   108   107    1
   116   108   111    1
   117    69    66    1
   118    69    70    1
   119   114   112    1
   120    66    65    1
   121    71    70    1
   122   112   111    1
   123   112   113    1
   124    70    72    1
