@<TRIPOS>MOLECULE
tmp/5czdA00.pdb
 136 132 0 0 0
SMALL
GASTEIGER

@<TRIPOS>ATOM
      1  N         48.5860   68.6070   60.5500 N.3     9  MET9       -0.1230
      2  CA        47.1910   68.8190   60.2140 C.3     9  MET9        0.1702
      3  C         47.0380   69.0440   58.7260 C.2     9  MET9        0.2593
      4  O         47.9820   69.4410   58.0340 O.2     9  MET9       -0.2718
      5  CB        46.6130   69.9900   60.9800 C.3     9  MET9        0.0401
      6  CG        45.1780   69.7520   61.3620 C.3     9  MET9        0.0596
      7  SD        44.6350   70.8000   62.7100 S.3     9  MET9       -0.1393
      8  CE        42.8730   70.6120   62.5050 C.3     9  MET9        0.0692
      9  N         45.8460   68.7620   58.2470 N.am   10  GLY10      -0.1943
     10  CA        45.5170   68.8520   56.8510 C.3    10  GLY10       0.1998
     11  C         44.0430   69.1560   56.6650 C.2    10  GLY10       0.2480
     12  O         43.3000   69.2790   57.6570 O.2    10  GLY10      -0.2729
     13  N         43.6120   69.3000   55.3870 N.am   11  PRO11      -0.2726
     14  CA        42.2240   69.6000   55.0150 C.3    11  PRO11       0.1402
     15  C         41.2790   68.4400   55.2790 C.2    11  PRO11       0.2269
     16  O         41.5180   67.3290   54.8030 O.2    11  PRO11      -0.2865
     17  CB        42.3070   69.8860   53.5030 C.3    11  PRO11       0.0296
     18  CG        43.5900   69.3080   53.0310 C.3    11  PRO11       0.0237
     19  CD        44.5150   69.2940   54.2140 C.3    11  PRO11       0.0939
     20  N         40.0810   74.8240   60.3770 N.3    53  TYR53      -0.1241
     21  CA        41.1450   74.7350   61.3410 C.3    53  TYR53       0.1605
     22  C         40.8030   75.4640   62.6420 C.2    53  TYR53       0.2264
     23  O         41.6740   75.9930   63.3140 O.2    53  TYR53      -0.2867
     24  CB        42.4980   75.2380   60.7420 C.3    53  TYR53       0.0534
     25  CG        42.9050   74.4430   59.5000 C.ar   53  TYR53      -0.0201
     26  CD1       43.4550   73.1500   59.6090 C.ar   53  TYR53      -0.0009
     27  CD2       42.6990   74.9620   58.2260 C.ar   53  TYR53      -0.0009
     28  CE1       43.7660   72.3990   58.4740 C.ar   53  TYR53       0.0417
     29  CE2       43.0120   74.2360   57.0870 C.ar   53  TYR53       0.0417
     30  CZ        43.5260   72.9480   57.2010 C.ar   53  TYR53       0.1957
     31  OH        43.8030   72.2380   56.0450 O.3    53  TYR53      -0.2866
     32  N         41.3400   71.4930   65.8970 N.3    58  GLN58      -0.1245
     33  CA        42.6770   71.1500   66.3060 C.3    58  GLN58       0.1566
     34  C         42.6830   70.1610   67.4820 C.2    58  GLN58       0.2260
     35  O         43.4600   69.1920   67.4890 O.2    58  GLN58      -0.2867
     36  CB        43.4320   72.4070   66.6600 C.3    58  GLN58       0.0367
     37  CG        43.7370   73.2690   65.4550 C.3    58  GLN58       0.0905
     38  CD        44.3860   74.5760   65.8370 C.2    58  GLN58       0.2608
     39  OE1       45.3590   74.5980   66.5960 O.2    58  GLN58      -0.2717
     40  NE2       43.8610   75.6710   65.3090 N.am   58  GLN58      -0.0878
     41  N         52.1510   70.0090   63.8180 N.3    88  PHE88      -0.1241
     42  CA        51.0650   69.8860   64.8060 C.3    88  PHE88       0.1605
     43  C         51.2920   68.6460   65.6840 C.2    88  PHE88       0.2264
     44  O         51.1080   68.6910   66.9060 O.2    88  PHE88      -0.2867
     45  CB        49.6570   69.8080   64.1230 C.3    88  PHE88       0.0534
     46  CG        48.5440   69.5820   65.1000 C.ar   88  PHE88      -0.0203
     47  CD1       48.3490   68.3250   65.6590 C.ar   88  PHE88      -0.0042
     48  CD2       47.7860   70.6200   65.5340 C.ar   88  PHE88      -0.0042
     49  CE1       47.3980   68.1060   66.6250 C.ar   88  PHE88      -0.0003
     50  CE2       46.8350   70.4350   66.5030 C.ar   88  PHE88      -0.0003
     51  CZ        46.6220   69.1760   67.0490 C.ar   88  PHE88      -0.0000
     52  N         53.5470   76.0970   50.1810 N.3   131  SER131     -0.1217
     53  CA        54.0780   74.7540   49.9410 C.3   131  SER131      0.1889
     54  C         54.1980   74.4950   48.4180 C.2   131  SER131      0.2288
     55  O         53.3640   74.9440   47.6510 O.2   131  SER131     -0.2866
     56  CB        53.2020   73.7080   50.6290 C.3   131  SER131      0.2089
     57  OG        51.8120   73.9660   50.3780 O.3   131  SER131     -0.2183
     58  N         60.8320   69.2720   47.5950 N.3   164  PHE164     -0.1241
     59  CA        59.5460   69.5910   48.2240 C.3   164  PHE164      0.1605
     60  C         59.8510   70.4400   49.4150 C.2   164  PHE164      0.2264
     61  O         60.4590   69.9650   50.3670 O.2   164  PHE164     -0.2867
     62  CB        58.8450   68.2800   48.6350 C.3   164  PHE164      0.0534
     63  CG        57.4170   68.4250   49.1100 C.ar  164  PHE164     -0.0203
     64  CD1       56.9200   69.6190   49.6360 C.ar  164  PHE164     -0.0042
     65  CD2       56.5690   67.3080   49.0630 C.ar  164  PHE164     -0.0042
     66  CE1       55.6140   69.7100   50.0910 C.ar  164  PHE164     -0.0003
     67  CE2       55.2620   67.3920   49.5120 C.ar  164  PHE164     -0.0003
     68  CZ        54.7750   68.5980   50.0290 C.ar  164  PHE164     -0.0000
     69  N         58.7850   74.3190   51.8130 N.3   166  MET166     -0.1245
     70  CA        57.8410   75.3750   52.2260 C.3   166  MET166      0.1570
     71  C         58.6080   76.6620   52.3980 C.2   166  MET166      0.2261
     72  O         59.6900   76.6840   53.0060 O.2   166  MET166     -0.2867
     73  CB        57.1530   75.0740   53.5580 C.3   166  MET166      0.0387
     74  CG        55.8020   74.4060   53.4610 C.3   166  MET166      0.0595
     75  SD        55.9950   72.6640   53.0020 S.3   166  MET166     -0.1393
     76  CE        54.6320   71.9560   53.9060 C.3   166  MET166      0.0692
     77  N         51.3760   74.1570   45.8480 N.3   189  LEU189     -0.1231
     78  CA        50.3200   73.3610   46.4780 C.3   189  LEU189      0.1693
     79  C         49.3010   74.1950   47.1900 C.2   189  LEU189      0.2592
     80  O         48.1160   74.0250   46.9940 O.2   189  LEU189     -0.2718
     81  CB        50.8860   72.3370   47.4400 C.3   189  LEU189      0.0284
     82  CG        51.7020   71.2050   46.8620 C.3   189  LEU189      0.0019
     83  CD1       52.0850   70.2580   48.0000 C.3   189  LEU189      0.0001
     84  CD2       50.9410   70.4650   45.7670 C.3   189  LEU189      0.0001
     85  N         49.7540   75.1000   48.0230 N.am  190  TYR190     -0.1976
     86  CA        48.8700   75.7200   48.9900 C.3   190  TYR190      0.1639
     87  C         49.6480   76.8670   49.5380 C.2   190  TYR190      0.2290
     88  O         50.8770   76.8530   49.4990 O.2   190  TYR190     -0.2864
     89  CB        48.6220   74.7290   50.1230 C.3   190  TYR190      0.0560
     90  CG        47.4230   74.8930   51.0450 C.ar  190  TYR190     -0.0198
     91  CD1       46.3270   74.0250   50.9270 C.ar  190  TYR190     -0.0009
     92  CD2       47.4360   75.7840   52.1250 C.ar  190  TYR190     -0.0009
     93  CE1       45.2510   74.0830   51.8040 C.ar  190  TYR190      0.0417
     94  CE2       46.3530   75.8650   53.0040 C.ar  190  TYR190      0.0417
     95  CZ        45.2660   75.0010   52.8380 C.ar  190  TYR190      0.1957
     96  OH        44.1730   75.0200   53.6830 O.3   190  TYR190     -0.2866
     97  N         49.6270   78.9100   53.0090 N.3   192  MET192     -0.1230
     98  CA        49.0280   78.7510   54.3450 C.3   192  MET192      0.1702
     99  C         49.0420   80.0440   55.2130 C.2   192  MET192      0.2592
    100  O         50.0220   80.8080   55.2980 O.2   192  MET192     -0.2718
    101  CB        49.6960   77.5590   55.0430 C.3   192  MET192      0.0401
    102  CG        49.3910   77.4220   56.5230 C.3   192  MET192      0.0596
    103  SD        50.1240   75.9390   57.2640 S.3   192  MET192     -0.1393
    104  CE        51.8600   76.3400   57.5770 C.3   192  MET192      0.0692
    105  N         47.9110   80.2870   55.8410 N.am  193  ARG193     -0.1966
    106  CA        47.7570   81.3870   56.7680 C.3   193  ARG193      0.1714
    107  C         47.1010   80.7270   57.9820 C.2   193  ARG193      0.2458
    108  O         46.1190   79.9960   57.8280 O.2   193  ARG193     -0.2730
    109  CB        46.9030   82.5220   56.1650 C.3   193  ARG193      0.0347
    110  CG        46.6790   83.7540   57.0690 C.3   193  ARG193      0.0492
    111  CD        47.9320   84.6140   57.2810 C.3   193  ARG193      0.2205
    112  NE        47.8000   85.5720   58.3900 N.pl3 193  ARG193     -0.0865
    113  CZ        48.7660   86.3940   58.8130 C.cat 193  ARG193      0.5346
    114  NH1       49.9650   86.3810   58.2410 N.pl3 193  ARG193      0.1354
    115  NH2       48.5440   87.2400   59.8270 N.pl3 193  ARG193      0.1354
    116  N         47.6600   80.9340   59.1870 N.am  194  PRO194     -0.2727
    117  CA        48.8370   81.7070   59.4810 C.3   194  PRO194      0.1402
    118  C         50.1030   81.0450   58.9870 C.2   194  PRO194      0.2269
    119  O         50.0780   79.9080   58.5480 O.2   194  PRO194     -0.2865
    120  CB        48.8380   81.7730   61.0140 C.3   194  PRO194      0.0296
    121  CG        48.1060   80.5630   61.4330 C.3   194  PRO194      0.0237
    122  CD        47.0170   80.4590   60.4240 C.3   194  PRO194      0.0939
    123  N         47.4830   63.8300   54.9940 N.3   276  SER276     -0.1202
    124  CA        47.5660   64.2870   53.6470 C.3   276  SER276      0.2020
    125  C         49.0290   64.3450   53.2130 C.2   276  SER276      0.2618
    126  O         49.2940   64.5280   52.0260 O.2   276  SER276     -0.2717
    127  CB        46.8970   65.6820   53.5390 C.3   276  SER276      0.2103
    128  OG        47.6200   66.7020   54.2410 O.3   276  SER276     -0.2182
    129  N         49.9830   64.1890   54.1470 N.am  277  LEU277     -0.1979
    130  CA        51.3820   64.5370   53.8410 C.3   277  LEU277      0.1596
    131  C         52.4950   63.5910   54.3360 C.2   277  LEU277      0.2287
    132  O         53.0760   62.8500   53.5440 O.2   277  LEU277     -0.2864
    133  CB        51.6760   65.9850   54.2960 C.3   277  LEU277      0.0297
    134  CG        53.0270   66.5870   53.9120 C.3   277  LEU277      0.0022
    135  CD1       53.4890   66.1530   52.5390 C.3   277  LEU277      0.0001
    136  CD2       52.9670   68.1110   53.9750 C.3   277  LEU277      0.0001
@<TRIPOS>BOND
     1    84    82    1
     2    77    78    1
     3    78    79    1
     4    78    81    1
     5    82    81    1
     6    82    83    1
     7    80    79    2
     8    79    85   am
     9    58    59    1
    10    55    54    2
    11    85    86    1
    12    59    62    1
    13    59    60    1
    14    54    53    1
    15    62    63    1
    16    86    87    1
    17    86    89    1
    18    65    63   ar
    19    65    67   ar
    20    63    64   ar
    21    60    61    2
    22    88    87    2
    23    67    68   ar
    24    64    66   ar
    25    53    52    1
    26    53    56    1
    27    68    66   ar
    28    89    90    1
    29    57    56    1
    30    91    90   ar
    31    91    93   ar
    32    90    92   ar
    33    93    95   ar
    34    69    70    1
    35   126   125    2
    36    92    94   ar
    37    70    71    1
    38    70    73    1
    39    71    72    2
    40   135   134    1
    41    95    94   ar
    42    95    96    1
    43    75    74    1
    44    75    76    1
    45    97    98    1
    46    18    17    1
    47    18    19    1
    48   125   124    1
    49   125   129   am
    50    74    73    1
    51    17    14    1
    52   127   124    1
    53   127   128    1
    54   132   131    2
    55   124   123    1
    56   130   129    1
    57   130   133    1
    58   130   131    1
    59   134   136    1
    60   134   133    1
    61    19    13    1
    62    98   101    1
    63    98    99    1
    64    16    15    2
    65    14    15    1
    66    14    13    1
    67   101   102    1
    68    99   100    2
    69    99   105   am
    70    13    11   am
    71   105   106    1
    72    31    30    1
    73   109   106    1
    74   109   110    1
    75   102   103    1
    76    11    10    1
    77    11    12    2
    78   106   107    1
    79    10     9    1
    80   110   111    1
    81    29    30   ar
    82    29    27   ar
    83    30    28   ar
    84   103   104    1
    85   111   112    1
    86   108   107    2
    87   107   116   am
    88     4     3    2
    89    27    25   ar
    90   114   113    1
    91     9     3   am
    92   112   113    2
    93    28    26   ar
    94   119   118    2
    95     3     2    1
    96   113   115    1
    97   118   117    1
    98   116   117    1
    99   116   122    1
   100   117   120    1
   101    25    26   ar
   102    25    24    1
   103     2     1    1
   104     2     5    1
   105    20    21    1
   106   122   121    1
   107    24    21    1
   108     5     6    1
   109   120   121    1
   110    21    22    1
   111     6     7    1
   112     8     7    1
   113    22    23    2
   114    41    42    1
   115    45    42    1
   116    45    46    1
   117    42    43    1
   118    46    48   ar
   119    46    47   ar
   120    40    38   am
   121    37    38    1
   122    37    36    1
   123    48    50   ar
   124    47    49   ar
   125    43    44    2
   126    38    39    2
   127    32    33    1
   128    33    36    1
   129    33    34    1
   130    50    51   ar
   131    49    51   ar
   132    34    35    2
