@<TRIPOS>MOLECULE
tmp/5czgA00.pdb
 118 116 0 0 0
SMALL
GASTEIGER

@<TRIPOS>ATOM
      1  N          1.3460   17.0910  -32.7170 N.3    31  MET31      -0.1230
      2  CA        -0.1060   17.2590  -32.6770 C.3    31  MET31       0.1702
      3  C         -0.6290   17.6370  -31.2930 C.2    31  MET31       0.2592
      4  O         -1.6760   18.2850  -31.2010 O.2    31  MET31      -0.2718
      5  CB        -0.8420   16.0200  -33.2080 C.3    31  MET31       0.0401
      6  CG        -0.7960   14.7910  -32.3210 C.3    31  MET31       0.0596
      7  SD        -1.8120   13.4320  -32.9560 S.3    31  MET31      -0.1393
      8  CE        -3.4610   13.8520  -32.4410 C.3    31  MET31       0.0692
      9  N          0.1020   17.2490  -30.2430 N.am   32  PHE32      -0.1976
     10  CA        -0.2840   17.5190  -28.8590 C.3    32  PHE32       0.1639
     11  C          0.4840   18.6920  -28.2500 C.2    32  PHE32       0.2290
     12  O          0.2800   19.0340  -27.0810 O.2    32  PHE32      -0.2864
     13  CB        -0.0430   16.2740  -28.0040 C.3    32  PHE32       0.0560
     14  CG        -0.9000   15.0920  -28.3700 C.ar   32  PHE32      -0.0200
     15  CD1       -2.2720   15.1470  -28.2530 C.ar   32  PHE32      -0.0042
     16  CD2       -0.3190   13.9070  -28.7960 C.ar   32  PHE32      -0.0042
     17  CE1       -3.0630   14.0510  -28.5650 C.ar   32  PHE32      -0.0003
     18  CE2       -1.0980   12.8100  -29.1130 C.ar   32  PHE32      -0.0003
     19  CZ        -2.4740   12.8840  -28.9980 C.ar   32  PHE32      -0.0000
     20  N          0.4460   22.0060  -28.8310 N.3    34  HIS34      -0.1241
     21  CA        -0.2780   23.2510  -28.6060 C.3    34  HIS34       0.1621
     22  C         -1.7760   22.9990  -28.6580 C.2    34  HIS34       0.2264
     23  O         -2.2070   21.9720  -29.1820 O.2    34  HIS34      -0.2867
     24  CB         0.1360   24.2800  -29.6560 C.3    34  HIS34       0.0745
     25  CG         1.5990   24.5840  -29.6320 C.ar   34  HIS34       0.0817
     26  ND1        2.1900   25.2970  -28.6140 N.ar   34  HIS34      -0.2268
     27  CD2        2.5930   24.2280  -30.4780 C.ar   34  HIS34       0.1154
     28  CE1        3.4900   25.3830  -28.8430 C.ar   34  HIS34       0.1986
     29  NE2        3.7580   24.7450  -29.9650 N.ar   34  HIS34      -0.2212
     30  N         -5.5810   22.7420  -29.6510 N.3    36  VAL36      -0.1231
     31  CA        -6.3360   22.7370  -30.8950 C.3    36  VAL36       0.1692
     32  C         -6.9710   24.1190  -31.0700 C.2    36  VAL36       0.2592
     33  O         -7.6660   24.6350  -30.1870 O.2    36  VAL36      -0.2718
     34  CB        -7.4290   21.6640  -30.9270 C.3    36  VAL36       0.0266
     35  CG1       -8.3440   21.8800  -32.1410 C.3    36  VAL36       0.0020
     36  CG2       -6.8130   20.2880  -30.9540 C.3    36  VAL36       0.0020
     37  N         -6.6980   24.7180  -32.2210 N.am   37  SER37      -0.1952
     38  CA        -7.2210   26.0200  -32.5720 C.3    37  SER37       0.1924
     39  C         -8.5380   25.8380  -33.3240 C.2    37  SER37       0.2314
     40  O         -8.6280   25.0260  -34.2450 O.2    37  SER37      -0.2863
     41  CB        -6.1990   26.7190  -33.4660 C.3    37  SER37       0.2116
     42  OG        -6.7580   27.8150  -34.1460 O.3    37  SER37      -0.2180
     43  N         -8.2990   26.1650  -36.9770 N.3    40  GLU40      -0.1231
     44  CA        -7.8060   25.0020  -37.7010 C.3    40  GLU40       0.1699
     45  C         -8.8620   23.8900  -37.7510 C.2    40  GLU40       0.2592
     46  O         -9.0240   23.2380  -38.7780 O.2    40  GLU40      -0.2718
     47  CB        -6.5100   24.4760  -37.0770 C.3    40  GLU40       0.0402
     48  CG        -5.3850   25.4950  -36.9400 C.3    40  GLU40       0.1161
     49  CD        -4.7680   25.9020  -38.2620 C.2    40  GLU40       0.3649
     50  OE1       -5.0720   25.2650  -39.2780 O.co2  40  GLU40      -0.2457
     51  OE2       -3.9590   26.8580  -38.2730 O.co2  40  GLU40      -0.2457
     52  N         -9.5890   23.6800  -36.6580 N.am   41  LEU41      -0.1980
     53  CA       -10.6450   22.6640  -36.6000 C.3    41  LEU41       0.1596
     54  C        -11.9220   23.2720  -36.0210 C.2    41  LEU41       0.2287
     55  O        -12.1860   23.1560  -34.8140 O.2    41  LEU41      -0.2864
     56  CB       -10.2060   21.4630  -35.7530 C.3    41  LEU41       0.0297
     57  CG        -9.0500   20.6100  -36.2810 C.3    41  LEU41       0.0022
     58  CD1       -8.7230   19.5170  -35.2700 C.3    41  LEU41       0.0001
     59  CD2       -9.3550   20.0150  -37.6840 C.3    41  LEU41       0.0001
     60  N        -14.9650   22.4430  -36.0960 N.3    43  ASP43      -0.1225
     61  CA       -15.9930   21.5190  -35.6020 C.3    43  ASP43       0.1805
     62  C        -15.5000   20.7090  -34.4050 C.2    43  ASP43       0.2597
     63  O        -16.1630   19.7790  -33.9680 O.2    43  ASP43      -0.2718
     64  CB       -16.5230   20.5910  -36.7120 C.3    43  ASP43       0.1424
     65  CG       -15.5560   19.4870  -37.0920 C.2    43  ASP43       0.3668
     66  OD1      -14.3520   19.5760  -36.7530 O.co2  43  ASP43      -0.2456
     67  OD2      -16.0150   18.5210  -37.7670 O.co2  43  ASP43      -0.2456
     68  N        -14.3340   21.0590  -33.8860 N.am   44  TYR44      -0.1976
     69  CA       -13.7220   20.2870  -32.8030 C.3    44  TYR44       0.1639
     70  C        -14.4020   20.4610  -31.4450 C.2    44  TYR44       0.2290
     71  O        -14.6790   19.4830  -30.7660 O.2    44  TYR44      -0.2864
     72  CB       -12.2480   20.6530  -32.7020 C.3    44  TYR44       0.0560
     73  CG       -11.4500   19.8870  -31.6610 C.ar   44  TYR44      -0.0198
     74  CD1      -10.9070   18.6350  -31.9500 C.ar   44  TYR44      -0.0009
     75  CD2      -11.1960   20.4290  -30.3940 C.ar   44  TYR44      -0.0009
     76  CE1      -10.1560   17.9420  -31.0140 C.ar   44  TYR44       0.0417
     77  CE2      -10.4400   19.7370  -29.4680 C.ar   44  TYR44       0.0417
     78  CZ        -9.9320   18.5030  -29.7820 C.ar   44  TYR44       0.1957
     79  OH        -9.1970   17.8210  -28.8470 O.3    44  TYR44      -0.2866
     80  N         -8.5110   12.9430  -28.4670 N.3    83  ALA83      -0.1245
     81  CA        -8.1040   12.6790  -29.8470 C.3    83  ALA83       0.1562
     82  C         -8.7840   11.4340  -30.4180 C.2    83  ALA83       0.2260
     83  O         -9.1500   11.4040  -31.5960 O.2    83  ALA83      -0.2867
     84  CB        -6.6020   12.5540  -29.9410 C.3    83  ALA83       0.0290
     85  N        -12.5910   12.3590  -31.1010 N.3    86  TYR86      -0.1227
     86  CA       -12.8240   13.2540  -32.2300 C.3    86  TYR86       0.1736
     87  C        -12.4790   12.6050  -33.5660 C.2    86  TYR86       0.2595
     88  O        -13.2270   12.7290  -34.5410 O.2    86  TYR86      -0.2718
     89  CB       -12.0150   14.5460  -32.0640 C.3    86  TYR86       0.0548
     90  CG       -12.1280   15.4420  -33.2650 C.ar   86  TYR86      -0.0200
     91  CD1      -13.2670   16.2110  -33.4740 C.ar   86  TYR86      -0.0009
     92  CD2      -11.1070   15.5050  -34.1980 C.ar   86  TYR86      -0.0009
     93  CE1      -13.3830   17.0300  -34.6030 C.ar   86  TYR86       0.0417
     94  CE2      -11.2080   16.3140  -35.3240 C.ar   86  TYR86       0.0417
     95  CZ       -12.3410   17.0770  -35.5180 C.ar   86  TYR86       0.1957
     96  OH       -12.4220   17.8710  -36.6520 O.3    86  TYR86      -0.2866
     97  N        -11.3440   11.9220  -33.6240 N.am   87  ASN87      -0.1974
     98  CA       -10.7910   11.4650  -34.9110 C.3    87  ASN87       0.1688
     99  C        -11.4100   10.1640  -35.4160 C.2    87  ASN87       0.2292
    100  O        -12.0350    9.4160  -34.6590 O.2    87  ASN87      -0.2864
    101  CB        -9.2680   11.3490  -34.8000 C.3    87  ASN87       0.1181
    102  CG        -8.5960   12.7020  -34.7580 C.2    87  ASN87       0.2629
    103  OD1       -8.5330   13.4060  -35.7730 O.2    87  ASN87      -0.2716
    104  ND2       -8.1070   13.0860  -33.5860 N.am   87  ASN87      -0.0877
    105  N         -3.8630   11.1200  -37.2190 N.3    93  TRP93      -0.1241
    106  CA        -4.0280   11.6310  -35.8590 C.3    93  TRP93       0.1605
    107  C         -4.4830   10.5080  -34.9160 C.2    93  TRP93       0.2264
    108  O         -4.0080   10.3910  -33.7650 O.2    93  TRP93      -0.2867
    109  CB        -5.0410   12.7780  -35.8680 C.3    93  TRP93       0.0550
    110  CG        -4.8660   13.7160  -37.0360 C.ar   93  TRP93       0.0003
    111  CD1       -5.6330   13.7760  -38.1720 C.ar   93  TRP93       0.0946
    112  CD2       -3.8620   14.7200  -37.1830 C.ar   93  TRP93       0.0152
    113  NE1       -5.1710   14.7560  -39.0010 N.ar   93  TRP93      -0.2442
    114  CE2       -4.0850   15.3550  -38.4220 C.ar   93  TRP93       0.0810
    115  CE3       -2.8020   15.1530  -36.3870 C.ar   93  TRP93       0.0012
    116  CZ2       -3.2810   16.3980  -38.8860 C.ar   93  TRP93       0.0191
    117  CZ3       -2.0060   16.1930  -36.8510 C.ar   93  TRP93       0.0001
    118  CH2       -2.2520   16.8030  -38.0810 C.ar   93  TRP93       0.0015
@<TRIPOS>BOND
     1    50    49   ar
     2   113   114   ar
     3   113   111   ar
     4   116   114   ar
     5   116   118   ar
     6    46    45    2
     7   114   112   ar
     8    51    49   ar
     9    49    48    1
    10   111   110   ar
    11   118   117   ar
    12    67    65   ar
    13    45    44    1
    14    45    52   am
    15    44    47    1
    16    44    43    1
    17    59    57    1
    18   105   106    1
    19   112   110   ar
    20   112   115   ar
    21    65    66   ar
    22    65    64    1
    23    47    48    1
    24   110   109    1
    25   117   115   ar
    26    64    61    1
    27    52    53    1
    28    96    95    1
    29    53    54    1
    30    53    56    1
    31    57    56    1
    32    57    58    1
    33    60    61    1
    34    54    55    2
    35   109   106    1
    36   106   107    1
    37   103   102    2
    38    61    62    1
    39    95    94   ar
    40    95    93   ar
    41    99    98    1
    42    99   100    2
    43    94    92   ar
    44   107   108    2
    45    98   101    1
    46    98    97    1
    47   101   102    1
    48   102   104   am
    49    93    91   ar
    50    88    87    2
    51    62    63    2
    52    62    68   am
    53    40    39    2
    54    92    90   ar
    55    42    41    1
    56    68    69    1
    57    97    87   am
    58    87    86    1
    59    91    90   ar
    60    41    38    1
    61    39    38    1
    62    90    89    1
    63     5     2    1
    64     5     6    1
    65     7     8    1
    66     7     6    1
    67    69    72    1
    68    69    70    1
    69     1     2    1
    70    72    73    1
    71     2     3    1
    72    38    37    1
    73    86    89    1
    74    86    85    1
    75    37    32   am
    76    35    34    1
    77    74    73   ar
    78    74    76   ar
    79    73    75   ar
    80    83    82    2
    81    70    71    2
    82     3     4    2
    83     3     9   am
    84    32    31    1
    85    32    33    2
    86    76    78   ar
    87    36    34    1
    88    34    31    1
    89    31    30    1
    90    27    29   ar
    91    27    25   ar
    92    82    81    1
    93    75    77   ar
    94     9    10    1
    95    29    28   ar
    96    84    81    1
    97    81    80    1
    98    78    77   ar
    99    78    79    1
   100    24    25    1
   101    24    21    1
   102    25    26   ar
   103    23    22    2
   104    18    19   ar
   105    18    16   ar
   106    19    17   ar
   107    10    11    1
   108    10    13    1
   109    28    26   ar
   110    20    21    1
   111    16    14   ar
   112    22    21    1
   113    17    15   ar
   114    14    15   ar
   115    14    13    1
   116    11    12    2
