@<TRIPOS>MOLECULE
tmp/5cziA00.pdb
 154 149 0 0 0
SMALL
GASTEIGER

@<TRIPOS>ATOM
      1  N        -53.6970  -12.9890  -30.7980 N.3   142  ASP142     -0.1239
      2  CA       -52.8740  -12.8770  -29.6120 C.3   142  ASP142      0.1674
      3  C        -53.6360  -12.6040  -28.3230 C.2   142  ASP142      0.2266
      4  O        -53.1490  -11.8870  -27.4710 O.2   142  ASP142     -0.2867
      5  CB       -51.7720  -11.8490  -29.8180 C.3   142  ASP142      0.1410
      6  CG       -50.6670  -11.9810  -28.8100 C.2   142  ASP142      0.3668
      7  OD1      -49.8590  -11.0550  -28.6770 O.co2 142  ASP142     -0.2456
      8  OD2      -50.6060  -13.0140  -28.1350 O.co2 142  ASP142     -0.2456
      9  N        -52.4930  -10.6740  -20.6930 N.3   146  ARG146     -0.1231
     10  CA       -51.5090   -9.6010  -20.8550 C.3   146  ARG146      0.1694
     11  C        -52.0150   -8.5490  -21.8640 C.2   146  ARG146      0.2592
     12  O        -51.5720   -7.4030  -21.8370 O.2   146  ARG146     -0.2718
     13  CB       -50.1450  -10.1670  -21.3140 C.3   146  ARG146      0.0321
     14  CG       -50.0380  -10.3780  -22.8280 C.3   146  ARG146      0.0489
     15  CD       -48.7300  -11.0090  -23.3200 C.3   146  ARG146      0.2205
     16  NE       -48.7760  -12.4520  -23.1540 N.pl3 146  ARG146     -0.0865
     17  CZ       -49.0860  -13.3270  -24.1050 C.cat 146  ARG146      0.5346
     18  NH1      -49.3560  -12.9350  -25.3400 N.pl3 146  ARG146      0.1354
     19  NH2      -49.1160  -14.6140  -23.8060 N.pl3 146  ARG146      0.1354
     20  N        -52.9290   -8.9400  -22.7570 N.am  147  ASN147     -0.1974
     21  CA       -53.4410   -8.0260  -23.7810 C.3   147  ASN147      0.1688
     22  C        -54.8720   -7.5730  -23.5240 C.2   147  ASN147      0.2292
     23  O        -55.6110   -7.2280  -24.4480 O.2   147  ASN147     -0.2864
     24  CB       -53.2890   -8.6290  -25.1770 C.3   147  ASN147      0.1181
     25  CG       -51.8430   -8.8690  -25.5180 C.2   147  ASN147      0.2629
     26  OD1      -50.9820   -8.1050  -25.0770 O.2   147  ASN147     -0.2716
     27  ND2      -51.5490   -9.9420  -26.2680 N.am  147  ASN147     -0.0877
     28  N        -53.5810   -4.7630  -27.9890 N.3   160  ASP160     -0.1239
     29  CA       -52.4990   -5.4310  -28.7140 C.3   160  ASP160      0.1674
     30  C        -52.8950   -6.0780  -30.0260 C.2   160  ASP160      0.2266
     31  O        -53.0090   -7.2780  -30.1260 O.2   160  ASP160     -0.2867
     32  CB       -51.7640   -6.4350  -27.8380 C.3   160  ASP160      0.1410
     33  CG       -50.3640   -6.7310  -28.3380 C.2   160  ASP160      0.3668
     34  OD1      -50.1730   -6.8180  -29.5600 O.co2 160  ASP160     -0.2456
     35  OD2      -49.4490   -6.8760  -27.5100 O.co2 160  ASP160     -0.2456
     36  N        -50.7410   -8.6660  -34.0130 N.3   163  ARG163     -0.1245
     37  CA       -50.8910   -9.8590  -34.8410 C.3   163  ARG163      0.1563
     38  C        -52.2330   -9.9860  -35.5600 C.2   163  ARG163      0.2260
     39  O        -52.4690  -10.9620  -36.2390 O.2   163  ARG163     -0.2867
     40  CB       -50.6180  -11.1240  -34.0310 C.3   163  ARG163      0.0307
     41  CG       -49.5490  -10.9730  -32.9700 C.3   163  ARG163      0.0489
     42  CD       -48.6620  -12.2030  -32.8650 C.3   163  ARG163      0.2205
     43  NE       -49.4120  -13.4370  -32.6610 N.pl3 163  ARG163     -0.0865
     44  CZ       -49.3030  -14.5090  -33.4350 C.cat 163  ARG163      0.5346
     45  NH1      -48.4780  -14.5030  -34.4620 N.pl3 163  ARG163      0.1354
     46  NH2      -50.0190  -15.5840  -33.1890 N.pl3 163  ARG163      0.1354
     47  N        -43.8930  -17.9270  -40.6920 N.3   178  GLY178     -0.1210
     48  CA       -43.1830  -18.1390  -39.4470 C.3   178  GLY178      0.1956
     49  C        -42.8720  -16.8540  -38.7140 C.2   178  GLY178      0.2612
     50  O        -42.5560  -15.8470  -39.3160 O.2   178  GLY178     -0.2717
     51  N        -43.0190  -16.8950  -37.3990 N.am  179  GLY179     -0.1942
     52  CA       -42.8120  -15.7450  -36.5440 C.3   179  GLY179      0.2014
     53  C        -42.6560  -16.2250  -35.1220 C.2   179  GLY179      0.2639
     54  O        -42.8550  -17.3980  -34.8630 O.2   179  GLY179     -0.2714
     55  N        -42.2720  -15.3420  -34.2090 N.am  180  LYS180     -0.1963
     56  CA       -42.3540  -15.6540  -32.7910 C.3   180  LYS180      0.1728
     57  C        -43.8230  -15.6510  -32.3860 C.2   180  LYS180      0.2616
     58  O        -44.5590  -14.7520  -32.7470 O.2   180  LYS180     -0.2715
     59  CB       -41.5710  -14.6400  -31.9730 C.3   180  LYS180      0.0311
     60  CG       -40.1320  -15.0390  -31.7330 C.3   180  LYS180      0.0038
     61  CD       -39.4940  -14.1460  -30.6890 C.3   180  LYS180      0.0206
     62  CE       -38.0180  -13.9280  -30.9710 C.3   180  LYS180      0.1093
     63  NZ       -37.3270  -13.3160  -29.8040 N.3   180  LYS180     -0.1314
     64  N        -44.2480  -16.6590  -31.6370 N.am  181  VAL181     -0.1964
     65  CA       -45.6660  -16.8560  -31.3680 C.3   181  VAL181      0.1712
     66  C        -45.9650  -17.2570  -29.9350 C.2   181  VAL181      0.2458
     67  O        -45.1630  -17.9120  -29.2960 O.2   181  VAL181     -0.2730
     68  CB       -46.2310  -17.9200  -32.3050 C.3   181  VAL181      0.0289
     69  CG1      -46.0880  -17.4590  -33.7340 C.3   181  VAL181      0.0023
     70  CG2      -45.4820  -19.2160  -32.1200 C.3   181  VAL181      0.0023
     71  N        -47.1300  -16.8740  -29.4300 N.am  182  PRO182     -0.2716
     72  CA       -47.4530  -17.1620  -28.0290 C.3   182  PRO182      0.1536
     73  C        -47.9640  -18.5990  -27.8960 C.2   182  PRO182      0.2598
     74  O        -49.1730  -18.8030  -27.7250 O.2   182  PRO182     -0.2715
     75  CB       -48.5560  -16.1480  -27.7230 C.3   182  PRO182      0.0310
     76  CG       -49.2610  -15.9770  -29.0510 C.3   182  PRO182      0.0237
     77  CD       -48.2330  -16.1800  -30.1250 C.3   182  PRO182      0.0939
     78  N        -47.0330  -19.5530  -27.9820 N.am  183  ILE183     -0.1964
     79  CA       -47.3060  -20.9870  -28.0240 C.3   183  ILE183      0.1727
     80  C        -48.3760  -21.4360  -27.0330 C.2   183  ILE183      0.2616
     81  O        -49.3530  -22.1240  -27.4000 O.2   183  ILE183     -0.2715
     82  CB       -46.0120  -21.8150  -27.7620 C.3   183  ILE183      0.0290
     83  CG1      -45.0910  -21.7710  -28.9860 C.3   183  ILE183      0.0022
     84  CG2      -46.3470  -23.2690  -27.4580 C.3   183  ILE183      0.0023
     85  CD1      -45.7530  -22.2810  -30.2630 C.3   183  ILE183      0.0001
     86  N        -48.2010  -21.0260  -25.7820 N.am  184  LYS184     -0.1963
     87  CA       -49.0330  -21.5390  -24.7160 C.3   184  LYS184      0.1728
     88  C        -50.4400  -20.9090  -24.6500 C.2   184  LYS184      0.2616
     89  O        -51.1660  -21.0960  -23.6680 O.2   184  LYS184     -0.2715
     90  CB       -48.2910  -21.4230  -23.3830 C.3   184  LYS184      0.0311
     91  CG       -47.1170  -22.3940  -23.2690 C.3   184  LYS184      0.0038
     92  CD       -46.3210  -22.1400  -22.0040 C.3   184  LYS184      0.0206
     93  CE       -45.1590  -23.0970  -21.8750 C.3   184  LYS184      0.1093
     94  NZ       -44.4390  -22.8660  -20.5920 N.3   184  LYS184     -0.1314
     95  N        -50.8310  -20.1820  -25.6940 N.am  185  TRP185     -0.1974
     96  CA       -52.1650  -19.5920  -25.7560 C.3   185  TRP185      0.1640
     97  C        -52.8420  -20.0270  -27.0300 C.2   185  TRP185      0.2290
     98  O        -53.9600  -19.6160  -27.3240 O.2   185  TRP185     -0.2864
     99  CB       -52.0910  -18.0590  -25.7210 C.3   185  TRP185      0.0576
    100  CG       -51.9440  -17.4810  -24.3350 C.ar  185  TRP185      0.0006
    101  CD1      -52.9340  -16.9260  -23.5700 C.ar  185  TRP185      0.0946
    102  CD2      -50.7380  -17.4000  -23.5560 C.ar  185  TRP185      0.0152
    103  NE1      -52.4210  -16.5040  -22.3640 N.ar  185  TRP185     -0.2442
    104  CE2      -51.0740  -16.7880  -22.3240 C.ar  185  TRP185      0.0810
    105  CE3      -49.4040  -17.7840  -23.7760 C.ar  185  TRP185      0.0012
    106  CZ2      -50.1260  -16.5590  -21.3070 C.ar  185  TRP185      0.0191
    107  CZ3      -48.4590  -17.5500  -22.7710 C.ar  185  TRP185      0.0001
    108  CH2      -48.8290  -16.9460  -21.5520 C.ar  185  TRP185      0.0015
    109  N        -50.5680  -23.9910  -33.9690 N.3   191  ILE191     -0.1245
    110  CA       -49.2140  -24.4520  -33.6750 C.3   191  ILE191      0.1561
    111  C        -48.6920  -25.4100  -34.7440 C.2   191  ILE191      0.2260
    112  O        -47.5410  -25.3400  -35.1450 O.2   191  ILE191     -0.2867
    113  CB       -49.1410  -25.1810  -32.3130 C.3   191  ILE191      0.0252
    114  CG1      -49.6440  -24.2840  -31.1750 C.3   191  ILE191      0.0019
    115  CG2      -47.7220  -25.6660  -32.0410 C.3   191  ILE191      0.0019
    116  CD1      -49.8720  -25.0560  -29.8720 C.3   191  ILE191      0.0001
    117  N        -50.1170  -23.2910  -38.5620 N.3   194  ARG194     -0.1245
    118  CA       -50.1170  -21.8560  -38.7840 C.3   194  ARG194      0.1563
    119  C        -51.4490  -21.4160  -39.3600 C.2   194  ARG194      0.2260
    120  O        -51.5410  -20.4180  -40.0520 O.2   194  ARG194     -0.2867
    121  CB       -48.9880  -21.4600  -39.7190 C.3   194  ARG194      0.0307
    122  CG       -47.6690  -22.1340  -39.4110 C.3   194  ARG194      0.0489
    123  CD       -46.5100  -21.2450  -39.8040 C.3   194  ARG194      0.2205
    124  NE       -45.2960  -21.5540  -39.0620 N.pl3 194  ARG194     -0.0865
    125  CZ       -44.1050  -21.7040  -39.6290 C.cat 194  ARG194      0.5346
    126  NH1      -43.9840  -21.5740  -40.9400 N.pl3 194  ARG194      0.1354
    127  NH2      -43.0390  -21.9870  -38.8960 N.pl3 194  ARG194      0.1354
    128  N        -49.2030  -19.0650  -14.6000 N.3   218  LYS218     -0.1245
    129  CA       -48.6280  -19.2740  -15.9240 C.3   218  LYS218      0.1561
    130  C        -49.0700  -20.6160  -16.4860 C.2   218  LYS218      0.2260
    131  O        -48.8080  -21.6590  -15.8960 O.2   218  LYS218     -0.2867
    132  CB       -47.0970  -19.2210  -15.8590 C.3   218  LYS218      0.0271
    133  CG       -46.5500  -17.9400  -15.2430 C.3   218  LYS218      0.0035
    134  CD       -45.0360  -17.8520  -15.3580 C.3   218  LYS218      0.0206
    135  CE       -44.5530  -16.5570  -14.7280 C.3   218  LYS218      0.1093
    136  NZ       -43.1990  -16.1450  -15.2090 N.3   218  LYS218     -0.1314
    137  N        -41.7410  -26.9630  -21.3060 N.3   224  PRO224     -0.2102
    138  CA       -41.1650  -26.2240  -22.4350 C.3   224  PRO224      0.1504
    139  C        -42.1480  -26.0770  -23.5770 C.2   224  PRO224      0.2576
    140  O        -42.7750  -27.0630  -23.9800 O.2   224  PRO224     -0.2718
    141  CB       -40.0180  -27.1340  -22.8850 C.3   224  PRO224      0.0282
    142  CG       -40.5090  -28.5150  -22.5670 C.3   224  PRO224      0.0208
    143  CD       -41.2370  -28.3500  -21.2500 C.3   224  PRO224      0.0893
    144  N        -42.2540  -24.8660  -24.1140 N.am  225  ALA225     -0.1966
    145  CA       -43.1740  -24.5960  -25.2110 C.3   225  ALA225      0.1728
    146  C        -43.0270  -25.5870  -26.3820 C.2   225  ALA225      0.2616
    147  O        -43.9880  -25.8540  -27.1170 O.2   225  ALA225     -0.2715
    148  CB       -43.0220  -23.1530  -25.6780 C.3   225  ALA225      0.0334
    149  N        -41.8320  -26.1560  -26.5270 N.am  226  SER226     -0.1950
    150  CA       -41.5340  -27.0860  -27.6220 C.3   226  SER226      0.1924
    151  C        -42.2360  -28.4280  -27.4560 C.2   226  SER226      0.2314
    152  O        -42.3560  -29.1990  -28.4120 O.2   226  SER226     -0.2863
    153  CB       -40.0240  -27.2950  -27.7380 C.3   226  SER226      0.2116
    154  OG       -39.4050  -27.2370  -26.4620 O.3   226  SER226     -0.2180
@<TRIPOS>BOND
     1   126   125    1
     2    47    48    1
     3   120   119    2
     4   123   122    1
     5   123   124    1
     6   121   122    1
     7   121   118    1
     8   125   124    2
     9   125   127    1
    10    48    49    1
    11   119   118    1
    12    50    49    2
    13   118   117    1
    14    49    51   am
    15    51    52    1
    16    52    53    1
    17    39    38    2
    18    38    37    1
    19   112   111    2
    20    53    54    2
    21    53    55   am
    22    37    40    1
    23    37    36    1
    24   111   110    1
    25    45    44    1
    26    55    56    1
    27    40    41    1
    28   109   110    1
    29    69    68    1
    30   110   113    1
    31    44    46    1
    32    44    43    2
    33    41    42    1
    34    42    43    1
    35    56    57    1
    36    56    59    1
    37    58    57    2
    38    57    64   am
    39   113   115    1
    40   113   114    1
    41    68    70    1
    42    68    65    1
    43    59    60    1
    44    60    61    1
    45    64    65    1
    46    65    66    1
    47   114   116    1
    48    62    61    1
    49    62    63    1
    50     1     2    1
    51    85    83    1
    52    31    30    2
    53    77    71    1
    54    77    76    1
    55    30    29    1
    56    66    71   am
    57    66    67    2
    58     5     2    1
    59     5     6    1
    60     2     3    1
    61    34    33   ar
    62    71    72    1
    63    76    75    1
    64    83    82    1
    65     6     7   ar
    66     6     8   ar
    67    29    28    1
    68    29    32    1
    69   152   151    2
    70    33    32    1
    71    33    35   ar
    72     3     4    2
    73    72    73    1
    74    72    75    1
    75    79    78    1
    76    79    82    1
    77    79    80    1
    78    78    73   am
    79    73    74    2
    80    82    84    1
    81   153   150    1
    82   153   154    1
    83   150   151    1
    84   150   149    1
    85    81    80    2
    86    98    97    2
    87   147   146    2
    88    80    86   am
    89    97    96    1
    90   149   146   am
    91   146   145    1
    92    27    25   am
    93    86    87    1
    94    96    99    1
    95    96    95    1
    96    99   100    1
    97    95    88   am
    98   148   145    1
    99    25    24    1
   100    25    26    2
   101    18    17    1
   102   145   144    1
   103    24    21    1
   104    87    88    1
   105    87    90    1
   106    88    89    2
   107    23    22    2
   108   100   101   ar
   109   100   102   ar
   110   144   139   am
   111    17    19    1
   112    17    16    2
   113   140   139    2
   114    21    22    1
   115    21    20    1
   116   105   102   ar
   117   105   107   ar
   118   139   138    1
   119   101   103   ar
   120   102   104   ar
   121    90    91    1
   122    15    16    1
   123    15    14    1
   124    91    92    1
   125   141   142    1
   126   141   138    1
   127    14    13    1
   128   107   108   ar
   129    20    11   am
   130   142   143    1
   131   138   137    1
   132   103   104   ar
   133   104   106   ar
   134    92    93    1
   135    93    94    1
   136    11    12    2
   137    11    10    1
   138   108   106   ar
   139    13    10    1
   140   137   143    1
   141    10     9    1
   142   130   129    1
   143   130   131    2
   144   129   132    1
   145   129   128    1
   146   132   133    1
   147   134   133    1
   148   134   135    1
   149   136   135    1
