@<TRIPOS>MOLECULE
tmp/5czkA00.pdb
 134 129 0 0 0
SMALL
GASTEIGER

@<TRIPOS>ATOM
      1  N        -10.9140  -35.6290   49.0900 N.3   162  ASP162     -0.1239
      2  CA       -12.2960  -35.9020   49.4690 C.3   162  ASP162      0.1674
      3  C        -13.0990  -36.6340   48.3890 C.2   162  ASP162      0.2266
      4  O        -13.9060  -37.5010   48.7010 O.2   162  ASP162     -0.2867
      5  CB       -12.9940  -34.5870   49.8390 C.3   162  ASP162      0.1410
      6  CG       -12.8970  -33.5390   48.7350 C.2   162  ASP162      0.3668
      7  OD1      -11.9910  -33.6490   47.8810 O.co2 162  ASP162     -0.2456
      8  OD2      -13.7200  -32.5990   48.7200 O.co2 162  ASP162     -0.2456
      9  N         -2.7440  -34.6560   57.7330 N.3   355  SER355     -0.1202
     10  CA        -3.3590  -34.1870   58.9690 C.3   355  SER355      0.2020
     11  C         -4.8120  -33.7390   58.8150 C.2   355  SER355      0.2619
     12  O         -5.3340  -33.0380   59.6780 O.2   355  SER355     -0.2717
     13  CB        -2.5380  -33.0330   59.5470 C.3   355  SER355      0.2103
     14  OG        -1.1770  -33.3960   59.6590 O.3   355  SER355     -0.2182
     15  N         -5.4850  -34.1700   57.7720 N.am  356  LEU356     -0.1965
     16  CA        -6.8540  -33.7480   57.5820 C.3   356  LEU356      0.1728
     17  C         -7.7750  -34.3450   58.5890 C.2   356  LEU356      0.2617
     18  O         -8.7290  -33.7160   58.9920 O.2   356  LEU356     -0.2715
     19  CB        -7.3170  -34.0390   56.1940 C.3   356  LEU356      0.0311
     20  CG        -6.6150  -33.1730   55.1720 C.3   356  LEU356      0.0022
     21  CD1       -7.2720  -33.3130   53.8320 C.3   356  LEU356      0.0001
     22  CD2       -6.5700  -31.7290   55.5880 C.3   356  LEU356      0.0001
     23  N         -7.4630  -35.5550   59.0140 N.am  357  GLY357     -0.1940
     24  CA        -8.1140  -36.1500   60.1510 C.3   357  GLY357      0.2014
     25  C         -9.4470  -36.7930   59.9200 C.2   357  GLY357      0.2639
     26  O        -10.1260  -37.1300   60.8630 O.2   357  GLY357     -0.2714
     27  N         -9.8310  -36.9500   58.6710 N.am  358  ILE358     -0.1963
     28  CA       -11.0450  -37.6460   58.3800 C.3   358  ILE358      0.1727
     29  C        -10.6590  -38.9680   57.7860 C.2   358  ILE358      0.2616
     30  O        -10.1570  -39.0350   56.6760 O.2   358  ILE358     -0.2715
     31  CB       -11.9320  -36.8750   57.4130 C.3   358  ILE358      0.0290
     32  CG1      -11.8530  -35.4030   57.6930 C.3   358  ILE358      0.0022
     33  CG2      -13.3650  -37.3060   57.5720 C.3   358  ILE358      0.0023
     34  CD1      -12.7770  -34.6140   56.8230 C.3   358  ILE358      0.0001
     35  N        -10.9610  -40.0200   58.5340 N.am  359  GLY359     -0.1955
     36  CA       -10.4690  -41.3570   58.2840 C.3   359  GLY359      0.1869
     37  C        -10.4660  -42.1300   59.5880 C.2   359  GLY359      0.2309
     38  O        -10.9100  -41.6170   60.6010 O.2   359  GLY359     -0.2863
     39  N         -4.6380  -27.2220   49.6170 N.3   404  GLU404     -0.1245
     40  CA        -4.5120  -27.6350   51.0220 C.3   404  GLU404      0.1567
     41  C         -3.3200  -28.5390   51.3620 C.2   404  GLU404      0.2260
     42  O         -3.5030  -29.6060   51.9470 O.2   404  GLU404     -0.2867
     43  CB        -5.7900  -28.3530   51.4590 C.3   404  GLU404      0.0388
     44  CG        -7.0010  -27.4470   51.5940 C.3   404  GLU404      0.1160
     45  CD        -8.2040  -28.1770   52.1560 C.2   404  GLU404      0.3649
     46  OE1       -9.1040  -27.5080   52.7070 O.co2 404  GLU404     -0.2457
     47  OE2       -8.2450  -29.4230   52.0500 O.co2 404  GLU404     -0.2457
     48  N         -4.9440  -24.6540   53.5530 N.3   437  VAL437     -0.1245
     49  CA        -5.6930  -25.4030   54.5280 C.3   437  VAL437      0.1561
     50  C         -5.7810  -24.6490   55.8380 C.2   437  VAL437      0.2260
     51  O         -4.8630  -24.0080   56.2310 O.2   437  VAL437     -0.2867
     52  CB        -5.1170  -26.7950   54.7200 C.3   437  VAL437      0.0252
     53  CG1       -3.8770  -26.7600   55.5780 C.3   437  VAL437      0.0019
     54  CG2       -6.1640  -27.7000   55.3020 C.3   437  VAL437      0.0019
     55  N         -5.9700  -25.1450   59.2230 N.3   438  PHE438     -0.1241
     56  CA        -5.1580  -25.2920   60.4310 C.3   438  PHE438      0.1605
     57  C         -3.7210  -24.8070   60.2020 C.2   438  PHE438      0.2264
     58  O         -2.9680  -24.6260   61.1550 O.2   438  PHE438     -0.2867
     59  CB        -5.1650  -26.7290   60.9680 C.3   438  PHE438      0.0534
     60  CG        -4.9040  -27.7850   59.9410 C.ar  438  PHE438     -0.0203
     61  CD1       -3.6110  -28.0620   59.5200 C.ar  438  PHE438     -0.0042
     62  CD2       -5.9460  -28.5560   59.4480 C.ar  438  PHE438     -0.0042
     63  CE1       -3.3640  -29.0540   58.5860 C.ar  438  PHE438     -0.0003
     64  CE2       -5.7070  -29.5560   58.5180 C.ar  438  PHE438     -0.0003
     65  CZ        -4.4130  -29.8040   58.0850 C.ar  438  PHE438     -0.0000
     66  N        -14.4230  -26.6460   56.7170 N.3   459  TYR459     -0.1241
     67  CA       -14.6230  -27.3510   57.9810 C.3   459  TYR459      0.1605
     68  C        -14.5690  -26.4820   59.2380 C.2   459  TYR459      0.2264
     69  O        -14.3430  -26.9890   60.3350 O.2   459  TYR459     -0.2867
     70  CB       -13.6150  -28.4880   58.0840 C.3   459  TYR459      0.0534
     71  CG       -13.9850  -29.6230   57.1690 C.ar  459  TYR459     -0.0201
     72  CD1      -15.1530  -30.3430   57.3900 C.ar  459  TYR459     -0.0009
     73  CD2      -13.2080  -29.9490   56.0660 C.ar  459  TYR459     -0.0009
     74  CE1      -15.5170  -31.3780   56.5650 C.ar  459  TYR459      0.0417
     75  CE2      -13.5670  -30.9870   55.2300 C.ar  459  TYR459      0.0417
     76  CZ       -14.7280  -31.6990   55.4830 C.ar  459  TYR459      0.1957
     77  OH       -15.1180  -32.7380   54.6630 O.3   459  TYR459     -0.2866
     78  N        -17.1600  -25.2920   60.5610 N.3   461  TRP461     -0.1227
     79  CA       -18.3130  -25.6940   61.3720 C.3   461  TRP461      0.1737
     80  C        -17.9710  -26.8720   62.2760 C.2   461  TRP461      0.2595
     81  O        -18.6550  -27.1320   63.2650 O.2   461  TRP461     -0.2718
     82  CB       -19.5140  -26.0410   60.4900 C.3   461  TRP461      0.0564
     83  CG       -19.1950  -26.9760   59.3750 C.ar  461  TRP461      0.0003
     84  CD1      -18.8350  -26.6400   58.1090 C.ar  461  TRP461      0.0946
     85  CD2      -19.2080  -28.4090   59.4230 C.ar  461  TRP461      0.0152
     86  NE1      -18.6180  -27.7740   57.3580 N.ar  461  TRP461     -0.2442
     87  CE2      -18.8410  -28.8730   58.1440 C.ar  461  TRP461      0.0810
     88  CE3      -19.4910  -29.3430   60.4220 C.ar  461  TRP461      0.0012
     89  CZ2      -18.7490  -30.2270   57.8400 C.ar  461  TRP461      0.0191
     90  CZ3      -19.4000  -30.6900   60.1170 C.ar  461  TRP461      0.0001
     91  CH2      -19.0360  -31.1190   58.8380 C.ar  461  TRP461      0.0015
     92  N        -16.8990  -27.5760   61.9390 N.am  462  TYR462     -0.1962
     93  CA       -16.4400  -28.6810   62.7620 C.3   462  TYR462      0.1771
     94  C        -15.7290  -28.1480   64.0010 C.2   462  TYR462      0.2619
     95  O        -16.0820  -28.4920   65.1300 O.2   462  TYR462     -0.2715
     96  CB       -15.5060  -29.5940   61.9680 C.3   462  TYR462      0.0574
     97  CG       -14.9970  -30.7770   62.7640 C.ar  462  TYR462     -0.0198
     98  CD1      -15.8060  -31.8870   62.9840 C.ar  462  TYR462     -0.0009
     99  CD2      -13.7170  -30.7820   63.3040 C.ar  462  TYR462     -0.0009
    100  CE1      -15.3510  -32.9710   63.7100 C.ar  462  TYR462      0.0417
    101  CE2      -13.2540  -31.8610   64.0280 C.ar  462  TYR462      0.0417
    102  CZ       -14.0760  -32.9540   64.2290 C.ar  462  TYR462      0.1957
    103  OH       -13.6180  -34.0330   64.9570 O.3   462  TYR462     -0.2866
    104  N        -14.7340  -27.2920   63.7790 N.am  463  VAL463     -0.1977
    105  CA       -13.8780  -26.8030   64.8540 C.3   463  VAL463      0.1596
    106  C        -14.6230  -25.8380   65.7720 C.2   463  VAL463      0.2287
    107  O        -14.2440  -25.6510   66.9260 O.2   463  VAL463     -0.2864
    108  CB       -12.6140  -26.1010   64.2920 C.3   463  VAL463      0.0276
    109  CG1      -12.1330  -26.8130   63.0410 C.3   463  VAL463      0.0022
    110  CG2      -12.8930  -24.6420   63.9720 C.3   463  VAL463      0.0022
    111  N        -13.3160  -21.8280   49.6060 N.3   494  GLU494     -0.1245
    112  CA       -14.2100  -22.8600   50.1140 C.3   494  GLU494      0.1567
    113  C        -14.9030  -22.3850   51.3790 C.2   494  GLU494      0.2260
    114  O        -14.2510  -22.0740   52.3760 O.2   494  GLU494     -0.2867
    115  CB       -13.4530  -24.1580   50.4010 C.3   494  GLU494      0.0388
    116  CG       -13.1550  -25.0080   49.1750 C.3   494  GLU494      0.1160
    117  CD       -12.5920  -26.3720   49.5370 C.2   494  GLU494      0.3649
    118  OE1      -12.7950  -26.8220   50.6870 O.co2 494  GLU494     -0.2457
    119  OE2      -11.9300  -26.9880   48.6760 O.co2 494  GLU494     -0.2457
    120  N        -14.3590  -40.1620   53.3250 N.3   547  ILE547     -0.1245
    121  CA       -15.2880  -39.1000   53.7000 C.3   547  ILE547      0.1561
    122  C        -16.7170  -39.6000   53.9120 C.2   547  ILE547      0.2260
    123  O        -17.4170  -39.1320   54.8070 O.2   547  ILE547     -0.2867
    124  CB       -15.3130  -37.9870   52.6280 C.3   547  ILE547      0.0252
    125  CG1      -13.9180  -37.3830   52.4440 C.3   547  ILE547      0.0019
    126  CG2      -16.3420  -36.9170   52.9760 C.3   547  ILE547      0.0019
    127  CD1      -13.2960  -36.8780   53.7180 C.3   547  ILE547      0.0001
    128  N        -18.0000  -40.3300   57.3630 N.3   550  VAL550     -0.1245
    129  CA       -18.6020  -39.2030   58.0830 C.3   550  VAL550      0.1561
    130  C        -19.8950  -38.7390   57.3810 C.2   550  VAL550      0.2260
    131  O        -20.7640  -38.1290   58.0040 O.2   550  VAL550     -0.2867
    132  CB       -17.5970  -38.0130   58.2360 C.3   550  VAL550      0.0252
    133  CG1      -17.5690  -37.1350   57.0080 C.3   550  VAL550      0.0019
    134  CG2      -17.9420  -37.1690   59.4460 C.3   550  VAL550      0.0019
@<TRIPOS>BOND
     1     7     6   ar
     2     3     4    2
     3     3     2    1
     4   119   117   ar
     5     8     6   ar
     6     6     5    1
     7     1     2    1
     8   116   117    1
     9   116   115    1
    10     2     5    1
    11   117   118   ar
    12   111   112    1
    13    39    40    1
    14   112   115    1
    15   112   113    1
    16    40    41    1
    17    40    43    1
    18    41    42    2
    19   113   114    2
    20    43    44    1
    21    44    45    1
    22    47    45   ar
    23    45    46   ar
    24   125   124    1
    25   125   127    1
    26   124   126    1
    27   124   121    1
    28   120   121    1
    29    48    49    1
    30   121   122    1
    31    21    20    1
    32   122   123    2
    33    49    52    1
    34    49    50    1
    35    77    76    1
    36    52    54    1
    37    52    53    1
    38    20    22    1
    39    20    19    1
    40    75    76   ar
    41    75    73   ar
    42    76    74   ar
    43    50    51    2
    44    73    71   ar
    45    19    16    1
    46    74    72   ar
    47    30    29    2
    48    66    67    1
    49    34    32    1
    50   133   132    1
    51    71    72   ar
    52    71    70    1
    53    86    84   ar
    54    86    87   ar
    55   128   129    1
    56   130   131    2
    57   130   129    1
    58    31    33    1
    59    31    32    1
    60    31    28    1
    61    16    15    1
    62    16    17    1
    63     9    10    1
    64    15    11   am
    65    29    28    1
    66    29    35   am
    67    89    87   ar
    68    89    91   ar
    69    67    70    1
    70    67    68    1
    71   129   132    1
    72    65    64   ar
    73    65    63   ar
    74    84    83   ar
    75    87    85   ar
    76   132   134    1
    77    36    35    1
    78    36    37    1
    79    28    27    1
    80    64    62   ar
    81    63    61   ar
    82    17    18    2
    83    17    23   am
    84    27    25   am
    85    11    10    1
    86    11    12    2
    87    91    90   ar
    88    10    13    1
    89    23    24    1
    90    55    56    1
    91    68    69    2
    92    83    85   ar
    93    83    82    1
    94    85    88   ar
    95    62    60   ar
    96    61    60   ar
    97    13    14    1
    98    37    38    2
    99    25    24    1
   100    25    26    2
   101    60    59    1
   102    90    88   ar
   103    57    56    1
   104    57    58    2
   105    56    59    1
   106    82    79    1
   107    78    79    1
   108    79    80    1
   109    92    80   am
   110    92    93    1
   111    96    93    1
   112    96    97    1
   113    80    81    2
   114    93    94    1
   115    97    98   ar
   116    97    99   ar
   117    98   100   ar
   118   109   108    1
   119    99   101   ar
   120   100   102   ar
   121   104    94   am
   122   104   105    1
   123   110   108    1
   124    94    95    2
   125   101   102   ar
   126   102   103    1
   127   108   105    1
   128   105   106    1
   129   106   107    2
