@<TRIPOS>MOLECULE
tmp/5czsC02.pdb
 92 85 0 0 0
SMALL
GASTEIGER

@<TRIPOS>ATOM
      1  N        -38.4860   37.7100  -25.3420 N.3    37  ARG37      -0.1245
      2  CA       -39.3350   38.8740  -25.2940 C.3    37  ARG37       0.1563
      3  C        -39.3660   39.4620  -23.8890 C.2    37  ARG37       0.2260
      4  O        -39.1350   40.6570  -23.6890 O.2    37  ARG37      -0.2867
      5  CB       -40.7300   38.4700  -25.7330 C.3    37  ARG37       0.0307
      6  CG       -41.7880   39.5370  -25.5170 C.3    37  ARG37       0.0489
      7  CD       -42.9670   39.3330  -26.4640 C.3    37  ARG37       0.2205
      8  NE       -43.9960   38.4440  -25.9400 N.pl3  37  ARG37      -0.0865
      9  CZ       -44.8950   38.7750  -25.0130 C.cat  37  ARG37       0.5346
     10  NH1      -44.8950   39.9920  -24.4600 N.pl3  37  ARG37       0.1354
     11  NH2      -45.7960   37.8620  -24.6280 N.pl3  37  ARG37       0.1354
     12  N        -38.2440   43.0020  -22.5910 N.3    41  GLU41      -0.1245
     13  CA       -39.1960   43.8940  -21.9930 C.3    41  GLU41       0.1567
     14  C        -38.7130   44.3640  -20.6320 C.2    41  GLU41       0.2260
     15  O        -38.8430   45.5520  -20.3080 O.2    41  GLU41      -0.2867
     16  CB       -40.5680   43.2360  -21.8850 C.3    41  GLU41       0.0388
     17  CG       -41.2680   43.0730  -23.2370 C.3    41  GLU41       0.1160
     18  CD       -42.6390   42.3950  -23.1540 C.2    41  GLU41       0.3649
     19  OE1      -43.1600   42.1540  -22.0360 O.co2  41  GLU41      -0.2457
     20  OE2      -43.2060   42.1100  -24.2270 O.co2  41  GLU41      -0.2457
     21  N        -43.7590   50.7490  -17.7230 N.3    52  ARG52      -0.1245
     22  CA       -44.5000   49.6440  -17.0940 C.3    52  ARG52       0.1563
     23  C        -43.7850   49.2310  -15.8390 C.2    52  ARG52       0.2260
     24  O        -42.5820   49.4210  -15.7540 O.2    52  ARG52      -0.2867
     25  CB       -44.6460   48.4500  -18.0440 C.3    52  ARG52       0.0307
     26  CG       -45.6140   48.7530  -19.2090 C.3    52  ARG52       0.0489
     27  CD       -46.0340   47.5130  -19.9840 C.3    52  ARG52       0.2205
     28  NE       -44.8770   46.7970  -20.4990 N.pl3  52  ARG52      -0.0865
     29  CZ       -44.8770   45.5170  -20.8540 C.cat  52  ARG52       0.5346
     30  NH1      -45.9790   44.7830  -20.7130 N.pl3  52  ARG52       0.1354
     31  NH2      -43.7600   44.9610  -21.3210 N.pl3  52  ARG52       0.1354
     32  N        -52.2430   34.4700  -14.9930 N.3    76  LEU76      -0.1245
     33  CA       -52.1550   34.6910  -16.4280 C.3    76  LEU76       0.1561
     34  C        -53.2220   35.6750  -16.8960 C.2    76  LEU76       0.2260
     35  O        -52.8970   36.6270  -17.6110 O.2    76  LEU76      -0.2867
     36  CB       -52.2710   33.3860  -17.2130 C.3    76  LEU76       0.0270
     37  CG       -52.1980   33.5630  -18.7390 C.3    76  LEU76       0.0019
     38  CD1      -50.8170   34.0420  -19.1640 C.3    76  LEU76       0.0001
     39  CD2      -52.5740   32.2850  -19.4670 C.3    76  LEU76       0.0001
     40  N        -52.1840   39.0000  -15.8350 N.3    79  ARG79      -0.1231
     41  CA       -51.0200   39.4180  -16.6450 C.3    79  ARG79       0.1694
     42  C        -51.5160   40.0720  -17.9400 C.2    79  ARG79       0.2591
     43  O        -51.0360   41.1500  -18.3520 O.2    79  ARG79      -0.2718
     44  CB       -50.1110   38.2280  -16.9380 C.3    79  ARG79       0.0321
     45  CG       -48.9210   38.5120  -17.8330 C.3    79  ARG79       0.0489
     46  CD       -48.0490   37.2730  -18.0800 C.3    79  ARG79       0.2205
     47  NE       -47.4770   37.3250  -19.4190 N.pl3  79  ARG79      -0.0865
     48  CZ       -46.3290   37.9080  -19.7360 C.cat  79  ARG79       0.5346
     49  NH1      -45.9300   37.9280  -21.0080 N.pl3  79  ARG79       0.1354
     50  NH2      -45.5660   38.4730  -18.7960 N.pl3  79  ARG79       0.1354
     51  N        -52.5140   39.4350  -18.5500 N.am   80  LYS80      -0.1980
     52  CA       -53.0380   39.9020  -19.8080 C.3    80  LYS80       0.1596
     53  C        -53.8870   41.1660  -19.5920 C.2    80  LYS80       0.2287
     54  O        -53.8050   42.1310  -20.3540 O.2    80  LYS80      -0.2864
     55  CB       -53.8270   38.7870  -20.4790 C.3    80  LYS80       0.0298
     56  CG       -53.5790   38.7090  -21.9700 C.3    80  LYS80       0.0038
     57  CD       -54.0050   39.9930  -22.6650 C.3    80  LYS80       0.0206
     58  CE       -54.2090   39.7940  -24.1630 C.3    80  LYS80       0.1093
     59  NZ       -52.9500   39.3380  -24.8150 N.3    80  LYS80      -0.1314
     60  N        -51.5650   44.3000  -19.0950 N.3    83  GLU83      -0.1245
     61  CA       -50.3560   44.2750  -19.8830 C.3    83  GLU83       0.1567
     62  C        -49.9020   45.6680  -20.3250 C.2    83  GLU83       0.2260
     63  O        -48.7260   45.8570  -20.6420 O.2    83  GLU83      -0.2867
     64  CB       -50.5110   43.3400  -21.0770 C.3    83  GLU83       0.0388
     65  CG       -51.4350   43.8630  -22.1670 C.3    83  GLU83       0.1160
     66  CD       -51.7500   42.8130  -23.2220 C.2    83  GLU83       0.3649
     67  OE1      -52.7770   42.9670  -23.9260 O.co2  83  GLU83      -0.2457
     68  OE2      -50.9900   41.8280  -23.3230 O.co2  83  GLU83      -0.2457
     69  N        -48.5740   46.8530  -16.3380 N.3    86  LEU86      -0.1231
     70  CA       -47.7010   46.0080  -15.5100 C.3    86  LEU86       0.1693
     71  C        -47.1180   44.8480  -16.2920 C.2    86  LEU86       0.2592
     72  O        -47.8040   44.2310  -17.1160 O.2    86  LEU86      -0.2718
     73  CB       -48.4880   45.3940  -14.3690 C.3    86  LEU86       0.0284
     74  CG       -49.3290   46.3120  -13.4840 C.3    86  LEU86       0.0019
     75  CD1      -50.3100   45.4960  -12.6590 C.3    86  LEU86       0.0001
     76  CD2      -48.4380   47.1530  -12.5980 C.3    86  LEU86       0.0001
     77  N        -45.8540   44.5410  -16.0200 N.am   87  LEU87      -0.1966
     78  CA       -45.2280   43.3620  -16.5670 C.3    87  LEU87       0.1728
     79  C        -45.2390   42.3060  -15.4850 C.2    87  LEU87       0.2616
     80  O        -44.4100   42.3010  -14.6120 O.2    87  LEU87      -0.2715
     81  CB       -43.8050   43.6740  -17.0380 C.3    87  LEU87       0.0311
     82  CG       -43.0820   42.5290  -17.7650 C.3    87  LEU87       0.0022
     83  CD1      -43.8550   41.9530  -18.9360 C.3    87  LEU87       0.0001
     84  CD2      -41.7570   43.0520  -18.2470 C.3    87  LEU87       0.0001
     85  N        -46.2260   41.4350  -15.5170 N.am   88  ILE88      -0.1977
     86  CA       -46.3430   40.4060  -14.4970 C.3    88  ILE88       0.1596
     87  C        -45.5510   39.1680  -14.8620 C.2    88  ILE88       0.2287
     88  O        -45.7700   38.5920  -15.9240 O.2    88  ILE88      -0.2864
     89  CB       -47.8020   40.0060  -14.2650 C.3    88  ILE88       0.0276
     90  CG1      -48.5100   41.1560  -13.5690 C.3    88  ILE88       0.0022
     91  CG2      -47.9020   38.7330  -13.4100 C.3    88  ILE88       0.0022
     92  CD1      -49.9970   41.1080  -13.7690 C.3    88  ILE88       0.0001
@<TRIPOS>BOND
     1     7     8    1
     2     7     6    1
     3     8     9    2
     4     5     6    1
     5     5     2    1
     6     1     2    1
     7     2     3    1
     8     9    11    1
     9     9    10    1
    10    59    58    1
    11    20    18   ar
    12    58    57    1
    13    67    66   ar
    14     3     4    2
    15    68    66   ar
    16    17    18    1
    17    17    16    1
    18    66    65    1
    19    18    19   ar
    20    57    56    1
    21    12    13    1
    22    65    64    1
    23    13    16    1
    24    13    14    1
    25    56    55    1
    26    31    29    1
    27    64    61    1
    28    49    48    1
    29    29    30    1
    30    29    28    2
    31    63    62    2
    32    14    15    2
    33    28    27    1
    34    55    52    1
    35    54    53    2
    36    62    61    1
    37    27    26    1
    38    61    60    1
    39    52    53    1
    40    52    51    1
    41    48    47    2
    42    48    50    1
    43    39    37    1
    44    47    46    1
    45    26    25    1
    46    38    37    1
    47    83    82    1
    48    37    36    1
    49    51    42   am
    50    43    42    2
    51    84    82    1
    52    46    45    1
    53    25    22    1
    54    42    41    1
    55    45    44    1
    56    82    81    1
    57    21    22    1
    58    35    34    2
    59    36    33    1
    60    72    71    2
    61    22    23    1
    62    81    78    1
    63    44    41    1
    64    34    33    1
    65    41    40    1
    66    78    77    1
    67    78    79    1
    68    33    32    1
    69    69    70    1
    70    71    77   am
    71    71    70    1
    72    88    87    2
    73    23    24    2
    74    85    79   am
    75    85    86    1
    76    70    73    1
    77    79    80    2
    78    87    86    1
    79    86    89    1
    80    73    74    1
    81    89    90    1
    82    89    91    1
    83    92    90    1
    84    74    75    1
    85    74    76    1
