@<TRIPOS>MOLECULE
tmp/5czxB00.pdb
 106 104 0 0 0
SMALL
GASTEIGER

@<TRIPOS>ATOM
      1  N         32.3750  -20.1050   32.9670 N.3    20  ASN20      -0.1240
      2  CA        32.1990  -21.4330   33.5430 C.3    20  ASN20       0.1653
      3  C         33.5220  -22.2020   33.5430 C.2    20  ASN20       0.2266
      4  O         33.8480  -22.9210   32.5940 O.2    20  ASN20      -0.2867
      5  CB        31.0700  -22.2020   32.8500 C.3    20  ASN20       0.1155
      6  CG        30.8350  -23.5680   33.4380 C.2    20  ASN20       0.2627
      7  OD1       30.7380  -23.7350   34.6550 O.2    20  ASN20      -0.2716
      8  ND2       30.7600  -24.5780   32.5810 N.am   20  ASN20      -0.0877
      9  N         32.6590  -21.8240   38.5500 N.3    26  TRP26      -0.1241
     10  CA        31.5800  -22.3000   37.6760 C.3    26  TRP26       0.1605
     11  C         30.5570  -21.1760   37.4150 C.2    26  TRP26       0.2264
     12  O         29.3370  -21.4000   37.4400 O.2    26  TRP26      -0.2867
     13  CB        30.9520  -23.6150   38.2170 C.3    26  TRP26       0.0550
     14  CG        31.9880  -24.6440   38.5950 C.ar   26  TRP26       0.0003
     15  CD1       32.3660  -25.0110   39.8620 C.ar   26  TRP26       0.0946
     16  CD2       32.8580  -25.3510   37.6950 C.ar   26  TRP26       0.0152
     17  NE1       33.3910  -25.9290   39.8020 N.ar   26  TRP26      -0.2442
     18  CE2       33.7180  -26.1500   38.4830 C.ar   26  TRP26       0.0810
     19  CE3       32.9890  -25.3930   36.2910 C.ar   26  TRP26       0.0012
     20  CZ2       34.6950  -26.9840   37.9140 C.ar   26  TRP26       0.0191
     21  CZ3       33.9540  -26.2210   35.7350 C.ar   26  TRP26       0.0001
     22  CH2       34.7840  -27.0140   36.5410 C.ar   26  TRP26       0.0015
     23  N         37.6760  -32.7630   38.6520 N.3    48  TRP48      -0.1227
     24  CA        36.7340  -32.2360   37.6600 C.3    48  TRP48       0.1737
     25  C         37.2030  -32.4520   36.2060 C.2    48  TRP48       0.2595
     26  O         36.3600  -32.6370   35.3250 O.2    48  TRP48      -0.2718
     27  CB        36.4170  -30.7610   37.9380 C.3    48  TRP48       0.0564
     28  CG        37.5790  -29.8430   37.7140 C.ar   48  TRP48       0.0003
     29  CD1       38.5130  -29.4610   38.6320 C.ar   48  TRP48       0.0946
     30  CD2       37.9580  -29.2290   36.4720 C.ar   48  TRP48       0.0152
     31  NE1       39.4460  -28.6400   38.0440 N.ar   48  TRP48      -0.2442
     32  CE2       39.1330  -28.4880   36.7140 C.ar   48  TRP48       0.0810
     33  CE3       37.4180  -29.2430   35.1690 C.ar   48  TRP48       0.0012
     34  CZ2       39.7820  -27.7630   35.7020 C.ar   48  TRP48       0.0191
     35  CZ3       38.0540  -28.5230   34.1700 C.ar   48  TRP48       0.0001
     36  CH2       39.2160  -27.7850   34.4400 C.ar   48  TRP48       0.0015
     37  N         38.5470  -32.4500   35.9680 N.am   49  ARG49      -0.1980
     38  CA        39.1570  -32.6610   34.6380 C.3    49  ARG49       0.1597
     39  C         38.9880  -34.1040   34.1900 C.2    49  ARG49       0.2287
     40  O         39.0480  -34.3890   32.9860 O.2    49  ARG49      -0.2864
     41  CB        40.6760  -32.3320   34.6170 C.3    49  ARG49       0.0334
     42  CG        41.1130  -31.0070   35.2370 C.3    49  ARG49       0.0492
     43  CD        42.5320  -30.5970   34.8730 C.3    49  ARG49       0.2205
     44  NE        43.4710  -31.7210   34.8190 N.pl3  49  ARG49      -0.0865
     45  CZ        44.7890  -31.6040   34.9260 C.cat  49  ARG49       0.5346
     46  NH1       45.3420  -30.4160   35.1370 N.pl3  49  ARG49       0.1354
     47  NH2       45.5650  -32.6760   34.8430 N.pl3  49  ARG49       0.1354
     48  N         34.3990  -35.9840   33.3070 N.3    52  ASN52      -0.1225
     49  CA        33.6920  -36.2130   32.0590 C.3    52  ASN52       0.1785
     50  C         34.4710  -36.9420   30.9610 C.2    52  ASN52       0.2597
     51  O         34.1410  -36.7930   29.7820 O.2    52  ASN52      -0.2718
     52  CB        33.1230  -34.9090   31.5750 C.3    52  ASN52       0.1169
     53  CG        34.1510  -33.8780   31.2470 C.2    52  ASN52       0.2627
     54  OD1       35.0800  -33.5910   32.0250 O.2    52  ASN52      -0.2716
     55  ND2       33.9620  -33.2990   30.0850 N.am   52  ASN52      -0.0877
     56  N         35.4240  -37.8030   31.3510 N.am   53  ASN53      -0.1974
     57  CA        36.2460  -38.5610   30.4130 C.3    53  ASN53       0.1688
     58  C         35.7370  -39.9370   29.9990 C.2    53  ASN53       0.2292
     59  O         36.4060  -40.5940   29.2010 O.2    53  ASN53      -0.2864
     60  CB        37.7040  -38.6320   30.8830 C.3    53  ASN53       0.1181
     61  CG        37.9480  -39.2640   32.2310 C.2    53  ASN53       0.2629
     62  OD1       37.0550  -39.8560   32.8740 O.2    53  ASN53      -0.2716
     63  ND2       39.1960  -39.1530   32.6900 N.am   53  ASN53      -0.0877
     64  N         35.7550  -42.6870   31.5370 N.3    55  ARG55      -0.1245
     65  CA        36.6950  -43.7200   31.9700 C.3    55  ARG55       0.1563
     66  C         36.9790  -43.6650   33.4580 C.2    55  ARG55       0.2260
     67  O         36.8960  -42.5960   34.0740 O.2    55  ARG55      -0.2867
     68  CB        37.9940  -43.7510   31.1060 C.3    55  ARG55       0.0307
     69  CG        38.6990  -42.4160   30.9300 C.3    55  ARG55       0.0489
     70  CD        39.8130  -42.4950   29.8950 C.3    55  ARG55       0.2205
     71  NE        39.9720  -41.2380   29.1540 N.pl3  55  ARG55      -0.0865
     72  CZ        40.8960  -40.3220   29.4200 C.cat  55  ARG55       0.5346
     73  NH1       41.7760  -40.5210   30.3950 N.pl3  55  ARG55       0.1354
     74  NH2       40.9520  -39.2020   28.7130 N.pl3  55  ARG55       0.1354
     75  N         27.8810  -28.1370   35.5050 N.3   210  ALA210     -0.1231
     76  CA        29.1600  -27.4230   35.3290 C.3   210  ALA210      0.1694
     77  C         29.9440  -27.9540   34.1270 C.2   210  ALA210      0.2592
     78  O         30.3910  -27.1790   33.2790 O.2   210  ALA210     -0.2718
     79  CB        30.0060  -27.5310   36.6020 C.3   210  ALA210      0.0304
     80  N         30.0270  -29.2770   34.0190 N.am  211  VAL211     -0.1966
     81  CA        30.7600  -29.9930   32.9820 C.3   211  VAL211      0.1727
     82  C         29.9600  -30.2240   31.6670 C.2   211  VAL211      0.2616
     83  O         30.4930  -30.8010   30.7080 O.2   211  VAL211     -0.2715
     84  CB        31.3830  -31.2550   33.6540 C.3   211  VAL211      0.0290
     85  CG1       30.6260  -32.5530   33.3630 C.3   211  VAL211      0.0023
     86  CG2       32.8720  -31.3670   33.3870 C.3   211  VAL211      0.0023
     87  N         28.7260  -29.6720   31.5980 N.am  212  GLU212     -0.1963
     88  CA        27.7810  -29.7400   30.4590 C.3   212  GLU212      0.1733
     89  C         27.3620  -31.1800   30.1110 C.2   212  GLU212      0.2616
     90  O         27.1980  -31.5050   28.9310 O.2   212  GLU212     -0.2715
     91  CB        28.3330  -29.0300   29.1920 C.3   212  GLU212      0.0429
     92  CG        28.3770  -27.5170   29.2570 C.3   212  GLU212      0.1163
     93  CD        28.5340  -26.8900   27.8870 C.2   212  GLU212      0.3649
     94  OE1       29.6500  -26.9560   27.3220 O.co2 212  GLU212     -0.2457
     95  OE2       27.5250  -26.3740   27.3560 O.co2 212  GLU212     -0.2457
     96  N         27.2080  -32.0460   31.1270 N.am  213  ARG213     -0.1977
     97  CA        26.8290  -33.4400   30.8770 C.3   213  ARG213      0.1597
     98  C         25.4250  -33.7790   31.3980 C.2   213  ARG213      0.2287
     99  O         24.9960  -34.9280   31.3370 O.2   213  ARG213     -0.2864
    100  CB        27.9140  -34.4100   31.4060 C.3   213  ARG213      0.0334
    101  CG        29.2320  -34.3860   30.6130 C.3   213  ARG213      0.0492
    102  CD        29.1840  -35.0940   29.2580 C.3   213  ARG213      0.2205
    103  NE        30.1120  -36.2270   29.2060 N.pl3 213  ARG213     -0.0865
    104  CZ        29.7700  -37.4920   29.4430 C.cat 213  ARG213      0.5346
    105  NH1       28.5130  -37.8050   29.7390 N.pl3 213  ARG213      0.1354
    106  NH2       30.6800  -38.4540   29.3780 N.pl3 213  ARG213      0.1354
@<TRIPOS>BOND
     1    94    93   ar
     2    95    93   ar
     3    93    92    1
     4    74    72    1
     5    90    89    2
     6    71    72    2
     7    71    70    1
     8    91    92    1
     9    91    88    1
    10    59    58    2
    11   103   102    1
    12   103   104    2
    13   102   101    1
    14   106   104    1
    15    72    73    1
    16   104   105    1
    17    51    50    2
    18    70    69    1
    19    58    57    1
    20    55    53   am
    21    89    88    1
    22    89    96   am
    23    57    60    1
    24    57    56    1
    25    88    87    1
    26   101   100    1
    27    83    82    2
    28    97    96    1
    29    97    98    1
    30    97   100    1
    31    60    61    1
    32    69    68    1
    33    50    56   am
    34    50    49    1
    35    68    65    1
    36    53    52    1
    37    53    54    2
    38    99    98    2
    39    64    65    1
    40    52    49    1
    41    87    82   am
    42    82    81    1
    43    65    66    1
    44    49    48    1
    45    61    63   am
    46    61    62    2
    47     8     6   am
    48     4     3    2
    49     5     6    1
    50     5     2    1
    51     1     2    1
    52    81    84    1
    53    81    80    1
    54    40    39    2
    55    78    77    2
    56    85    84    1
    57    86    84    1
    58     6     7    2
    59    66    67    2
    60     3     2    1
    61    80    77   am
    62    77    76    1
    63    35    36   ar
    64    35    33   ar
    65    39    38    1
    66    36    34   ar
    67    41    38    1
    68    41    42    1
    69    38    37    1
    70    44    43    1
    71    44    45    2
    72    47    45    1
    73    43    42    1
    74    45    46    1
    75    33    30   ar
    76    26    25    2
    77    76    75    1
    78    76    79    1
    79    34    32   ar
    80    21    19   ar
    81    21    22   ar
    82    37    25   am
    83    25    24    1
    84    19    16   ar
    85    30    32   ar
    86    30    28   ar
    87    22    20   ar
    88    32    31   ar
    89    11    12    2
    90    11    10    1
    91    24    27    1
    92    24    23    1
    93    10    13    1
    94    10     9    1
    95    16    18   ar
    96    16    14   ar
    97    28    27    1
    98    28    29   ar
    99    20    18   ar
   100    31    29   ar
   101    13    14    1
   102    18    17   ar
   103    14    15   ar
   104    17    15   ar
