@<TRIPOS>MOLECULE
tmp/5czyA00.pdb
 187 185 0 0 0
SMALL
GASTEIGER

@<TRIPOS>ATOM
      1  N         19.7450   -4.8150    0.6670 N.3    17  ASN17      -0.1240
      2  CA        19.6930   -6.0660    1.4120 C.3    17  ASN17       0.1653
      3  C         18.3110   -6.4880    1.9020 C.2    17  ASN17       0.2266
      4  O         18.1940   -7.2330    2.8890 O.2    17  ASN17      -0.2867
      5  CB        20.6480   -6.0010    2.6100 C.3    17  ASN17       0.1155
      6  CG        20.1840   -5.0250    3.6900 C.2    17  ASN17       0.2627
      7  OD1       19.6510   -3.9590    3.3950 O.2    17  ASN17      -0.2716
      8  ND2       20.3860   -5.3950    4.9460 N.am   17  ASN17      -0.0877
      9  N         30.9500    0.1900   11.1520 N.3    42  LEU42      -0.1245
     10  CA        30.2880   -1.1110   11.3270 C.3    42  LEU42       0.1561
     11  C         30.6280   -2.1430   10.2410 C.2    42  LEU42       0.2260
     12  O         29.9780   -3.2000   10.1730 O.2    42  LEU42      -0.2867
     13  CB        28.7670   -0.9380   11.3560 C.3    42  LEU42       0.0270
     14  CG        28.2540    0.0700   12.3780 C.3    42  LEU42       0.0019
     15  CD1       26.7270    0.1850   12.3420 C.3    42  LEU42       0.0001
     16  CD2       28.7300   -0.2950   13.7850 C.3    42  LEU42       0.0001
     17  N         28.9400   -5.5950    8.4730 N.3    46  GLY46      -0.1210
     18  CA        28.1870   -5.0570    7.3530 C.3    46  GLY46       0.1956
     19  C         27.0110   -4.1550    7.7180 C.2    46  GLY46       0.2612
     20  O         26.0240   -4.1010    6.9920 O.2    46  GLY46      -0.2717
     21  N         27.1090   -3.4520    8.8390 N.am   47  GLY47      -0.1942
     22  CA        26.0250   -2.5970    9.2980 C.3    47  GLY47       0.2014
     23  C         25.7750   -1.3560    8.4360 C.2    47  GLY47       0.2638
     24  O         26.7140   -0.7290    7.9000 O.2    47  GLY47      -0.2714
     25  N         24.5060   -1.0030    8.3070 N.am   48  ARG48      -0.1977
     26  CA        24.1020    0.1630    7.5690 C.3    48  ARG48       0.1597
     27  C         23.5540    1.2130    8.5280 C.2    48  ARG48       0.2287
     28  O         23.4670    0.9610    9.7390 O.2    48  ARG48      -0.2864
     29  CB        23.0610   -0.2210    6.5180 C.3    48  ARG48       0.0334
     30  CG        23.6640   -1.0760    5.4190 C.3    48  ARG48       0.0492
     31  CD        22.6360   -1.9260    4.6930 C.3    48  ARG48       0.2205
     32  NE        23.2340   -2.6450    3.5610 N.pl3  48  ARG48      -0.0865
     33  CZ        23.8180   -3.8440    3.6480 C.cat  48  ARG48       0.5346
     34  NH1       23.8930   -4.4730    4.8250 N.pl3  48  ARG48       0.1354
     35  NH2       24.3190   -4.4170    2.5500 N.pl3  48  ARG48       0.1354
     36  N          7.5970    3.6270   11.9730 N.3    65  TYR65      -0.1241
     37  CA         8.4020    2.4330   12.2010 C.3    65  TYR65       0.1605
     38  C          7.5360    1.2330   11.9300 C.2    65  TYR65       0.2264
     39  O          6.7460    0.8110   12.7950 O.2    65  TYR65      -0.2867
     40  CB         8.9620    2.4070   13.6290 C.3    65  TYR65       0.0534
     41  CG        10.0370    1.3470   13.8300 C.ar   65  TYR65      -0.0201
     42  CD1        9.7130    0.0810   14.3150 C.ar   65  TYR65      -0.0009
     43  CD2       11.3770    1.6180   13.5460 C.ar   65  TYR65      -0.0009
     44  CE1       10.6710   -0.8760   14.5000 C.ar   65  TYR65       0.0417
     45  CE2       12.3490    0.6630   13.7350 C.ar   65  TYR65       0.0417
     46  CZ        11.9760   -0.5980   14.2090 C.ar   65  TYR65       0.1957
     47  OH        12.9310   -1.5740   14.4140 O.3    65  TYR65      -0.2866
     48  N         16.3580   -6.7470   18.9710 N.3    88  SER88      -0.1202
     49  CA        17.1390   -5.7670   18.2000 C.3    88  SER88       0.2020
     50  C         16.3500   -4.7700   17.3900 C.2    88  SER88       0.2618
     51  O         16.7450   -3.6190   17.2860 O.2    88  SER88      -0.2717
     52  CB        18.0700   -6.4580   17.1940 C.3    88  SER88       0.2103
     53  OG        19.2390   -6.8640   17.8230 O.3    88  SER88      -0.2182
     54  N         15.3010   -5.2530   16.7370 N.am   89  TYR89      -0.1975
     55  CA        14.4970   -4.4290   15.8540 C.3    89  TYR89       0.1639
     56  C         13.0650   -4.3920   16.3460 C.2    89  TYR89       0.2290
     57  O         12.1640   -3.9830   15.6090 O.2    89  TYR89      -0.2864
     58  CB        14.5250   -4.9670   14.4180 C.3    89  TYR89       0.0560
     59  CG        15.8680   -4.9270   13.6900 C.ar   89  TYR89      -0.0198
     60  CD1       16.8950   -5.8170   14.0080 C.ar   89  TYR89      -0.0009
     61  CD2       16.0770   -4.0320   12.6360 C.ar   89  TYR89      -0.0009
     62  CE1       18.1210   -5.7890   13.3190 C.ar   89  TYR89       0.0417
     63  CE2       17.2760   -4.0000   11.9330 C.ar   89  TYR89       0.0417
     64  CZ        18.2930   -4.8800   12.2760 C.ar   89  TYR89       0.1957
     65  OH        19.4840   -4.8360   11.5880 O.3    89  TYR89      -0.2866
     66  N         13.0280    3.1610    8.2960 N.3   107  THR107     -0.1203
     67  CA        13.3080    3.5300    9.6770 C.3   107  THR107      0.1994
     68  C         14.0380    2.4090   10.4070 C.2   107  THR107      0.2618
     69  O         14.6730    2.6650   11.4370 O.2   107  THR107     -0.2717
     70  CB        12.0130    3.9010   10.4490 C.3   107  THR107      0.1784
     71  OG1       11.0890    2.7820   10.4640 O.3   107  THR107     -0.2211
     72  CG2       11.3490    5.0900    9.7950 C.3   107  THR107      0.0376
     73  N         14.0130    1.1900    9.8640 N.am  108  ARG108     -0.1965
     74  CA        14.7360    0.0840   10.5080 C.3   108  ARG108      0.1729
     75  C         16.2570    0.2500   10.4140 C.2   108  ARG108      0.2616
     76  O         16.9940   -0.5390   11.0410 O.2   108  ARG108     -0.2715
     77  CB        14.3420   -1.2890    9.9040 C.3   108  ARG108      0.0348
     78  CG        14.9600   -1.5830    8.5080 C.3   108  ARG108      0.0492
     79  CD        14.2630   -2.7880    7.8210 C.3   108  ARG108      0.2205
     80  NE        14.5750   -4.0490    8.5030 N.pl3 108  ARG108     -0.0865
     81  CZ        15.6290   -4.7990    8.2080 C.cat 108  ARG108      0.5346
     82  NH1       16.4610   -4.4270    7.2280 N.pl3 108  ARG108      0.1354
     83  NH2       15.8610   -5.9160    8.8870 N.pl3 108  ARG108      0.1354
     84  N         16.7330    1.2330    9.6420 N.am  109  TYR109     -0.1960
     85  CA        18.1740    1.3980    9.4690 C.3   109  TYR109      0.1771
     86  C         18.7750    2.4380   10.4070 C.2   109  TYR109      0.2619
     87  O         19.9750    2.6410   10.3910 O.2   109  TYR109     -0.2715
     88  CB        18.5100    1.7500    8.0070 C.3   109  TYR109      0.0574
     89  CG        18.2870    0.5760    7.0880 C.ar  109  TYR109     -0.0198
     90  CD1       19.2620   -0.4090    6.9330 C.ar  109  TYR109     -0.0009
     91  CD2       17.0820    0.4250    6.4090 C.ar  109  TYR109     -0.0009
     92  CE1       19.0420   -1.5100    6.1270 C.ar  109  TYR109      0.0417
     93  CE2       16.8540   -0.6670    5.6060 C.ar  109  TYR109      0.0417
     94  CZ        17.8390   -1.6330    5.4740 C.ar  109  TYR109      0.1957
     95  OH        17.6130   -2.7250    4.6770 O.3   109  TYR109     -0.2866
     96  N         17.9600    3.1020   11.2200 N.am  110  ILE110     -0.1963
     97  CA        18.4910    4.1410   12.1050 C.3   110  ILE110      0.1727
     98  C         19.1880    3.5430   13.3370 C.2   110  ILE110      0.2616
     99  O         18.5830    2.7560   14.0930 O.2   110  ILE110     -0.2715
    100  CB        17.3880    5.1010   12.5720 C.3   110  ILE110      0.0290
    101  CG1       16.5700    5.6060   11.3700 C.3   110  ILE110      0.0022
    102  CG2       18.0190    6.2900   13.3230 C.3   110  ILE110      0.0023
    103  CD1       15.4050    6.4830   11.7520 C.3   110  ILE110      0.0001
    104  N         20.4520    3.9180   13.5390 N.am  111  ASN111     -0.1958
    105  CA        21.2460    3.3940   14.6420 C.3   111  ASN111      0.1819
    106  C         21.0610    4.1620   15.9510 C.2   111  ASN111      0.2621
    107  O         20.3880    5.2040   16.0130 O.2   111  ASN111     -0.2715
    108  CB        22.7420    3.3830   14.2600 C.3   111  ASN111      0.1195
    109  CG        23.0640    2.3340   13.1880 C.2   111  ASN111      0.2630
    110  OD1       22.6570    1.1680   13.3240 O.2   111  ASN111     -0.2716
    111  ND2       23.7590    2.7400   12.1100 N.am  111  ASN111     -0.0877
    112  N         21.7270    3.6680   16.9850 N.am  112  PHE112     -0.1974
    113  CA        21.4970    4.1000   18.3570 C.3   112  PHE112      0.1639
    114  C         22.4830    5.1580   18.8960 C.2   112  PHE112      0.2290
    115  O         23.7150    5.0380   18.7080 O.2   112  PHE112     -0.2864
    116  CB        21.5460    2.8450   19.2540 C.3   112  PHE112      0.0560
    117  CG        21.4720    3.1420   20.7190 C.ar  112  PHE112     -0.0200
    118  CD1       20.2300    3.2250   21.3570 C.ar  112  PHE112     -0.0042
    119  CD2       22.6480    3.3410   21.4790 C.ar  112  PHE112     -0.0042
    120  CE1       20.1450    3.4980   22.7260 C.ar  112  PHE112     -0.0003
    121  CE2       22.5660    3.6290   22.8580 C.ar  112  PHE112     -0.0003
    122  CZ        21.3060    3.7010   23.4780 C.ar  112  PHE112     -0.0000
    123  N         16.5610    4.6020   22.1880 N.3   150  TYR150     -0.1241
    124  CA        15.4820    3.6550   22.4970 C.3   150  TYR150      0.1605
    125  C         15.9850    2.5790   23.4640 C.2   150  TYR150      0.2264
    126  O         17.1970    2.4690   23.7150 O.2   150  TYR150     -0.2867
    127  CB        14.9310    3.0000   21.2150 C.3   150  TYR150      0.0534
    128  CG        15.9950    2.2670   20.4270 C.ar  150  TYR150     -0.0201
    129  CD1       16.7540    2.9270   19.4670 C.ar  150  TYR150     -0.0009
    130  CD2       16.2500    0.9160   20.6520 C.ar  150  TYR150     -0.0009
    131  CE1       17.7230    2.2670   18.7500 C.ar  150  TYR150      0.0417
    132  CE2       17.2190    0.2540   19.9480 C.ar  150  TYR150      0.0417
    133  CZ        17.9580    0.9340   18.9940 C.ar  150  TYR150      0.1957
    134  OH        18.9380    0.2680   18.3050 O.3   150  TYR150     -0.2866
    135  N         20.9600   -6.0790   24.8580 N.3   155  GLU155     -0.1245
    136  CA        22.1180   -5.9160   23.9790 C.3   155  GLU155      0.1567
    137  C         23.3430   -5.3390   24.6610 C.2   155  GLU155      0.2260
    138  O         24.4250   -5.3930   24.0940 O.2   155  GLU155     -0.2867
    139  CB        21.7550   -5.0380   22.7920 C.3   155  GLU155      0.0388
    140  CG        20.7280   -5.6800   21.9250 C.3   155  GLU155      0.1160
    141  CD        20.7500   -5.1200   20.5430 C.2   155  GLU155      0.3649
    142  OE1       21.8000   -5.2720   19.8600 O.co2 155  GLU155     -0.2457
    143  OE2       19.7290   -4.5100   20.1530 O.co2 155  GLU155     -0.2457
    144  N         29.0000   -2.6480   24.5430 N.3   160  TYR160     -0.1227
    145  CA        29.4120   -3.2690   23.2700 C.3   160  TYR160      0.1736
    146  C         29.2080   -2.4430   22.0090 C.2   160  TYR160      0.2595
    147  O         29.7990   -2.7660   20.9800 O.2   160  TYR160     -0.2718
    148  CB        28.6850   -4.6170   23.0660 C.3   160  TYR160      0.0548
    149  CG        29.0090   -5.6250   24.1320 C.ar  160  TYR160     -0.0200
    150  CD1       30.2980   -6.1230   24.2580 C.ar  160  TYR160     -0.0009
    151  CD2       28.0330   -6.0790   25.0250 C.ar  160  TYR160     -0.0009
    152  CE1       30.6210   -7.0450   25.2530 C.ar  160  TYR160      0.0417
    153  CE2       28.3460   -7.0090   26.0250 C.ar  160  TYR160      0.0417
    154  CZ        29.6400   -7.4880   26.1300 C.ar  160  TYR160      0.1957
    155  OH        29.9770   -8.4140   27.1090 O.3   160  TYR160     -0.2866
    156  N         28.3670   -1.4120   22.0600 N.am  161  TYR161     -0.1962
    157  CA        28.1570   -0.5720   20.8790 C.3   161  TYR161      0.1771
    158  C         29.3210    0.4000   20.6450 C.2   161  TYR161      0.2619
    159  O         30.1160    0.6640   21.5650 O.2   161  TYR161     -0.2715
    160  CB        26.8620    0.2290   20.9930 C.3   161  TYR161      0.0574
    161  CG        25.6200   -0.5710   20.6920 C.ar  161  TYR161     -0.0198
    162  CD1       25.6760   -1.9520   20.5550 C.ar  161  TYR161     -0.0009
    163  CD2       24.3960    0.0550   20.5570 C.ar  161  TYR161     -0.0009
    164  CE1       24.5600   -2.6880   20.2850 C.ar  161  TYR161      0.0417
    165  CE2       23.2420   -0.6780   20.2860 C.ar  161  TYR161      0.0417
    166  CZ        23.3400   -2.0560   20.1550 C.ar  161  TYR161      0.1957
    167  OH        22.2160   -2.8000   19.8870 O.3   161  TYR161     -0.2866
    168  N         29.3920    0.9340   19.4230 N.am  162  TYR162     -0.1974
    169  CA        30.1940    2.1120   19.1670 C.3   162  TYR162      0.1639
    170  C         29.4490    3.3390   19.6790 C.2   162  TYR162      0.2290
    171  O         28.1860    3.3880   19.6890 O.2   162  TYR162     -0.2864
    172  CB        30.5030    2.2690   17.6720 C.3   162  TYR162      0.0560
    173  CG        31.5510    1.3020   17.1560 C.ar  162  TYR162     -0.0198
    174  CD1       32.9000    1.5140   17.4190 C.ar  162  TYR162     -0.0009
    175  CD2       31.1990    0.1970   16.3910 C.ar  162  TYR162     -0.0009
    176  CE1       33.8890    0.6180   16.9550 C.ar  162  TYR162      0.0417
    177  CE2       32.1680   -0.7040   15.9180 C.ar  162  TYR162      0.0417
    178  CZ        33.5080   -0.4770   16.2050 C.ar  162  TYR162      0.1957
    179  OH        34.4910   -1.3390   15.7520 O.3   162  TYR162     -0.2866
    180  N         28.4500    6.3020   18.3970 N.3   164  LEU164     -0.1245
    181  CA        28.2790    6.9080   17.0810 C.3   164  LEU164      0.1561
    182  C         28.0660    8.4260   17.1500 C.2   164  LEU164      0.2260
    183  O         27.4290    8.9250   18.0920 O.2   164  LEU164     -0.2867
    184  CB        27.1030    6.2570   16.3560 C.3   164  LEU164      0.0270
    185  CG        27.3660    4.8260   15.8810 C.3   164  LEU164      0.0019
    186  CD1       26.1430    4.2820   15.1920 C.3   164  LEU164      0.0001
    187  CD2       28.5940    4.7700   14.9360 C.3   164  LEU164      0.0001
@<TRIPOS>BOND
     1     1     2    1
     2     2     3    1
     3     2     5    1
     4     3     4    2
     5    35    33    1
     6     5     6    1
     7     7     6    2
     8    32    33    2
     9    32    31    1
    10    33    34    1
    11     6     8   am
    12    95    94    1
    13    31    30    1
    14    30    29    1
    15    94    93   ar
    16    94    92   ar
    17    93    91   ar
    18    92    90   ar
    19    91    89   ar
    20    29    26    1
    21    90    89   ar
    22    20    19    2
    23    89    88    1
    24    82    81    1
    25    18    19    1
    26    18    17    1
    27    26    25    1
    28    26    27    1
    29    19    21   am
    30    79    80    1
    31    79    78    1
    32    24    23    2
    33    88    85    1
    34    81    80    2
    35    81    83    1
    36    66    67    1
    37    25    23   am
    38    23    22    1
    39    78    77    1
    40    27    28    2
    41    21    22    1
    42    85    84    1
    43    85    86    1
    44    84    75   am
    45    67    68    1
    46    67    70    1
    47    72    70    1
    48    73    68   am
    49    73    74    1
    50    77    74    1
    51    12    11    2
    52    11    10    1
    53    87    86    2
    54    68    69    2
    55    86    96   am
    56    75    74    1
    57    75    76    2
    58    70    71    1
    59     9    10    1
    60    96    97    1
    61    10    13    1
    62    13    14    1
    63   101   103    1
    64   101   100    1
    65    65    64    1
    66    38    37    1
    67    38    39    2
    68    63    64   ar
    69    63    61   ar
    70    36    37    1
    71    97   100    1
    72    97    98    1
    73   111   109   am
    74    37    40    1
    75    64    62   ar
    76    15    14    1
    77    14    16    1
    78   100   102    1
    79    61    59   ar
    80   109   110    2
    81   109   108    1
    82    62    60   ar
    83    98   104   am
    84    98    99    2
    85   104   105    1
    86    43    45   ar
    87    43    41   ar
    88    40    41    1
    89    59    60   ar
    90    59    58    1
    91    45    46   ar
    92    41    42   ar
    93    46    47    1
    94    46    44   ar
    95   108   105    1
    96    42    44   ar
    97    58    55    1
    98   105   106    1
    99   187   185    1
   100   186   185    1
   101    57    56    2
   102   179   178    1
   103    55    56    1
   104    55    54    1
   105   185   184    1
   106   177   178   ar
   107   177   175   ar
   108   106   107    2
   109   106   112   am
   110   178   176   ar
   111   184   181    1
   112   175   173   ar
   113    54    50   am
   114   176   174   ar
   115   112   113    1
   116   181   182    1
   117   181   180    1
   118   182   183    2
   119   173   174   ar
   120   173   172    1
   121    52    53    1
   122    52    49    1
   123    51    50    2
   124    50    49    1
   125   172   169    1
   126    49    48    1
   127   134   133    1
   128   113   114    1
   129   113   116    1
   130   115   114    2
   131   131   133   ar
   132   131   129   ar
   133   133   132   ar
   134   169   168    1
   135   169   170    1
   136   116   117    1
   137   168   158   am
   138   129   128   ar
   139   170   171    2
   140   142   141   ar
   141   167   166    1
   142   132   130   ar
   143   143   141   ar
   144   166   164   ar
   145   166   165   ar
   146   164   162   ar
   147   165   163   ar
   148   128   130   ar
   149   128   127    1
   150   141   140    1
   151   162   161   ar
   152   163   161   ar
   153   158   157    1
   154   158   159    2
   155   161   160    1
   156   117   118   ar
   157   117   119   ar
   158   157   160    1
   159   157   156    1
   160   147   146    2
   161   127   124    1
   162   118   120   ar
   163   119   121   ar
   164   140   139    1
   165   146   156   am
   166   146   145    1
   167   123   124    1
   168   124   125    1
   169   120   122   ar
   170   139   136    1
   171   121   122   ar
   172   148   145    1
   173   148   149    1
   174   145   144    1
   175   125   126    2
   176   136   137    1
   177   136   135    1
   178   138   137    2
   179   149   150   ar
   180   149   151   ar
   181   150   152   ar
   182   151   153   ar
   183   152   154   ar
   184   153   154   ar
   185   154   155    1
