@<TRIPOS>MOLECULE
tmp/5d00B00.pdb
 166 158 0 0 0
SMALL
GASTEIGER

@<TRIPOS>ATOM
      1  N         -8.1630   20.6910   21.3750 N.3    13  VAL13      -0.1231
      2  CA        -9.3680   21.1620   21.9530 C.3    13  VAL13       0.1692
      3  C        -10.1110   19.8530   21.8260 C.2    13  VAL13       0.2593
      4  O         -9.6030   18.9580   21.1970 O.2    13  VAL13      -0.2718
      5  CB       -10.0240   22.2790   21.1230 C.3    13  VAL13       0.0266
      6  CG1      -11.3240   22.7660   21.7550 C.3    13  VAL13       0.0020
      7  CG2       -9.0560   23.4620   21.0450 C.3    13  VAL13       0.0020
      8  N        -11.2730   19.7120   22.4250 N.am   14  GLY14      -0.1942
      9  CA       -11.9210   18.4190   22.4780 C.3    14  GLY14       0.2014
     10  C        -12.2150   17.5490   21.2920 C.2    14  GLY14       0.2639
     11  O        -11.6350   16.5150   21.1170 O.2    14  GLY14      -0.2714
     12  N        -13.1480   17.9940   20.4830 N.am   15  GLY15      -0.1939
     13  CA       -13.6320   17.2630   19.3400 C.3    15  GLY15       0.2014
     14  C        -12.7440   17.4100   18.1340 C.2    15  GLY15       0.2639
     15  O        -12.3120   16.4330   17.6210 O.2    15  GLY15      -0.2714
     16  N        -12.4870   18.6220   17.6810 N.am   16  SER16      -0.1949
     17  CA       -11.6810   18.8440   16.4810 C.3    16  SER16       0.1924
     18  C        -10.2990   18.2720   16.5070 C.2    16  SER16       0.2314
     19  O         -9.8520   17.7130   15.5620 O.2    16  SER16      -0.2863
     20  CB       -11.5570   20.3170   16.1680 C.3    16  SER16       0.2116
     21  OG       -11.2170   21.0720   17.2960 O.3    16  SER16      -0.2180
     22  N        -10.3890   14.7230   15.9870 N.3    19  ILE19      -0.1245
     23  CA       -10.7070   14.3630   14.6420 C.3    19  ILE19       0.1561
     24  C         -9.4650   14.4890   13.7550 C.2    19  ILE19       0.2260
     25  O         -9.1690   13.6170   12.9470 O.2    19  ILE19      -0.2867
     26  CB       -11.8120   15.2410   14.0510 C.3    19  ILE19       0.0252
     27  CG1      -13.1750   14.8430   14.6160 C.3    19  ILE19       0.0019
     28  CG2      -11.8400   15.1400   12.4970 C.3    19  ILE19       0.0019
     29  CD1      -13.6440   13.4520   14.1860 C.3    19  ILE19       0.0001
     30  N         -9.8610   24.5270   11.0310 N.3    89  TYR89      -0.1241
     31  CA       -10.2080   25.8940   11.3800 C.3    89  TYR89       0.1605
     32  C         -9.7580   26.9060   10.3180 C.2    89  TYR89       0.2264
     33  O         -8.6020   26.8870    9.8540 O.2    89  TYR89      -0.2867
     34  CB        -9.5510   26.3380   12.7070 C.3    89  TYR89       0.0534
     35  CG        -9.9240   25.6920   14.0040 C.ar   89  TYR89      -0.0201
     36  CD1      -10.6900   24.4930   14.0920 C.ar   89  TYR89      -0.0009
     37  CD2       -9.4570   26.2700   15.1880 C.ar   89  TYR89      -0.0009
     38  CE1      -10.9570   23.8990   15.3250 C.ar   89  TYR89       0.0417
     39  CE2       -9.7500   25.7160   16.4290 C.ar   89  TYR89       0.0417
     40  CZ       -10.4690   24.5330   16.5200 C.ar   89  TYR89       0.1957
     41  OH       -10.7280   24.0390   17.7880 O.3    89  TYR89      -0.2866
     42  N        -14.8960   23.4760   11.6490 N.3   115  HIS115     -0.1226
     43  CA       -15.5390   22.7830   12.7600 C.3   115  HIS115      0.1752
     44  C        -16.5420   23.6190   13.4820 C.2   115  HIS115      0.2597
     45  O        -17.2010   23.1200   14.3320 O.2   115  HIS115     -0.2718
     46  CB       -14.5390   22.2820   13.8080 C.3   115  HIS115      0.0759
     47  CG       -13.5790   21.2880   13.2710 C.ar  115  HIS115      0.0818
     48  ND1      -13.7550   19.9280   13.4100 N.ar  115  HIS115     -0.2268
     49  CD2      -12.4880   21.4580   12.4970 C.ar  115  HIS115      0.1154
     50  CE1      -12.7470   19.3150   12.8210 C.ar  115  HIS115      0.1986
     51  NE2      -12.0050   20.2230   12.2170 N.ar  115  HIS115     -0.2212
     52  N        -16.6760   24.9050   13.2010 N.am  116  GLY116     -0.1942
     53  CA       -17.6790   25.6750   13.9170 C.3   116  GLY116      0.2014
     54  C        -17.0760   26.8150   14.6970 C.2   116  GLY116      0.2639
     55  O        -17.7360   27.7540   15.0200 O.2   116  GLY116     -0.2714
     56  N        -15.7880   26.7700   14.9360 N.am  117  THR117     -0.1950
     57  CA       -15.1920   27.7530   15.7920 C.3   117  THR117      0.1897
     58  C        -15.0570   29.1000   15.1360 C.2   117  THR117      0.2313
     59  O        -14.8490   30.0890   15.8200 O.2   117  THR117     -0.2863
     60  CB       -13.8030   27.3330   16.2320 C.3   117  THR117      0.1794
     61  OG1      -12.9570   27.1930   15.1150 O.3   117  THR117     -0.2208
     62  CG2      -13.8050   26.0700   17.0510 C.3   117  THR117      0.0378
     63  N        -18.2660   30.8400   16.1820 N.3   120  THR120     -0.1218
     64  CA       -18.0820   31.3150   17.5910 C.3   120  THR120      0.1862
     65  C        -17.2870   32.6230   17.6740 C.2   120  THR120      0.2287
     66  O        -17.7040   33.5820   18.2870 O.2   120  THR120     -0.2866
     67  CB       -17.3000   30.2380   18.3660 C.3   120  THR120      0.1770
     68  OG1      -18.0040   29.0190   18.2310 O.3   120  THR120     -0.2211
     69  CG2      -17.1420   30.5810   19.8340 C.3   120  THR120      0.0375
     70  N        -18.0570   20.0430    9.0260 N.3   145  VAL145     -0.1245
     71  CA       -18.4890   18.8380    9.7120 C.3   145  VAL145      0.1561
     72  C        -20.0410   18.5720    9.7280 C.2   145  VAL145      0.2260
     73  O        -20.4590   17.5070   10.1610 O.2   145  VAL145     -0.2867
     74  CB       -17.9380   18.7800   11.1630 C.3   145  VAL145      0.0252
     75  CG1      -16.4720   18.6930   11.1540 C.3   145  VAL145      0.0019
     76  CG2      -18.3630   19.9800   11.9410 C.3   145  VAL145      0.0019
     77  N        -18.0330   14.0620   10.9090 N.3   168  ASN168     -0.1240
     78  CA       -17.1160   13.4070   11.8070 C.3   168  ASN168      0.1653
     79  C        -17.3620   11.9050   11.9390 C.2   168  ASN168      0.2266
     80  O        -18.3810   11.3910   11.4900 O.2   168  ASN168     -0.2867
     81  CB       -17.1340   14.0620   13.1530 C.3   168  ASN168      0.1155
     82  CG       -16.4910   15.4190   13.1010 C.2   168  ASN168      0.2627
     83  OD1      -15.5000   15.6190   12.3490 O.2   168  ASN168     -0.2716
     84  ND2      -16.9960   16.3560   13.9200 N.am  168  ASN168     -0.0877
     85  N        -17.5690   20.3050   27.4150 N.3   194  ASN194     -0.1240
     86  CA       -16.5390   21.2550   27.8390 C.3   194  ASN194      0.1653
     87  C        -17.1720   22.3420   28.7800 C.2   194  ASN194      0.2266
     88  O        -16.6190   23.4150   29.0020 O.2   194  ASN194     -0.2867
     89  CB       -15.9080   21.8730   26.5610 C.3   194  ASN194      0.1155
     90  CG       -16.9230   22.6250   25.7510 C.2   194  ASN194      0.2627
     91  OD1      -18.0150   23.0030   26.2480 O.2   194  ASN194     -0.2716
     92  ND2      -16.6300   22.8060   24.4990 N.am  194  ASN194     -0.0877
     93  N        -19.2260   24.7920   28.7060 N.3   196  ARG196     -0.1245
     94  CA       -19.3920   26.1600   28.3180 C.3   196  ARG196      0.1563
     95  C        -20.8200   26.4380   28.3540 C.2   196  ARG196      0.2260
     96  O        -21.6040   25.5160   28.3020 O.2   196  ARG196     -0.2867
     97  CB       -18.8460   26.4060   26.9200 C.3   196  ARG196      0.0307
     98  CG       -17.3430   26.3070   26.9160 C.3   196  ARG196      0.0489
     99  CD       -16.8150   26.3450   25.5140 C.3   196  ARG196      0.2205
    100  NE       -15.3660   26.3110   25.5450 N.pl3 196  ARG196     -0.0865
    101  CZ       -14.5880   26.2920   24.4770 C.cat 196  ARG196      0.5346
    102  NH1      -15.1110   26.3060   23.2620 N.pl3 196  ARG196      0.1354
    103  NH2      -13.2750   26.2320   24.6320 N.pl3 196  ARG196      0.1354
    104  N        -22.8910   27.4720   26.2620 N.3   198  VAL198     -0.1231
    105  CA       -23.7070   26.9810   25.1430 C.3   198  VAL198      0.1692
    106  C        -24.1580   25.5250   25.3110 C.2   198  VAL198      0.2591
    107  O        -25.0760   25.0500   24.6110 O.2   198  VAL198     -0.2718
    108  CB       -23.0200   27.1170   23.7660 C.3   198  VAL198      0.0266
    109  CG1      -23.0630   28.5750   23.3000 C.3   198  VAL198      0.0020
    110  CG2      -21.5850   26.5650   23.7930 C.3   198  VAL198      0.0020
    111  N        -23.4640   24.8080   26.1870 N.am  199  LYS199     -0.1980
    112  CA       -23.8270   23.4280   26.4930 C.3   199  LYS199      0.1596
    113  C        -25.0640   23.2950   27.4010 C.2   199  LYS199      0.2287
    114  O        -25.6940   22.2570   27.4070 O.2   199  LYS199     -0.2864
    115  CB       -22.6630   22.7300   27.1350 C.3   199  LYS199      0.0298
    116  CG       -21.4790   22.5830   26.2300 C.3   199  LYS199      0.0038
    117  CD       -21.6690   21.6750   25.0290 C.3   199  LYS199      0.0206
    118  CE       -20.3670   21.6320   24.1950 C.3   199  LYS199      0.1093
    119  NZ       -20.3270   20.5210   23.1840 N.3   199  LYS199     -0.1314
    120  N        -25.8380   25.6320   20.9040 N.3   269  LYS269     -0.1231
    121  CA       -25.0170   25.6360   19.6710 C.3   269  LYS269      0.1693
    122  C        -24.2040   24.3670   19.6360 C.2   269  LYS269      0.2592
    123  O        -23.6350   23.9530   20.6690 O.2   269  LYS269     -0.2718
    124  CB       -24.0500   26.8000   19.6460 C.3   269  LYS269      0.0285
    125  CG       -24.6650   28.1770   19.8090 C.3   269  LYS269      0.0035
    126  CD       -25.3340   28.6650   18.5250 C.3   269  LYS269      0.0206
    127  CE       -26.3100   29.7980   18.8300 C.3   269  LYS269      0.1093
    128  NZ       -26.4710   30.8110   17.7380 N.3   269  LYS269     -0.1314
    129  N        -24.1300   23.7500   18.4610 N.am  270  GLU270     -0.1966
    130  CA       -23.3890   22.5200   18.2970 C.3   270  GLU270      0.1733
    131  C        -23.3070   22.2210   16.8220 C.2   270  GLU270      0.2617
    132  O        -24.3320   21.9910   16.1590 O.2   270  GLU270     -0.2715
    133  CB       -24.1210   21.3730   19.0310 C.3   270  GLU270      0.0429
    134  CG       -23.2830   20.1510   19.2900 C.3   270  GLU270      0.1163
    135  CD       -22.2540   20.3610   20.4160 C.2   270  GLU270      0.3649
    136  OE1      -22.6780   20.5460   21.5950 O.co2 270  GLU270     -0.2457
    137  OE2      -21.0240   20.2870   20.1180 O.co2 270  GLU270     -0.2457
    138  N        -22.0920   22.2510   16.2840 N.am  271  SER271     -0.1936
    139  CA       -21.8850   22.0380   14.8900 C.3   271  SER271      0.2055
    140  C        -22.0030   20.6100   14.5000 C.2   271  SER271      0.2643
    141  O        -22.3980   20.3440   13.3990 O.2   271  SER271     -0.2714
    142  CB       -20.5250   22.5570   14.4730 C.3   271  SER271      0.2130
    143  OG       -20.6250   23.9820   14.4790 O.3   271  SER271     -0.2179
    144  N        -21.6020   19.7020   15.3750 N.am  272  PHE272     -0.1959
    145  CA       -21.7480   18.2950   15.0980 C.3   272  PHE272      0.1771
    146  C        -22.1840   17.5120   16.3420 C.2   272  PHE272      0.2620
    147  O        -23.2190   16.9090   16.3200 O.2   272  PHE272     -0.2715
    148  CB       -20.4950   17.6860   14.5170 C.3   272  PHE272      0.0574
    149  CG       -20.6930   16.2670   14.1310 C.ar  272  PHE272     -0.0200
    150  CD1      -21.2760   15.9380   12.9100 C.ar  272  PHE272     -0.0042
    151  CD2      -20.4120   15.2600   15.0300 C.ar  272  PHE272     -0.0042
    152  CE1      -21.5790   14.6150   12.6010 C.ar  272  PHE272     -0.0003
    153  CE2      -20.6680   13.9540   14.7000 C.ar  272  PHE272     -0.0003
    154  CZ       -21.2510   13.6230   13.4900 C.ar  272  PHE272     -0.0000
    155  N        -21.3810   17.4880   17.4060 N.am  273  GLY273     -0.1940
    156  CA       -21.7420   16.6760   18.5800 C.3   273  GLY273      0.2014
    157  C        -21.0950   15.3190   18.5050 C.2   273  GLY273      0.2638
    158  O        -21.7400   14.2660   18.4390 O.2   273  GLY273     -0.2714
    159  N        -19.7890   15.3550   18.4830 N.am  274  LEU274     -0.1977
    160  CA       -19.0270   14.1490   18.3890 C.3   274  LEU274      0.1596
    161  C        -19.3510   13.2100   19.5580 C.2   274  LEU274      0.2287
    162  O        -19.2260   12.0070   19.3900 O.2   274  LEU274     -0.2864
    163  CB       -17.5320   14.4540   18.3910 C.3   274  LEU274      0.0297
    164  CG       -16.6070   13.2400   18.2960 C.3   274  LEU274      0.0022
    165  CD1      -16.8200   12.4460   17.0280 C.3   274  LEU274      0.0001
    166  CD2      -15.1720   13.7360   18.3520 C.3   274  LEU274      0.0001
@<TRIPOS>BOND
     1    70    71    1
     2    71    72    1
     3    71    74    1
     4    72    73    2
     5    33    32    2
     6    32    31    1
     7    77    78    1
     8    30    31    1
     9    75    74    1
    10    74    76    1
    11    31    34    1
    12    80    79    2
    13    42    43    1
    14    78    79    1
    15    78    81    1
    16    51    49   ar
    17    51    50   ar
    18    83    82    2
    19    49    47   ar
    20    28    26    1
    21   152   150   ar
    22   152   154   ar
    23    34    35    1
    24    43    44    1
    25    43    46    1
    26    50    48   ar
    27   150   149   ar
    28    25    24    2
    29    82    81    1
    30    82    84   am
    31    52    44   am
    32    52    53    1
    33    47    48   ar
    34    47    46    1
    35   141   140    2
    36    44    45    2
    37   154   153   ar
    38    24    23    1
    39    53    54    1
    40    35    36   ar
    41    35    37   ar
    42    26    27    1
    43    26    23    1
    44    36    38   ar
    45   149   148    1
    46   149   151   ar
    47    29    27    1
    48   142   143    1
    49   142   139    1
    50   140   139    1
    51   140   144   am
    52   148   145    1
    53    23    22    1
    54    54    56   am
    55    54    55    2
    56   153   151   ar
    57   139   138    1
    58    56    57    1
    59   145   144    1
    60   145   146    1
    61    61    60    1
    62    58    57    1
    63    58    59    2
    64    37    39   ar
    65    38    40   ar
    66    19    18    2
    67    57    60    1
    68   132   131    2
    69    20    17    1
    70    20    21    1
    71    63    64    1
    72    60    62    1
    73   138   131   am
    74   147   146    2
    75   146   155   am
    76    39    40   ar
    77    17    18    1
    78    17    16    1
    79    40    41    1
    80   131   130    1
    81   165   164    1
    82   155   156    1
    83    64    65    1
    84    64    67    1
    85    15    14    2
    86    65    66    2
    87    16    14   am
    88   128   127    1
    89    14    13    1
    90    68    67    1
    91   164   166    1
    92   164   163    1
    93   130   129    1
    94   130   133    1
    95    67    69    1
    96   160   163    1
    97   160   159    1
    98   160   161    1
    99   158   157    2
   100   129   122   am
   101   159   157   am
   102   157   156    1
   103   126   127    1
   104   126   125    1
   105   133   134    1
   106   134   135    1
   107    13    12    1
   108   162   161    2
   109   122   121    1
   110   122   123    2
   111   124   121    1
   112   124   125    1
   113   121   120    1
   114   137   135   ar
   115   135   136   ar
   116    12    10   am
   117     7     5    1
   118    11    10    2
   119     5     6    1
   120     5     2    1
   121     4     3    2
   122    10     9    1
   123     1     2    1
   124     3     2    1
   125     3     8   am
   126     8     9    1
   127   119   118    1
   128   102   101    1
   129   109   108    1
   130   108   110    1
   131   108   105    1
   132   118   117    1
   133   101   103    1
   134   101   100    2
   135    92    90   am
   136   107   106    2
   137   117   116    1
   138   105   106    1
   139   105   104    1
   140   106   111   am
   141    99   100    1
   142    99    98    1
   143    90    91    2
   144    90    89    1
   145   111   112    1
   146   116   115    1
   147   112   115    1
   148   112   113    1
   149    89    86    1
   150    98    97    1
   151    97    94    1
   152   113   114    2
   153    85    86    1
   154    86    87    1
   155    96    95    2
   156    94    95    1
   157    94    93    1
   158    87    88    2
