@<TRIPOS>MOLECULE
tmp/5d00B01.pdb
 149 139 0 0 0
SMALL
GASTEIGER

@<TRIPOS>ATOM
      1  N        -11.2730   19.7120   22.4250 N.3    14  GLY14      -0.1210
      2  CA       -11.9210   18.4190   22.4780 C.3    14  GLY14       0.1956
      3  C        -12.2150   17.5490   21.2920 C.2    14  GLY14       0.2612
      4  O        -11.6350   16.5150   21.1170 O.2    14  GLY14      -0.2717
      5  N        -13.1480   17.9940   20.4830 N.am   15  GLY15      -0.1956
      6  CA       -13.6320   17.2630   19.3400 C.3    15  GLY15       0.1869
      7  C        -12.7440   17.4100   18.1340 C.2    15  GLY15       0.2309
      8  O        -12.3120   16.4330   17.6210 O.2    15  GLY15      -0.2863
      9  N         -9.1960   15.7850   18.2780 N.3    18  ILE18      -0.1245
     10  CA        -9.3190   14.3540   18.1710 C.3    18  ILE18       0.1561
     11  C         -9.5580   13.9700   16.7110 C.2    18  ILE18       0.2260
     12  O         -9.0110   12.9940   16.2480 O.2    18  ILE18      -0.2867
     13  CB       -10.4920   13.8140   19.0620 C.3    18  ILE18       0.0252
     14  CG1      -10.1190   13.8510   20.5570 C.3    18  ILE18       0.0019
     15  CG2      -10.8660   12.3840   18.7060 C.3    18  ILE18       0.0019
     16  CD1      -11.3210   13.6310   21.4710 C.3    18  ILE18       0.0001
     17  N        -18.0330   14.0620   10.9090 N.3   168  ASN168     -0.1240
     18  CA       -17.1160   13.4070   11.8070 C.3   168  ASN168      0.1653
     19  C        -17.3620   11.9050   11.9390 C.2   168  ASN168      0.2266
     20  O        -18.3810   11.3910   11.4900 O.2   168  ASN168     -0.2867
     21  CB       -17.1340   14.0620   13.1530 C.3   168  ASN168      0.1155
     22  CG       -16.4910   15.4190   13.1010 C.2   168  ASN168      0.2627
     23  OD1      -15.5000   15.6190   12.3490 O.2   168  ASN168     -0.2716
     24  ND2      -16.9960   16.3560   13.9200 N.am  168  ASN168     -0.0877
     25  N        -21.2200   14.5610   28.5980 N.3   192  VAL192     -0.1231
     26  CA       -19.8030   14.7790   28.3330 C.3   192  VAL192      0.1692
     27  C        -19.7670   16.0890   27.5480 C.2   192  VAL192      0.2593
     28  O        -20.5060   16.2590   26.5400 O.2   192  VAL192     -0.2718
     29  CB       -19.2470   13.6610   27.4630 C.3   192  VAL192      0.0266
     30  CG1      -17.7330   13.8450   27.2470 C.3   192  VAL192      0.0020
     31  CG2      -19.6140   12.3010   28.0720 C.3   192  VAL192      0.0020
     32  N        -19.0350   17.0650   28.0710 N.am  193  SER193     -0.1938
     33  CA       -18.9270   18.3600   27.3900 C.3   193  SER193      0.2055
     34  C        -17.7930   19.1300   27.9860 C.2   193  SER193      0.2643
     35  O        -17.1840   18.7040   28.9610 O.2   193  SER193     -0.2714
     36  CB       -20.2270   19.1850   27.5120 C.3   193  SER193      0.2130
     37  OG       -20.3820   19.8150   28.8040 O.3   193  SER193     -0.2179
     38  N        -17.5690   20.3050   27.4150 N.am  194  ASN194     -0.1971
     39  CA       -16.5390   21.2550   27.8390 C.3   194  ASN194      0.1688
     40  C        -17.1720   22.3420   28.7800 C.2   194  ASN194      0.2292
     41  O        -16.6190   23.4150   29.0020 O.2   194  ASN194     -0.2864
     42  CB       -15.9080   21.8730   26.5610 C.3   194  ASN194      0.1181
     43  CG       -16.9230   22.6250   25.7510 C.2   194  ASN194      0.2629
     44  OD1      -18.0150   23.0030   26.2480 O.2   194  ASN194     -0.2716
     45  ND2      -16.6300   22.8060   24.4990 N.am  194  ASN194     -0.0877
     46  N        -23.4640   24.8080   26.1870 N.3   199  LYS199     -0.1245
     47  CA       -23.8270   23.4280   26.4930 C.3   199  LYS199      0.1561
     48  C        -25.0640   23.2950   27.4010 C.2   199  LYS199      0.2260
     49  O        -25.6940   22.2570   27.4070 O.2   199  LYS199     -0.2867
     50  CB       -22.6630   22.7300   27.1350 C.3   199  LYS199      0.0271
     51  CG       -21.4790   22.5830   26.2300 C.3   199  LYS199      0.0035
     52  CD       -21.6690   21.6750   25.0290 C.3   199  LYS199      0.0206
     53  CE       -20.3670   21.6320   24.1950 C.3   199  LYS199      0.1093
     54  NZ       -20.3270   20.5210   23.1840 N.3   199  LYS199     -0.1314
     55  N        -19.0570   14.5350   32.8200 N.3   222  VAL222     -0.1231
     56  CA       -17.7220   14.2470   32.3670 C.3   222  VAL222      0.1692
     57  C        -17.2540   15.4970   31.6190 C.2   222  VAL222      0.2592
     58  O        -17.9630   16.0150   30.7250 O.2   222  VAL222     -0.2718
     59  CB       -17.7090   13.0210   31.4100 C.3   222  VAL222      0.0266
     60  CG1      -16.3310   12.7120   30.8600 C.3   222  VAL222      0.0020
     61  CG2      -18.2990   11.7910   32.1090 C.3   222  VAL222      0.0020
     62  N        -16.0570   15.9480   31.9910 N.am  223  GLY223     -0.1957
     63  CA       -15.3990   17.1210   31.4250 C.3   223  GLY223      0.1869
     64  C        -15.1710   18.1930   32.4810 C.2   223  GLY223      0.2309
     65  O        -15.6130   18.0790   33.6380 O.2   223  GLY223     -0.2863
     66  N        -12.4600   15.8330   33.7680 N.3   249  ASN249     -0.1225
     67  CA       -11.9940   15.3160   32.5110 C.3   249  ASN249      0.1785
     68  C        -11.6860   13.9030   32.7080 C.2   249  ASN249      0.2597
     69  O        -11.4080   13.5010   33.8040 O.2   249  ASN249     -0.2718
     70  CB       -10.7120   16.0030   32.1000 C.3   249  ASN249      0.1169
     71  CG       -10.9460   17.1370   31.1560 C.2   249  ASN249      0.2627
     72  OD1      -11.3560   16.9500   30.0090 O.2   249  ASN249     -0.2716
     73  ND2      -10.6670   18.3290   31.6230 N.am  249  ASN249     -0.0877
     74  N        -11.7240   13.1450   31.6380 N.am  250  GLN250     -0.1979
     75  CA       -11.4360   11.7570   31.7470 C.3   250  GLN250      0.1601
     76  C        -10.7140   11.2800   30.5440 C.2   250  GLN250      0.2287
     77  O        -10.8320   11.8430   29.4600 O.2   250  GLN250     -0.2864
     78  CB       -12.7240   10.9900   31.8840 C.3   250  GLN250      0.0394
     79  CG       -13.3460   11.0700   33.2490 C.3   250  GLN250      0.0908
     80  CD       -12.4980   10.4030   34.2870 C.2   250  GLN250      0.2608
     81  OE1      -11.7730    9.4560   33.9920 O.2   250  GLN250     -0.2717
     82  NE2      -12.5580   10.9100   35.5110 N.am  250  GLN250     -0.0878
     83  N        -13.2140    7.3810   28.4280 N.3   253  VAL253     -0.1245
     84  CA       -14.5680    7.8110   28.3860 C.3   253  VAL253      0.1561
     85  C        -15.4560    6.6800   27.8200 C.2   253  VAL253      0.2260
     86  O        -16.6210    6.6210   28.1480 O.2   253  VAL253     -0.2867
     87  CB       -14.7150    9.1920   27.6800 C.3   253  VAL253      0.0252
     88  CG1      -14.6110    9.0690   26.1780 C.3   253  VAL253      0.0019
     89  CG2      -16.0260    9.8310   28.0190 C.3   253  VAL253      0.0019
     90  N        -19.3410    5.6050   28.8750 N.3   257  TYR257     -0.1241
     91  CA       -20.4830    5.4060   27.9980 C.3   257  TYR257      0.1605
     92  C        -20.9030    3.9380   28.1150 C.2   257  TYR257      0.2264
     93  O        -22.0700    3.6500   28.0730 O.2   257  TYR257     -0.2867
     94  CB       -20.1000    5.6570   26.5640 C.3   257  TYR257      0.0534
     95  CG       -19.7530    7.1040   26.1580 C.ar  257  TYR257     -0.0201
     96  CD1      -20.7410    8.1180   26.1590 C.ar  257  TYR257     -0.0009
     97  CD2      -18.4950    7.4080   25.6560 C.ar  257  TYR257     -0.0009
     98  CE1      -20.4660    9.3960   25.7100 C.ar  257  TYR257      0.0417
     99  CE2      -18.1970    8.7050   25.2050 C.ar  257  TYR257      0.0417
    100  CZ       -19.1940    9.6830   25.2400 C.ar  257  TYR257      0.1957
    101  OH       -18.9250   10.9340   24.7800 O.3   257  TYR257     -0.2866
    102  N        -24.1300   23.7500   18.4610 N.3   270  GLU270     -0.1245
    103  CA       -23.3890   22.5200   18.2970 C.3   270  GLU270      0.1567
    104  C        -23.3070   22.2210   16.8220 C.2   270  GLU270      0.2260
    105  O        -24.3320   21.9910   16.1590 O.2   270  GLU270     -0.2867
    106  CB       -24.1210   21.3730   19.0310 C.3   270  GLU270      0.0388
    107  CG       -23.2830   20.1510   19.2900 C.3   270  GLU270      0.1160
    108  CD       -22.2540   20.3610   20.4160 C.2   270  GLU270      0.3649
    109  OE1      -22.6780   20.5460   21.5950 O.co2 270  GLU270     -0.2457
    110  OE2      -21.0240   20.2870   20.1180 O.co2 270  GLU270     -0.2457
    111  N        -21.6020   19.7020   15.3750 N.3   272  PHE272     -0.1227
    112  CA       -21.7480   18.2950   15.0980 C.3   272  PHE272      0.1736
    113  C        -22.1840   17.5120   16.3420 C.2   272  PHE272      0.2596
    114  O        -23.2190   16.9090   16.3200 O.2   272  PHE272     -0.2718
    115  CB       -20.4950   17.6860   14.5170 C.3   272  PHE272      0.0547
    116  CG       -20.6930   16.2670   14.1310 C.ar  272  PHE272     -0.0202
    117  CD1      -21.2760   15.9380   12.9100 C.ar  272  PHE272     -0.0042
    118  CD2      -20.4120   15.2600   15.0300 C.ar  272  PHE272     -0.0042
    119  CE1      -21.5790   14.6150   12.6010 C.ar  272  PHE272     -0.0003
    120  CE2      -20.6680   13.9540   14.7000 C.ar  272  PHE272     -0.0003
    121  CZ       -21.2510   13.6230   13.4900 C.ar  272  PHE272     -0.0000
    122  N        -21.3810   17.4880   17.4060 N.am  273  GLY273     -0.1942
    123  CA       -21.7420   16.6760   18.5800 C.3   273  GLY273      0.2014
    124  C        -21.0950   15.3190   18.5050 C.2   273  GLY273      0.2639
    125  O        -21.7400   14.2660   18.4390 O.2   273  GLY273     -0.2714
    126  N        -19.7890   15.3550   18.4830 N.am  274  LEU274     -0.1963
    127  CA       -19.0270   14.1490   18.3890 C.3   274  LEU274      0.1728
    128  C        -19.3510   13.2100   19.5580 C.2   274  LEU274      0.2616
    129  O        -19.2260   12.0070   19.3900 O.2   274  LEU274     -0.2715
    130  CB       -17.5320   14.4540   18.3910 C.3   274  LEU274      0.0311
    131  CG       -16.6070   13.2400   18.2960 C.3   274  LEU274      0.0022
    132  CD1      -16.8200   12.4460   17.0280 C.3   274  LEU274      0.0001
    133  CD2      -15.1720   13.7360   18.3520 C.3   274  LEU274      0.0001
    134  N        -19.6690   13.7600   20.7340 N.am  275  VAL275     -0.1977
    135  CA       -19.9290   12.9490   21.9040 C.3   275  VAL275      0.1596
    136  C        -21.1230   12.0050   21.6650 C.2   275  VAL275      0.2287
    137  O        -21.1770   10.9120   22.2430 O.2   275  VAL275     -0.2864
    138  CB       -20.1890   13.7830   23.2110 C.3   275  VAL275      0.0276
    139  CG1      -18.9020   14.4250   23.7020 C.3   275  VAL275      0.0022
    140  CG2      -21.3330   14.7420   23.0470 C.3   275  VAL275      0.0022
    141  N        -19.9750    8.8400   20.0100 N.3   278  GLU278     -0.1245
    142  CA       -19.2560    7.9590   20.9080 C.3   278  GLU278      0.1567
    143  C        -20.2850    7.1920   21.7780 C.2   278  GLU278      0.2260
    144  O        -20.1220    5.9950   22.0410 O.2   278  GLU278     -0.2867
    145  CB       -18.2320    8.7230   21.7880 C.3   278  GLU278      0.0388
    146  CG       -17.1320    9.4560   21.0040 C.3   278  GLU278      0.1160
    147  CD       -16.3290   10.5030   21.8390 C.2   278  GLU278      0.3649
    148  OE1      -16.7310   10.7800   23.0220 O.co2 278  GLU278     -0.2457
    149  OE2      -15.2790   11.0480   21.3290 O.co2 278  GLU278     -0.2457
@<TRIPOS>BOND
     1    17    18    1
     2    20    19    2
     3    18    19    1
     4    18    21    1
     5    23    22    2
     6   119   117   ar
     7   119   121   ar
     8   117   116   ar
     9    22    21    1
    10    22    24   am
    11   121   120   ar
    12   116   115    1
    13   116   118   ar
    14   115   112    1
    15   120   118   ar
    16   112   111    1
    17   112   113    1
    18   105   104    2
    19    12    11    2
    20   114   113    2
    21   113   122   am
    22    11    10    1
    23   104   103    1
    24   132   131    1
    25   122   123    1
    26     8     7    2
    27     7     6    1
    28    10     9    1
    29    10    13    1
    30   131   133    1
    31   131   130    1
    32   103   102    1
    33   103   106    1
    34   127   130    1
    35   127   126    1
    36   127   128    1
    37   125   124    2
    38   126   124   am
    39   124   123    1
    40    15    13    1
    41   106   107    1
    42    13    14    1
    43   107   108    1
    44     6     5    1
    45   129   128    2
    46   128   134   am
    47   141   142    1
    48   110   108   ar
    49   108   109   ar
    50     5     3   am
    51    14    16    1
    52   134   135    1
    53   142   143    1
    54   142   145    1
    55   146   145    1
    56   146   147    1
    57     4     3    2
    58     3     2    1
    59   149   147   ar
    60   136   135    1
    61   136   137    2
    62   143   144    2
    63   147   148   ar
    64   135   138    1
    65     1     2    1
    66   140   138    1
    67    54    53    1
    68   138   139    1
    69    53    52    1
    70    45    43   am
    71   101   100    1
    72    52    51    1
    73    99   100   ar
    74    99    97   ar
    75   100    98   ar
    76    97    95   ar
    77    98    96   ar
    78    43    44    2
    79    43    42    1
    80    95    96   ar
    81    95    94    1
    82    88    87    1
    83    46    47    1
    84    51    50    1
    85    47    50    1
    86    47    48    1
    87    28    27    2
    88    42    39    1
    89    94    91    1
    90    30    29    1
    91    33    36    1
    92    33    34    1
    93    33    32    1
    94    48    49    2
    95    38    39    1
    96    38    34   am
    97    29    31    1
    98    29    26    1
    99    36    37    1
   100    27    32   am
   101    27    26    1
   102    87    89    1
   103    87    84    1
   104    85    86    2
   105    85    84    1
   106    39    40    1
   107    34    35    2
   108    91    92    1
   109    91    90    1
   110    93    92    2
   111    26    25    1
   112    84    83    1
   113    40    41    2
   114    77    76    2
   115    72    71    2
   116    76    75    1
   117    58    57    2
   118    60    59    1
   119    71    73   am
   120    71    70    1
   121    59    61    1
   122    59    56    1
   123    63    62    1
   124    63    64    1
   125    57    62   am
   126    57    56    1
   127    74    75    1
   128    74    68   am
   129    75    78    1
   130    78    79    1
   131    70    67    1
   132    56    55    1
   133    64    65    2
   134    67    68    1
   135    67    66    1
   136    68    69    2
   137    79    80    1
   138    81    80    2
   139    80    82   am
