@<TRIPOS>MOLECULE
tmp/5d02B00.pdb
 123 115 0 0 0
SMALL
GASTEIGER

@<TRIPOS>ATOM
      1  N        -40.7860  -72.9020   -1.4760 N.3    80  ARG80      -0.1245
      2  CA       -39.6960  -73.6220   -2.1730 C.3    80  ARG80       0.1563
      3  C        -39.7520  -73.3960   -3.6480 C.2    80  ARG80       0.2260
      4  O        -40.6820  -73.8850   -4.3200 O.2    80  ARG80      -0.2867
      5  CB       -39.7900  -75.1380   -2.0440 C.3    80  ARG80       0.0307
      6  CG       -39.2520  -75.7110   -0.8150 C.3    80  ARG80       0.0489
      7  CD       -39.3970  -77.2280   -0.7850 C.3    80  ARG80       0.2205
      8  NE       -38.6410  -77.9010   -1.8500 N.pl3  80  ARG80      -0.0865
      9  CZ       -37.5400  -78.6360   -1.6710 C.cat  80  ARG80       0.5346
     10  NH1      -36.9650  -79.2120   -2.7030 N.pl3  80  ARG80       0.1354
     11  NH2      -36.9910  -78.7940   -0.4670 N.pl3  80  ARG80       0.1354
     12  N        -37.2090  -74.2390   -6.1930 N.3    82  TYR82      -0.1241
     13  CA       -35.9180  -74.8650   -6.4350 C.3    82  TYR82       0.1605
     14  C        -35.7560  -75.0800   -7.9390 C.2    82  TYR82       0.2264
     15  O        -36.5710  -75.7920   -8.5370 O.2    82  TYR82      -0.2867
     16  CB       -35.8190  -76.2170   -5.6950 C.3    82  TYR82       0.0534
     17  CG       -35.4380  -76.1280   -4.2240 C.ar   82  TYR82      -0.0201
     18  CD1      -35.9660  -75.1560   -3.3960 C.ar   82  TYR82      -0.0009
     19  CD2      -34.6070  -77.0920   -3.6460 C.ar   82  TYR82      -0.0009
     20  CE1      -35.6200  -75.1070   -2.0490 C.ar   82  TYR82       0.0417
     21  CE2      -34.2570  -77.0580   -2.3020 C.ar   82  TYR82       0.0417
     22  CZ       -34.7720  -76.0670   -1.5030 C.ar   82  TYR82       0.1957
     23  OH       -34.4520  -76.0010   -0.1720 O.3    82  TYR82      -0.2866
     24  N        -31.2720  -79.1280   -9.3690 N.3    85  LYS85      -0.1231
     25  CA       -31.4590  -80.4250   -8.6890 C.3    85  LYS85       0.1678
     26  C        -30.2370  -81.3380   -8.8110 C.2    85  LYS85       0.2434
     27  O        -29.7260  -81.5520   -9.9100 O.2    85  LYS85      -0.2733
     28  CB       -32.6750  -81.1770   -9.2710 C.3    85  LYS85       0.0284
     29  CG       -33.9520  -80.3520   -9.2480 C.3    85  LYS85       0.0035
     30  CD       -34.2520  -79.8540   -7.8600 C.3    85  LYS85       0.0206
     31  CE       -34.3250  -81.0310   -6.8690 C.3    85  LYS85       0.1093
     32  NZ       -34.8150  -80.5370   -5.5530 N.3    85  LYS85      -0.1314
     33  N        -29.7760  -81.8990   -7.6770 N.am   86  PRO86      -0.2729
     34  CA       -28.7170  -82.8820   -7.7780 C.3    86  PRO86       0.1401
     35  C        -29.2880  -84.2560   -8.1360 C.2    86  PRO86       0.2269
     36  O        -30.3320  -84.6470   -7.6290 O.2    86  PRO86      -0.2865
     37  CB       -28.0670  -82.8460   -6.4040 C.3    86  PRO86       0.0296
     38  CG       -29.1220  -82.3520   -5.4810 C.3    86  PRO86       0.0237
     39  CD       -30.0880  -81.5370   -6.2870 C.3    86  PRO86       0.0939
     40  N        -32.2870  -73.8500   -3.4500 N.3   131  GLU131     -0.1245
     41  CA       -31.0020  -74.4870   -3.2240 C.3   131  GLU131      0.1567
     42  C        -30.0320  -73.8660   -4.2020 C.2   131  GLU131      0.2260
     43  O        -30.2460  -73.9500   -5.4020 O.2   131  GLU131     -0.2867
     44  CB       -30.9880  -76.0170   -3.4690 C.3   131  GLU131      0.0388
     45  CG       -29.5510  -76.5780   -3.3450 C.3   131  GLU131      0.1160
     46  CD       -29.3370  -78.1030   -3.4750 C.2   131  GLU131      0.3649
     47  OE1      -30.2760  -78.8940   -3.3900 O.co2 131  GLU131     -0.2457
     48  OE2      -28.1500  -78.5250   -3.6710 O.co2 131  GLU131     -0.2457
     49  N        -27.3670  -78.1180   -0.1730 N.3   151  GLY151     -0.1210
     50  CA       -27.8900  -79.4890   -0.0340 C.3   151  GLY151      0.1956
     51  C        -26.9380  -80.4710    0.6120 C.2   151  GLY151      0.2612
     52  O        -25.7240  -80.2210    0.7420 O.2   151  GLY151     -0.2717
     53  N        -27.5030  -81.6020    1.0030 N.am  152  ALA152     -0.1965
     54  CA       -26.7820  -82.6470    1.6880 C.3   152  ALA152      0.1728
     55  C        -25.4970  -83.1020    0.9410 C.2   152  ALA152      0.2616
     56  O        -24.4920  -83.4720    1.5640 O.2   152  ALA152     -0.2715
     57  CB       -27.7180  -83.8220    1.8980 C.3   152  ALA152      0.0334
     58  N        -25.5600  -83.0770   -0.3850 N.am  153  ARG153     -0.1977
     59  CA       -24.4870  -83.5400   -1.2350 C.3   153  ARG153      0.1597
     60  C        -23.3110  -82.5350   -1.3930 C.2   153  ARG153      0.2287
     61  O        -22.2340  -82.8900   -1.9250 O.2   153  ARG153     -0.2864
     62  CB       -25.0370  -83.8940   -2.5910 C.3   153  ARG153      0.0334
     63  CG       -25.9990  -85.0590   -2.5420 C.3   153  ARG153      0.0492
     64  CD       -26.5970  -85.4480   -3.8620 C.3   153  ARG153      0.2205
     65  NE       -27.6010  -86.5070   -3.6810 N.pl3 153  ARG153     -0.0865
     66  CZ       -28.7800  -86.3610   -3.0480 C.cat 153  ARG153      0.5346
     67  NH1      -29.1710  -85.1950   -2.5310 N.pl3 153  ARG153      0.1354
     68  NH2      -29.5950  -87.4000   -2.9310 N.pl3 153  ARG153      0.1354
     69  N        -27.7290  -78.6980    5.0470 N.3   174  LYS174     -0.1245
     70  CA       -28.2820  -79.9920    5.3440 C.3   174  LYS174      0.1561
     71  C        -27.2400  -80.9450    5.8420 C.2   174  LYS174      0.2260
     72  O        -26.0900  -80.9320    5.3940 O.2   174  LYS174     -0.2867
     73  CB       -28.9290  -80.5620    4.0870 C.3   174  LYS174      0.0271
     74  CG       -30.1280  -79.7310    3.6800 C.3   174  LYS174      0.0035
     75  CD       -31.0670  -80.4670    2.7540 C.3   174  LYS174      0.0206
     76  CE       -32.5260  -80.2380    3.1300 C.3   174  LYS174      0.1093
     77  NZ       -33.3450  -81.1910    2.3430 N.3   174  LYS174     -0.1314
     78  N        -32.2560  -83.7510    7.9320 N.3   222  ARG222     -0.1245
     79  CA       -33.0050  -84.3660    6.8130 C.3   222  ARG222      0.1563
     80  C        -32.8810  -85.8680    6.7230 C.2   222  ARG222      0.2260
     81  O        -33.2050  -86.4670    5.6880 O.2   222  ARG222     -0.2867
     82  CB       -32.5930  -83.7300    5.4530 C.3   222  ARG222      0.0307
     83  CG       -31.0920  -83.6280    5.1670 C.3   222  ARG222      0.0489
     84  CD       -30.4820  -84.9440    4.7170 C.3   222  ARG222      0.2205
     85  NE       -30.9040  -85.3320    3.3650 N.pl3 222  ARG222     -0.0865
     86  CZ       -30.7940  -86.5650    2.8600 C.cat 222  ARG222      0.5346
     87  NH1      -31.1760  -86.8000    1.6130 N.pl3 222  ARG222      0.1354
     88  NH2      -30.3130  -87.5710    3.5760 N.pl3 222  ARG222      0.1354
     89  N        -37.4000  -86.2870    2.1370 N.3   256  HIS256     -0.1241
     90  CA       -36.1440  -87.0100    1.8820 C.3   256  HIS256      0.1621
     91  C        -35.9480  -88.1450    2.8890 C.2   256  HIS256      0.2264
     92  O        -36.8680  -88.9510    3.0660 O.2   256  HIS256     -0.2867
     93  CB       -35.0120  -85.9960    1.8020 C.3   256  HIS256      0.0745
     94  CG       -35.3290  -84.9140    0.8170 C.ar  256  HIS256      0.0817
     95  ND1      -35.7870  -83.6720    1.2020 N.ar  256  HIS256     -0.2268
     96  CD2      -35.4010  -84.9440   -0.5390 C.ar  256  HIS256      0.1154
     97  CE1      -36.0660  -82.9580    0.1200 C.ar  256  HIS256      0.1986
     98  NE2      -35.8150  -83.7000   -0.9480 N.ar  256  HIS256     -0.2212
     99  N        -39.1660  -78.0420    6.8680 N.3   288  MET288     -0.1245
    100  CA       -39.1800  -78.1270    5.4140 C.3   288  MET288      0.1570
    101  C        -40.1920  -79.1850    4.9600 C.2   288  MET288      0.2261
    102  O        -40.3070  -80.2380    5.5730 O.2   288  MET288     -0.2867
    103  CB       -37.7910  -78.4720    4.8780 C.3   288  MET288      0.0387
    104  CG       -37.6570  -78.4110    3.3640 C.3   288  MET288      0.0595
    105  SD       -35.9950  -78.7250    2.6890 S.3   288  MET288     -0.1393
    106  CE       -35.2350  -77.1550    3.1340 C.3   288  MET288      0.0692
    107  N        -42.0490  -80.9690    1.2710 N.3   290  GLU290     -0.1245
    108  CA       -42.1630  -81.1290   -0.1970 C.3   290  GLU290      0.1567
    109  C        -43.6460  -81.3310   -0.5780 C.2   290  GLU290      0.2260
    110  O        -44.2650  -82.3540   -0.2280 O.2   290  GLU290     -0.2867
    111  CB       -41.2170  -82.2160   -0.7750 C.3   290  GLU290      0.0388
    112  CG       -39.7590  -81.7480   -0.9840 C.3   290  GLU290      0.1160
    113  CD       -38.8680  -82.7980   -1.6280 C.2   290  GLU290      0.3649
    114  OE1      -39.0430  -83.9560   -1.1720 O.co2 290  GLU290     -0.2457
    115  OE2      -37.9320  -82.4700   -2.4700 O.co2 290  GLU290     -0.2457
    116  N        -38.6720  -85.7400   -6.7240 N.3   310  ASP310     -0.1239
    117  CA       -39.1730  -86.4300   -5.5140 C.3   310  ASP310      0.1674
    118  C        -40.6950  -86.2380   -5.4030 C.2   310  ASP310      0.2266
    119  O        -41.2500  -85.1930   -5.7710 O.2   310  ASP310     -0.2867
    120  CB       -38.5010  -85.9370   -4.2200 C.3   310  ASP310      0.1410
    121  CG       -36.9900  -86.1840   -4.2050 C.2   310  ASP310      0.3668
    122  OD1      -36.5330  -87.1380   -4.8730 O.co2 310  ASP310     -0.2456
    123  OD2      -36.2490  -85.4360   -3.5210 O.co2 310  ASP310     -0.2456
@<TRIPOS>BOND
     1    27    26    2
     2    24    25    1
     3    28    29    1
     4    28    25    1
     5    29    30    1
     6    26    25    1
     7    26    33   am
     8    15    14    2
     9    35    34    1
    10    35    36    2
    11    14    13    1
    12    30    31    1
    13    34    33    1
    14    34    37    1
    15    33    39    1
    16    31    32    1
    17   116   117    1
    18    13    12    1
    19    13    16    1
    20    37    38    1
    21    39    38    1
    22   119   118    2
    23    16    17    1
    24   117   118    1
    25   117   120    1
    26    43    42    2
    27   122   121   ar
    28     4     3    2
    29    17    19   ar
    30    17    18   ar
    31   120   121    1
    32   121   123   ar
    33    42    41    1
    34    64    65    1
    35    64    63    1
    36    65    66    2
    37    48    46   ar
    38     3     2    1
    39    19    21   ar
    40    46    47   ar
    41    46    45    1
    42    44    45    1
    43    44    41    1
    44    40    41    1
    45    18    20   ar
    46    66    68    1
    47    66    67    1
    48    10     9    1
    49    62    63    1
    50    62    59    1
    51   115   113   ar
    52    21    22   ar
    53     2     5    1
    54     2     1    1
    55    20    22   ar
    56     5     6    1
    57    61    60    2
    58     8     9    2
    59     8     7    1
    60     9    11    1
    61   113   114   ar
    62   113   112    1
    63    22    23    1
    64    60    59    1
    65    59    58    1
    66   112   111    1
    67    98    96   ar
    68    98    97   ar
    69     6     7    1
    70   111   108    1
    71   109   110    2
    72   109   108    1
    73    96    94   ar
    74    58    55   am
    75   108   107    1
    76    49    50    1
    77    50    51    1
    78    97    95   ar
    79    51    52    2
    80    51    53   am
    81    94    95   ar
    82    94    93    1
    83    55    56    2
    84    55    54    1
    85    53    54    1
    86    87    86    1
    87    54    57    1
    88    93    90    1
    89    90    89    1
    90    90    91    1
    91    77    76    1
    92   105   106    1
    93   105   104    1
    94    75    76    1
    95    75    74    1
    96    86    85    2
    97    86    88    1
    98    91    92    2
    99   104   103    1
   100    85    84    1
   101    74    73    1
   102    73    70    1
   103    84    83    1
   104   103   100    1
   105   101   100    1
   106   101   102    2
   107    69    70    1
   108    83    82    1
   109    70    71    1
   110    72    71    2
   111   100    99    1
   112    82    79    1
   113    81    80    2
   114    80    79    1
   115    79    78    1
