@<TRIPOS>MOLECULE
tmp/5d05A01.pdb
 89 87 0 0 0
SMALL
GASTEIGER

@<TRIPOS>ATOM
      1  N         11.7940   -0.0530  -35.4280 N.3   102  GLY102     -0.1210
      2  CA        11.4590    0.1960  -36.8140 C.3   102  GLY102      0.1956
      3  C         10.0570    0.7330  -36.9450 C.2   102  GLY102      0.2611
      4  O          9.4050    1.0450  -35.9470 O.2   102  GLY102     -0.2717
      5  N          9.5830    0.8070  -38.1670 N.am  103  TRP103     -0.1976
      6  CA         8.3040    1.4560  -38.4590 C.3   103  TRP103      0.1640
      7  C          7.1590    0.7240  -37.7890 C.2   103  TRP103      0.2290
      8  O          7.0070   -0.4990  -37.9370 O.2   103  TRP103     -0.2864
      9  CB         8.0910    1.5450  -39.9770 C.3   103  TRP103      0.0576
     10  CG         6.7360    2.0680  -40.3930 C.ar  103  TRP103      0.0006
     11  CD1        6.1900    3.2800  -40.0680 C.ar  103  TRP103      0.0946
     12  CD2        5.7740    1.4070  -41.2200 C.ar  103  TRP103      0.0152
     13  NE1        4.9300    3.4050  -40.6180 N.ar  103  TRP103     -0.2442
     14  CE2        4.6580    2.2750  -41.3470 C.ar  103  TRP103      0.0810
     15  CE3        5.7260    0.1510  -41.8550 C.ar  103  TRP103      0.0012
     16  CZ2        3.5220    1.9280  -42.0910 C.ar  103  TRP103      0.0191
     17  CZ3        4.5890   -0.1920  -42.5810 C.ar  103  TRP103      0.0001
     18  CH2        3.4970    0.6870  -42.6830 C.ar  103  TRP103      0.0015
     19  N          1.7220    4.9870  -37.1160 N.3   109  ASP109     -0.1239
     20  CA         2.5960    6.0030  -37.7140 C.3   109  ASP109      0.1674
     21  C          2.2960    6.1520  -39.1920 C.2   109  ASP109      0.2266
     22  O          3.1360    5.8120  -40.0580 O.2   109  ASP109     -0.2867
     23  CB         4.0640    5.6420  -37.4850 C.3   109  ASP109      0.1410
     24  CG         5.0050    6.7910  -37.7950 C.2   109  ASP109      0.3668
     25  OD1        4.5860    7.9680  -37.7330 O.co2 109  ASP109     -0.2456
     26  OD2        6.1860    6.5200  -38.0770 O.co2 109  ASP109     -0.2456
     27  N          4.6890    7.7100  -41.8000 N.3   112  LEU112     -0.1231
     28  CA         5.9700    7.0310  -42.0480 C.3   112  LEU112      0.1693
     29  C          7.1560    7.8970  -41.6680 C.2   112  LEU112      0.2592
     30  O          8.1830    7.9190  -42.3710 O.2   112  LEU112     -0.2718
     31  CB         6.0580    6.6610  -43.5270 C.3   112  LEU112      0.0284
     32  CG         5.0040    5.6660  -43.9910 C.3   112  LEU112      0.0019
     33  CD1        4.6380    5.8850  -45.4590 C.3   112  LEU112      0.0001
     34  CD2        5.5900    4.3010  -43.7820 C.3   112  LEU112      0.0001
     35  N          7.0210    8.6480  -40.5840 N.am  113  ASP113     -0.1960
     36  CA         8.0430    9.6320  -40.2390 C.3   113  ASP113      0.1840
     37  C          8.2260    9.8280  -38.7440 C.2   113  ASP113      0.2622
     38  O          8.8250   10.8040  -38.2980 O.2   113  ASP113     -0.2715
     39  CB         7.7040   10.9590  -40.9180 C.3   113  ASP113      0.1450
     40  CG         6.4040   11.5660  -40.4130 C.2   113  ASP113      0.3671
     41  OD1        5.7400   10.9620  -39.5370 O.co2 113  ASP113     -0.2456
     42  OD2        6.0740   12.6820  -40.8890 O.co2 113  ASP113     -0.2456
     43  N          7.7030    8.9060  -37.9450 N.am  114  GLY114     -0.1954
     44  CA         7.8480    8.9900  -36.5180 C.3   114  GLY114      0.1869
     45  C          7.0050   10.0340  -35.8230 C.2   114  GLY114      0.2309
     46  O          7.2800   10.3390  -34.6690 O.2   114  GLY114     -0.2863
     47  N          3.6830    9.5410  -35.2680 N.3   116  PHE116     -0.1241
     48  CA         2.6960    8.7980  -34.4980 C.3   116  PHE116      0.1605
     49  C          1.3070    9.4400  -34.4380 C.2   116  PHE116      0.2264
     50  O          0.7160    9.5580  -33.3790 O.2   116  PHE116     -0.2867
     51  CB         3.2520    8.4110  -33.1140 C.3   116  PHE116      0.0534
     52  CG         4.2530    7.2890  -33.1990 C.ar  116  PHE116     -0.0203
     53  CD1        5.5900    7.5520  -33.4310 C.ar  116  PHE116     -0.0042
     54  CD2        3.8380    5.9720  -33.1160 C.ar  116  PHE116     -0.0042
     55  CE1        6.5090    6.5170  -33.5580 C.ar  116  PHE116     -0.0003
     56  CE2        4.7510    4.9360  -33.2330 C.ar  116  PHE116     -0.0003
     57  CZ         6.0880    5.2150  -33.4620 C.ar  116  PHE116     -0.0000
     58  N         13.5820   -0.9410  -48.5170 N.3   310  ASP310     -0.1225
     59  CA        13.6530   -0.3460  -47.1830 C.3   310  ASP310      0.1805
     60  C         12.8030    0.9240  -47.0590 C.2   310  ASP310      0.2598
     61  O         12.2010    1.1780  -46.0140 O.2   310  ASP310     -0.2718
     62  CB        15.1050   -0.0460  -46.8040 C.3   310  ASP310      0.1424
     63  CG        15.8700   -1.2900  -46.4550 C.2   310  ASP310      0.3668
     64  OD1       15.2570   -2.2790  -45.9820 O.co2 310  ASP310     -0.2456
     65  OD2       17.0920   -1.2910  -46.6440 O.co2 310  ASP310     -0.2456
     66  N         12.7590    1.7270  -48.1150 N.am  311  LYS311     -0.1966
     67  CA        11.9700    2.9510  -48.0860 C.3   311  LYS311      0.1713
     68  C         10.8660    2.8450  -49.0850 C.2   311  LYS311      0.2458
     69  O         11.0070    2.1250  -50.0590 O.2   311  LYS311     -0.2730
     70  CB        12.8460    4.1570  -48.3870 C.3   311  LYS311      0.0311
     71  CG        13.8460    4.3990  -47.2650 C.3   311  LYS311      0.0038
     72  CD        15.1950    4.9080  -47.7640 C.3   311  LYS311      0.0206
     73  CE        16.3150    4.4750  -46.8190 C.3   311  LYS311      0.1093
     74  NZ        17.3650    5.5110  -46.6810 N.3   311  LYS311     -0.1314
     75  N          9.7570    3.5690  -48.8570 N.am  312  PRO312     -0.2727
     76  CA         8.5940    3.4670  -49.7420 C.3   312  PRO312      0.1402
     77  C          8.7580    4.2350  -51.0710 C.2   312  PRO312      0.2269
     78  O          8.0260    5.1810  -51.3670 O.2   312  PRO312     -0.2865
     79  CB         7.4640    4.0300  -48.8840 C.3   312  PRO312      0.0296
     80  CG         8.1270    5.0130  -47.9930 C.3   312  PRO312      0.0237
     81  CD         9.4910    4.4460  -47.7070 C.3   312  PRO312      0.0939
     82  N          7.4970   -2.7030  -47.9220 N.3   319  ILE319     -0.1245
     83  CA         8.6090   -2.2420  -47.0900 C.3   319  ILE319      0.1561
     84  C          8.7880   -3.1090  -45.8350 C.2   319  ILE319      0.2260
     85  O          9.6220   -2.7890  -44.9750 O.2   319  ILE319     -0.2867
     86  CB         8.4950   -0.7480  -46.7030 C.3   319  ILE319      0.0252
     87  CG1        7.2750   -0.4310  -45.8390 C.3   319  ILE319      0.0019
     88  CG2        8.4260    0.1020  -47.9500 C.3   319  ILE319      0.0019
     89  CD1        7.3040    0.9670  -45.2100 C.3   319  ILE319      0.0001
@<TRIPOS>BOND
     1    78    77    2
     2    77    76    1
     3    69    68    2
     4    76    79    1
     5    76    75    1
     6    68    75   am
     7    68    67    1
     8    79    80    1
     9    75    81    1
    10    58    59    1
    11    70    67    1
    12    70    71    1
    13    66    67    1
    14    66    60   am
    15    80    81    1
    16    88    86    1
    17    82    83    1
    18    72    71    1
    19    72    73    1
    20    59    60    1
    21    59    62    1
    22    83    86    1
    23    83    84    1
    24    60    61    2
    25    73    74    1
    26    62    63    1
    27    86    87    1
    28    65    63   ar
    29    63    64   ar
    30    87    89    1
    31    84    85    2
    32    33    32    1
    33    32    34    1
    34    32    31    1
    35    31    28    1
    36    18    17   ar
    37    18    16   ar
    38    17    15   ar
    39    30    29    2
    40    16    14   ar
    41    28    27    1
    42    28    29    1
    43    15    12   ar
    44    29    35   am
    45    14    12   ar
    46    14    13   ar
    47    12    10   ar
    48    39    40    1
    49    39    36    1
    50    42    40   ar
    51    13    11   ar
    52    35    36    1
    53    40    41   ar
    54    10    11   ar
    55    10     9    1
    56    36    37    1
    57    22    21    2
    58     9     6    1
    59    21    20    1
    60    37    38    2
    61    37    43   am
    62     6     5    1
    63     6     7    1
    64     5     3   am
    65    26    24   ar
    66    43    44    1
    67     8     7    2
    68    24    25   ar
    69    24    23    1
    70    20    23    1
    71    20    19    1
    72     3     2    1
    73     3     4    2
    74     2     1    1
    75    44    45    1
    76    45    46    2
    77    47    48    1
    78    48    49    1
    79    48    51    1
    80    49    50    2
    81    55    57   ar
    82    55    53   ar
    83    57    56   ar
    84    53    52   ar
    85    56    54   ar
    86    52    54   ar
    87    52    51    1
