@<TRIPOS>MOLECULE
tmp/5d0cA00.pdb
 145 141 0 0 0
SMALL
GASTEIGER

@<TRIPOS>ATOM
      1  N         12.9510   -0.9630   -4.0280 N.3    41  GLN41      -0.1231
      2  CA        12.4510    0.2030   -4.7700 C.3    41  GLN41       0.1698
      3  C         11.4490    1.1060   -3.9830 C.2    41  GLN41       0.2592
      4  O         11.4190    2.3160   -4.1540 O.2    41  GLN41      -0.2718
      5  CB        11.8220   -0.2230   -6.1210 C.3    41  GLN41       0.0381
      6  CG        10.6170   -1.1580   -5.9840 C.3    41  GLN41       0.0905
      7  CD         9.9970   -1.6230   -7.2860 C.2    41  GLN41       0.2608
      8  OE1        9.9060   -0.8650   -8.2620 O.2    41  GLN41      -0.2717
      9  NE2        9.5300   -2.8780   -7.2950 N.am   41  GLN41      -0.0878
     10  N         10.6660    0.4700   -3.1180 N.am   42  PHE42      -0.1976
     11  CA         9.6540    1.1580   -2.3090 C.3    42  PHE42       0.1639
     12  C         10.1050    1.5930   -0.9230 C.2    42  PHE42       0.2290
     13  O          9.2860    2.0890   -0.1440 O.2    42  PHE42      -0.2864
     14  CB         8.4140    0.2490   -2.1800 C.3    42  PHE42       0.0560
     15  CG         7.6600   -0.0100   -3.4840 C.ar   42  PHE42      -0.0200
     16  CD1        7.8310    0.7840   -4.6150 C.ar   42  PHE42      -0.0042
     17  CD2        6.7220   -1.0490   -3.5350 C.ar   42  PHE42      -0.0042
     18  CE1        7.0950    0.5530   -5.7730 C.ar   42  PHE42      -0.0003
     19  CE2        5.9850   -1.2860   -4.7070 C.ar   42  PHE42      -0.0003
     20  CZ         6.1850   -0.4870   -5.8120 C.ar   42  PHE42      -0.0000
     21  N         12.2780    4.0430    0.2560 N.3    44  TRP44      -0.1228
     22  CA        12.6860    5.3820    0.6220 C.3    44  TRP44       0.1722
     23  C         11.7410    6.1460    1.5500 C.2    44  TRP44       0.2437
     24  O         12.2240    6.8250    2.4660 O.2    44  TRP44      -0.2733
     25  CB        13.1380    6.2210   -0.6070 C.3    44  TRP44       0.0563
     26  CG        12.0850    6.5410   -1.5660 C.ar   44  TRP44       0.0003
     27  CD1       11.7550    5.8410   -2.6930 C.ar   44  TRP44       0.0946
     28  CD2       11.1970    7.6280   -1.4880 C.ar   44  TRP44       0.0152
     29  NE1       10.7010    6.4440   -3.3190 N.ar   44  TRP44      -0.2442
     30  CE2       10.3340    7.5460   -2.6010 C.ar   44  TRP44       0.0810
     31  CE3       11.0290    8.6760   -0.5800 C.ar   44  TRP44       0.0012
     32  CZ2        9.3510    8.4870   -2.8390 C.ar   44  TRP44       0.0191
     33  CZ3       10.0280    9.5820   -0.7950 C.ar   44  TRP44       0.0001
     34  CH2        9.2080    9.4990   -1.9210 C.ar   44  TRP44       0.0015
     35  N         10.4120    6.0140    1.3810 N.am   45  PRO45      -0.2718
     36  CA         9.5670    6.7900    2.3130 C.3    45  PRO45       0.1535
     37  C          9.6520    6.3070    3.7640 C.2    45  PRO45       0.2598
     38  O          9.2100    7.0140    4.6630 O.2    45  PRO45      -0.2715
     39  CB         8.1400    6.5580    1.7770 C.3    45  PRO45       0.0310
     40  CG         8.3290    6.1810    0.3290 C.3    45  PRO45       0.0237
     41  CD         9.5840    5.3330    0.3550 C.3    45  PRO45       0.0939
     42  N         10.1980    5.1230    3.9520 N.am   46  PHE46      -0.1974
     43  CA        10.2820    4.4770    5.2720 C.3    46  PHE46       0.1639
     44  C         11.6770    4.5680    5.8930 C.2    46  PHE46       0.2290
     45  O         11.9220    4.0040    6.9760 O.2    46  PHE46      -0.2864
     46  CB         9.9120    3.0080    5.1230 C.3    46  PHE46       0.0560
     47  CG         8.5470    2.8030    4.5460 C.ar   46  PHE46      -0.0200
     48  CD1        8.3630    2.7600    3.1470 C.ar   46  PHE46      -0.0042
     49  CD2        7.4280    2.7190    5.3590 C.ar   46  PHE46      -0.0042
     50  CE1        7.1150    2.5860    2.5880 C.ar   46  PHE46      -0.0003
     51  CE2        6.1660    2.5650    4.7890 C.ar   46  PHE46      -0.0003
     52  CZ         5.9970    2.5240    3.4150 C.ar   46  PHE46      -0.0000
     53  N          9.1170   10.3270    9.8120 N.3    50  VAL50      -0.1245
     54  CA         8.2050   11.1980    9.1120 C.3    50  VAL50       0.1561
     55  C          8.4040   12.6620    9.5470 C.2    50  VAL50       0.2260
     56  O          8.3450   12.9720   10.7410 O.2    50  VAL50      -0.2867
     57  CB         6.7480   10.8030    9.3880 C.3    50  VAL50       0.0252
     58  CG1        5.7950   11.9140    8.9420 C.3    50  VAL50       0.0019
     59  CG2        6.4170    9.4690    8.7090 C.3    50  VAL50       0.0019
     60  N          6.5000   17.0710    4.7600 N.3    55  LEU55      -0.1245
     61  CA         5.6080   16.2110    3.9930 C.3    55  LEU55       0.1561
     62  C          4.1470   16.6730    3.9700 C.2    55  LEU55       0.2260
     63  O          3.3020   15.9980    3.3660 O.2    55  LEU55      -0.2867
     64  CB         5.6550   14.7520    4.5110 C.3    55  LEU55       0.0270
     65  CG         7.0030   14.0440    4.4250 C.3    55  LEU55       0.0019
     66  CD1        6.8590   12.6520    5.0050 C.3    55  LEU55       0.0001
     67  CD2        7.4750   13.9750    2.9770 C.3    55  LEU55       0.0001
     68  N          1.8380   16.6670    6.3460 N.3    57  LEU57      -0.1245
     69  CA         1.0080   15.7120    7.0780 C.3    57  LEU57       0.1561
     70  C          0.8230   16.2710    8.4850 C.2    57  LEU57       0.2260
     71  O          1.3410   15.7410    9.4710 O.2    57  LEU57      -0.2867
     72  CB         1.7070   14.3520    7.1210 C.3    57  LEU57       0.0270
     73  CG         2.0870   13.7250    5.7860 C.3    57  LEU57       0.0019
     74  CD1        2.8300   12.4080    6.0500 C.3    57  LEU57       0.0001
     75  CD2        0.8560   13.5150    4.9070 C.3    57  LEU57       0.0001
     76  N         -0.0390   14.0720   11.5650 N.3    60  TYR60      -0.1241
     77  CA         0.6070   12.7570   11.6250 C.3    60  TYR60       0.1605
     78  C          0.8600   12.3100   13.0630 C.2    60  TYR60       0.2264
     79  O          0.5140   11.1700   13.4490 O.2    60  TYR60      -0.2867
     80  CB         1.8950   12.7220   10.8200 C.3    60  TYR60       0.0534
     81  CG         2.4600   11.3420   10.7600 C.ar   60  TYR60      -0.0201
     82  CD1        2.0230   10.4250    9.8050 C.ar   60  TYR60      -0.0009
     83  CD2        3.3970   10.9220   11.6680 C.ar   60  TYR60      -0.0009
     84  CE1        2.5200    9.1200    9.7530 C.ar   60  TYR60       0.0417
     85  CE2        3.9010    9.6310   11.6370 C.ar   60  TYR60       0.0417
     86  CZ         3.4580    8.7250   10.6780 C.ar   60  TYR60       0.1957
     87  OH         3.9330    7.4230   10.6490 O.3    60  TYR60      -0.2866
     88  N          6.3130    0.0530   12.3630 N.3    95  MET95      -0.1245
     89  CA         6.4880    0.8970   11.1750 C.3    95  MET95       0.1570
     90  C          5.4090    0.6150   10.1160 C.2    95  MET95       0.2261
     91  O          4.7830    1.5250    9.5890 O.2    95  MET95      -0.2867
     92  CB         7.8760    0.6640   10.5950 C.3    95  MET95       0.0387
     93  CG         8.1380    1.4480    9.3150 C.3    95  MET95       0.0595
     94  SD         9.7700    1.1370    8.6600 S.3    95  MET95      -0.1393
     95  CE         9.5740   -0.5030    8.0190 C.3    95  MET95       0.0692
     96  N          1.7530    2.9940    9.0640 N.3    99  CYS99      -0.1235
     97  CA         1.3990    3.3950    7.7260 C.3    99  CYS99       0.1677
     98  C         -0.0750    3.0250    7.4330 C.2    99  CYS99       0.2270
     99  O         -0.8150    3.8360    6.9010 O.2    99  CYS99      -0.2867
    100  CB         2.3750    2.7720    6.7120 C.3    99  CYS99       0.0956
    101  SG         2.1200    3.2980    5.0130 S.3    99  CYS99      -0.0801
    102  N         -2.4320    5.4490    9.5670 N.3   102  TYR102     -0.1227
    103  CA        -2.5490    6.8560    9.1890 C.3   102  TYR102      0.1736
    104  C         -3.2370    7.0340    7.8480 C.2   102  TYR102      0.2595
    105  O         -3.9950    7.9810    7.6220 O.2   102  TYR102     -0.2718
    106  CB        -1.1440    7.5210    9.1900 C.3   102  TYR102      0.0548
    107  CG        -1.2230    8.9850    8.8180 C.ar  102  TYR102     -0.0200
    108  CD1       -1.7590    9.9160    9.6990 C.ar  102  TYR102     -0.0009
    109  CD2       -0.8310    9.4170    7.5610 C.ar  102  TYR102     -0.0009
    110  CE1       -1.8890   11.2420    9.3300 C.ar  102  TYR102      0.0417
    111  CE2       -0.9720   10.7370    7.1860 C.ar  102  TYR102      0.0417
    112  CZ        -1.4850   11.6360    8.0780 C.ar  102  TYR102      0.1957
    113  OH        -1.6420   12.9680    7.7200 O.3   102  TYR102     -0.2866
    114  N         -2.9140    6.1460    6.9260 N.am  103  ASN103     -0.1974
    115  CA        -3.3550    6.2320    5.5390 C.3   103  ASN103      0.1688
    116  C         -4.5980    5.4080    5.2630 C.2   103  ASN103      0.2292
    117  O         -5.1260    4.7320    6.1370 O.2   103  ASN103     -0.2864
    118  CB        -2.1760    5.8560    4.6440 C.3   103  ASN103      0.1181
    119  CG        -0.9880    6.7590    4.8850 C.2   103  ASN103      0.2629
    120  OD1       -1.0310    7.9220    4.5060 O.2   103  ASN103     -0.2716
    121  ND2        0.0270    6.2540    5.5670 N.am  103  ASN103     -0.0877
    122  N         -1.3340    4.7270   -2.3250 N.3   108  ASP108     -0.1225
    123  CA        -0.0710    4.2520   -2.8670 C.3   108  ASP108      0.1805
    124  C          0.9340    3.8740   -1.7890 C.2   108  ASP108      0.2597
    125  O          1.5850    2.8250   -1.8740 O.2   108  ASP108     -0.2718
    126  CB         0.5380    5.3140   -3.7640 C.3   108  ASP108      0.1424
    127  CG        -0.1860    5.4780   -5.0910 C.2   108  ASP108      0.3668
    128  OD1       -1.0010    4.6090   -5.4810 O.co2 108  ASP108     -0.2456
    129  OD2        0.0790    6.5230   -5.7160 O.co2 108  ASP108     -0.2456
    130  N          1.0320    4.7270   -0.7730 N.am  109  ILE109     -0.1980
    131  CA         1.9950    4.4650    0.3200 C.3   109  ILE109      0.1595
    132  C          1.6750    3.1540    1.0530 C.2   109  ILE109      0.2287
    133  O          2.5820    2.4650    1.5340 O.2   109  ILE109     -0.2864
    134  CB         2.1070    5.6640    1.2870 C.3   109  ILE109      0.0276
    135  CG1        3.3490    5.5450    2.2220 C.3   109  ILE109      0.0022
    136  CG2        0.8210    5.8190    2.0870 C.3   109  ILE109      0.0022
    137  CD1        4.6470    5.8120    1.5210 C.3   109  ILE109      0.0001
    138  N          2.9450    0.2870   -1.0400 N.3   112  MET112     -0.1245
    139  CA         4.3960    0.2070   -0.8280 C.3   112  MET112      0.1570
    140  C          4.7440   -0.5000    0.4780 C.2   112  MET112      0.2261
    141  O          5.5500   -1.4330    0.4970 O.2   112  MET112     -0.2867
    142  CB         4.9940    1.6090   -0.8820 C.3   112  MET112      0.0387
    143  CG         4.8800    2.2760   -2.2570 C.3   112  MET112      0.0595
    144  SD         5.3590    4.0130   -2.2230 S.3   112  MET112     -0.1393
    145  CE         7.1350    3.9130   -2.2960 C.3   112  MET112      0.0692
@<TRIPOS>BOND
     1     8     7    2
     2     9     7   am
     3     7     6    1
     4     5     6    1
     5     5     2    1
     6    20    18   ar
     7    20    19   ar
     8    18    16   ar
     9   129   127   ar
    10   128   127   ar
    11   127   126    1
    12     2     1    1
    13     2     3    1
    14    19    17   ar
    15    16    15   ar
    16     4     3    2
    17     3    10   am
    18   126   123    1
    19    17    15   ar
    20    15    14    1
    21    29    27   ar
    22    29    30   ar
    23    10    11    1
    24   123   122    1
    25   123   124    1
    26    32    30   ar
    27    32    34   ar
    28    27    26   ar
    29    30    28   ar
    30    11    14    1
    31    11    12    1
    32   145   144    1
    33   143   144    1
    34   143   142    1
    35    34    33   ar
    36   125   124    2
    37   124   130   am
    38    26    28   ar
    39    26    25    1
    40    28    31   ar
    41   138   139    1
    42    12    13    2
    43   142   139    1
    44   139   140    1
    45    33    31   ar
    46   130   131    1
    47    25    22    1
    48    21    22    1
    49   131   132    1
    50   131   134    1
    51    40    41    1
    52    40    39    1
    53    41    35    1
    54   140   141    2
    55    22    23    1
    56   132   133    2
    57   134   136    1
    58   134   135    1
    59    35    23   am
    60    35    36    1
    61   137   135    1
    62    23    24    2
    63    39    36    1
    64    36    37    1
    65    50    48   ar
    66    50    52   ar
    67    67    65    1
    68    48    47   ar
    69    63    62    2
    70    52    51   ar
    71    37    42   am
    72    37    38    2
    73    42    43    1
    74    62    61    1
    75    61    64    1
    76    61    60    1
    77    65    64    1
    78    65    66    1
    79   120   119    2
    80    47    46    1
    81    47    49   ar
    82   118   119    1
    83   118   115    1
    84    51    49   ar
    85   119   121   am
    86    75    73    1
    87   101   100    1
    88    46    43    1
    89   116   115    1
    90   116   117    2
    91    43    44    1
    92   115   114    1
    93    73    74    1
    94    73    72    1
    95    44    45    2
    96    68    69    1
    97   100    97    1
    98    99    98    2
    99   114   104   am
   100    69    72    1
   101    69    70    1
   102   111   109   ar
   103   111   112   ar
   104    98    97    1
   105   109   107   ar
   106   105   104    2
   107   113   112    1
   108    97    96    1
   109   104   103    1
   110    95    94    1
   111   112   110   ar
   112    70    71    2
   113    94    93    1
   114    59    57    1
   115   107   106    1
   116   107   108   ar
   117    58    57    1
   118    54    57    1
   119    54    55    1
   120    54    53    1
   121   103   106    1
   122   103   102    1
   123    93    92    1
   124   110   108   ar
   125    55    56    2
   126    91    90    2
   127    84    82   ar
   128    84    86   ar
   129    82    81   ar
   130    90    89    1
   131    92    89    1
   132    87    86    1
   133    86    85   ar
   134    81    80    1
   135    81    83   ar
   136    80    77    1
   137    89    88    1
   138    76    77    1
   139    77    78    1
   140    85    83   ar
   141    78    79    2
