@<TRIPOS>MOLECULE
tmp/5d0hA01.pdb
 91 87 0 0 0
SMALL
GASTEIGER

@<TRIPOS>ATOM
      1  N        -59.5150   40.5310  -43.8630 N.3    10  PHE10      -0.1227
      2  CA       -59.3630   39.5390  -42.8040 C.3    10  PHE10       0.1736
      3  C        -60.4750   38.5070  -42.8750 C.2    10  PHE10       0.2596
      4  O        -61.6470   38.8660  -42.9850 O.2    10  PHE10      -0.2718
      5  CB       -59.3770   40.2040  -41.4270 C.3    10  PHE10       0.0547
      6  CG       -58.0120   40.4610  -40.8600 C.ar   10  PHE10      -0.0202
      7  CD1      -57.2760   39.4310  -40.2980 C.ar   10  PHE10      -0.0042
      8  CD2      -57.4700   41.7350  -40.8760 C.ar   10  PHE10      -0.0042
      9  CE1      -56.0230   39.6650  -39.7700 C.ar   10  PHE10      -0.0003
     10  CE2      -56.2180   41.9770  -40.3480 C.ar   10  PHE10      -0.0003
     11  CZ       -55.4930   40.9410  -39.7930 C.ar   10  PHE10      -0.0000
     12  N        -60.1050   37.2290  -42.8130 N.am   11  THR11      -0.1939
     13  CA       -61.0790   36.1550  -42.6490 C.3    11  THR11       0.2028
     14  C        -61.0020   35.6230  -41.2230 C.2    11  THR11       0.2642
     15  O        -59.9770   35.7670  -40.5540 O.2    11  THR11      -0.2714
     16  CB       -60.8530   34.9970  -43.6390 C.3    11  THR11       0.1808
     17  OG1      -59.5720   34.4020  -43.4040 O.3    11  THR11      -0.2208
     18  CG2      -60.9360   35.4950  -45.0720 C.3    11  THR11       0.0379
     19  N        -62.0910   35.0130  -40.7660 N.am   12  ASP12      -0.1971
     20  CA       -62.1780   34.5240  -39.3960 C.3    12  ASP12       0.1709
     21  C        -63.2790   33.4730  -39.2720 C.2    12  ASP12       0.2293
     22  O        -64.4630   33.8040  -39.2630 O.2    12  ASP12      -0.2864
     23  CB       -62.4400   35.6880  -38.4370 C.3    12  ASP12       0.1436
     24  CG       -62.5190   35.2490  -36.9920 C.2    12  ASP12       0.3671
     25  OD1      -61.8910   34.2300  -36.6500 O.co2  12  ASP12      -0.2456
     26  OD2      -63.2050   35.9240  -36.1970 O.co2  12  ASP12      -0.2456
     27  N        -53.1100   33.0190  -40.0950 N.3    54  GLN54      -0.1245
     28  CA       -53.4170   32.7330  -38.6980 C.3    54  GLN54       0.1566
     29  C        -54.0500   31.3530  -38.5490 C.2    54  GLN54       0.2260
     30  O        -54.4410   30.7250  -39.5350 O.2    54  GLN54      -0.2867
     31  CB       -54.3500   33.8020  -38.1230 C.3    54  GLN54       0.0367
     32  CG       -53.5950   35.1470  -38.1150 C.3    54  GLN54       0.0905
     33  CD       -54.5290   36.3320  -38.2670 C.2    54  GLN54       0.2608
     34  OE1      -55.7140   36.2810  -38.4840 O.2    54  GLN54      -0.2717
     35  NE2      -53.9130   37.5260  -38.1850 N.am   54  GLN54      -0.0878
     36  N        -56.8970   30.5030  -37.4120 N.3    56  ASP56      -0.1239
     37  CA       -58.3230   30.4510  -37.7420 C.3    56  ASP56       0.1674
     38  C        -58.6330   31.1140  -39.0830 C.2    56  ASP56       0.2266
     39  O        -59.5760   30.7160  -39.7680 O.2    56  ASP56      -0.2867
     40  CB       -59.1420   31.1160  -36.6360 C.3    56  ASP56       0.1410
     41  CG       -58.7170   32.5430  -36.3830 C.2    56  ASP56       0.3668
     42  OD1      -57.5990   32.9070  -36.8030 O.co2  56  ASP56      -0.2456
     43  OD2      -59.4940   33.2960  -35.7650 O.co2  56  ASP56      -0.2456
     44  N        -54.3420   47.9720  -39.7010 N.3   107  VAL107     -0.1231
     45  CA       -54.3370   46.5140  -39.6850 C.3   107  VAL107      0.1692
     46  C        -55.2480   46.0380  -38.5580 C.2   107  VAL107      0.2591
     47  O        -56.0130   45.0860  -38.7220 O.2   107  VAL107     -0.2718
     48  CB       -52.9180   45.9340  -39.4930 C.3   107  VAL107      0.0266
     49  CG1      -52.9530   44.4090  -39.5170 C.3   107  VAL107      0.0020
     50  CG2      -51.9780   46.4530  -40.5680 C.3   107  VAL107      0.0020
     51  N        -55.1600   46.7110  -37.4130 N.am  108  ALA108     -0.1980
     52  CA       -56.0080   46.3920  -36.2710 C.3   108  ALA108      0.1597
     53  C        -57.4680   46.6760  -36.6020 C.2   108  ALA108      0.2287
     54  O        -58.3550   45.8980  -36.2550 O.2   108  ALA108     -0.2864
     55  CB       -55.5770   47.1840  -35.0460 C.3   108  ALA108      0.0319
     56  N        -59.0500   43.8600  -38.8740 N.3   111  TYR111     -0.1227
     57  CA       -59.5210   42.6800  -38.1600 C.3   111  TYR111      0.1736
     58  C        -60.7340   43.0130  -37.3010 C.2   111  TYR111      0.2595
     59  O        -61.6630   42.2130  -37.1920 O.2   111  TYR111     -0.2718
     60  CB       -58.4370   42.0790  -37.2700 C.3   111  TYR111      0.0548
     61  CG       -59.0310   41.0880  -36.2980 C.ar  111  TYR111     -0.0200
     62  CD1      -59.4390   39.8320  -36.7260 C.ar  111  TYR111     -0.0009
     63  CD2      -59.2320   41.4250  -34.9680 C.ar  111  TYR111     -0.0009
     64  CE1      -60.0050   38.9290  -35.8510 C.ar  111  TYR111      0.0417
     65  CE2      -59.7990   40.5300  -34.0850 C.ar  111  TYR111      0.0417
     66  CZ       -60.1860   39.2850  -34.5320 C.ar  111  TYR111      0.1957
     67  OH       -60.7490   38.3860  -33.6550 O.3   111  TYR111     -0.2866
     68  N        -60.7090   44.1890  -36.6810 N.am  112  ARG112     -0.1980
     69  CA       -61.8110   44.6250  -35.8330 C.3   112  ARG112      0.1597
     70  C        -63.1120   44.5670  -36.6180 C.2   112  ARG112      0.2287
     71  O        -64.1030   44.0280  -36.1390 O.2   112  ARG112     -0.2864
     72  CB       -61.5700   46.0410  -35.3040 C.3   112  ARG112      0.0334
     73  CG       -61.8460   46.2140  -33.8180 C.3   112  ARG112      0.0492
     74  CD       -60.9140   45.3590  -32.9720 C.3   112  ARG112      0.2205
     75  NE       -61.5690   44.1480  -32.4860 N.pl3 112  ARG112     -0.0865
     76  CZ       -60.9450   43.1540  -31.8610 C.cat 112  ARG112      0.5346
     77  NH1      -59.6360   43.2140  -31.6470 N.pl3 112  ARG112      0.1354
     78  NH2      -61.6310   42.0960  -31.4540 N.pl3 112  ARG112      0.1354
     79  N        -63.1050   48.1610  -30.2340 N.3   149  LYS149     -0.1231
     80  CA       -62.1090   48.1400  -29.1670 C.3   149  LYS149      0.1693
     81  C        -60.7940   48.7790  -29.6070 C.2   149  LYS149      0.2592
     82  O        -60.2460   48.4360  -30.6540 O.2   149  LYS149     -0.2718
     83  CB       -61.8620   46.7010  -28.7070 C.3   149  LYS149      0.0285
     84  CG       -60.8650   46.5700  -27.5600 C.3   149  LYS149      0.0035
     85  CD       -60.7520   45.1330  -27.0700 C.3   149  LYS149      0.0206
     86  CE       -60.1910   44.2110  -28.1440 C.3   149  LYS149      0.1093
     87  NZ       -59.9800   42.8240  -27.6400 N.3   149  LYS149     -0.1314
     88  N        -60.3010   49.7170  -28.8010 N.am  150  GLY150     -0.1957
     89  CA       -59.0370   50.3780  -29.0700 C.3   150  GLY150      0.1869
     90  C        -59.1870   51.7070  -29.7870 C.2   150  GLY150      0.2309
     91  O        -58.2670   52.5240  -29.7800 O.2   150  GLY150     -0.2863
@<TRIPOS>BOND
     1    18    16    1
     2     1     2    1
     3    16    17    1
     4    16    13    1
     5     4     3    2
     6     3    12   am
     7     3     2    1
     8    12    13    1
     9     2     5    1
    10    13    14    1
    11     5     6    1
    12    14    19   am
    13    14    15    2
    14     8     6   ar
    15     8    10   ar
    16     6     7   ar
    17    19    20    1
    18    50    48    1
    19    10    11   ar
    20     7     9   ar
    21    27    28    1
    22    11     9   ar
    23    39    38    2
    24    44    45    1
    25    45    48    1
    26    45    46    1
    27    30    29    2
    28    49    48    1
    29    20    21    1
    30    20    23    1
    31    21    22    2
    32    38    37    1
    33    56    57    1
    34    47    46    2
    35    28    29    1
    36    28    31    1
    37    46    51   am
    38    34    33    2
    39    23    24    1
    40    33    35   am
    41    33    32    1
    42    57    58    1
    43    57    60    1
    44    31    32    1
    45    37    36    1
    46    37    40    1
    47    51    52    1
    48    58    59    2
    49    58    68   am
    50    60    61    1
    51    24    25   ar
    52    24    26   ar
    53    42    41   ar
    54    62    61   ar
    55    62    64   ar
    56    68    69    1
    57    40    41    1
    58    70    71    2
    59    70    69    1
    60    53    52    1
    61    53    54    2
    62    41    43   ar
    63    61    63   ar
    64    52    55    1
    65    64    66   ar
    66    69    72    1
    67    72    73    1
    68    63    65   ar
    69    66    65   ar
    70    66    67    1
    71    73    74    1
    72    74    75    1
    73    75    76    2
    74    76    77    1
    75    76    78    1
    76    82    81    2
    77    79    80    1
    78    90    91    2
    79    90    89    1
    80    81    80    1
    81    81    88   am
    82    80    83    1
    83    89    88    1
    84    83    84    1
    85    86    87    1
    86    86    85    1
    87    84    85    1
