@<TRIPOS>MOLECULE
tmp/5d0hA00.pdb
 87 83 0 0 0
SMALL
GASTEIGER

@<TRIPOS>ATOM
      1  N        -62.0910   35.0130  -40.7660 N.3    12  ASP12      -0.1225
      2  CA       -62.1780   34.5240  -39.3960 C.3    12  ASP12       0.1805
      3  C        -63.2790   33.4730  -39.2720 C.2    12  ASP12       0.2597
      4  O        -64.4630   33.8040  -39.2630 O.2    12  ASP12      -0.2718
      5  CB       -62.4400   35.6880  -38.4370 C.3    12  ASP12       0.1424
      6  CG       -62.5190   35.2490  -36.9920 C.2    12  ASP12       0.3668
      7  OD1      -61.8910   34.2300  -36.6500 O.co2  12  ASP12      -0.2456
      8  OD2      -63.2050   35.9240  -36.1970 O.co2  12  ASP12      -0.2456
      9  N        -62.8790   32.2070  -39.1810 N.am   13  ILE13      -0.1980
     10  CA       -63.8240   31.0980  -39.0600 C.3    13  ILE13       0.1595
     11  C        -64.6280   31.1980  -37.7680 C.2    13  ILE13       0.2287
     12  O        -64.0690   31.3110  -36.6760 O.2    13  ILE13      -0.2864
     13  CB       -63.1010   29.7280  -39.1070 C.3    13  ILE13       0.0276
     14  CG1      -62.4320   29.5320  -40.4700 C.3    13  ILE13       0.0022
     15  CG2      -64.0800   28.5770  -38.8400 C.3    13  ILE13       0.0022
     16  CD1      -61.5200   28.3220  -40.5460 C.3    13  ILE13       0.0001
     17  N        -66.4970   30.1090  -34.6440 N.3    15  GLU15      -0.1231
     18  CA       -66.5130   29.0030  -33.6890 C.3    15  GLU15       0.1699
     19  C        -65.6550   27.8260  -34.1510 C.2    15  GLU15       0.2593
     20  O        -66.1360   26.6970  -34.2530 O.2    15  GLU15      -0.2718
     21  CB       -67.9550   28.5470  -33.4520 C.3    15  GLU15       0.0402
     22  CG       -68.8570   29.6530  -32.9110 C.3    15  GLU15       0.1161
     23  CD       -70.3330   29.3030  -32.9810 C.2    15  GLU15       0.3649
     24  OE1      -71.1670   30.2240  -32.8480 O.co2  15  GLU15      -0.2457
     25  OE2      -70.6600   28.1130  -33.1690 O.co2  15  GLU15      -0.2457
     26  N        -64.3820   28.0960  -34.4250 N.am   16  SER16      -0.1938
     27  CA       -63.4770   27.0680  -34.9300 C.3    16  SER16       0.2055
     28  C        -63.0520   26.1070  -33.8260 C.2    16  SER16       0.2644
     29  O        -62.8860   24.9120  -34.0670 O.2    16  SER16      -0.2714
     30  CB       -62.2410   27.7080  -35.5670 C.3    16  SER16       0.2130
     31  OG       -61.4820   28.4280  -34.6110 O.3    16  SER16      -0.2179
     32  N        -62.8710   26.6300  -32.6180 N.am   17  THR17      -0.1936
     33  CA       -62.4610   25.8060  -31.4860 C.3    17  THR17       0.2028
     34  C        -63.5040   24.7250  -31.2130 C.2    17  THR17       0.2642
     35  O        -63.1680   23.5480  -31.0850 O.2    17  THR17      -0.2714
     36  CB       -62.2480   26.6500  -30.2130 C.3    17  THR17       0.1808
     37  OG1      -61.2860   27.6800  -30.4750 O.3    17  THR17      -0.2208
     38  CG2      -61.7510   25.7780  -29.0620 C.3    17  THR17       0.0379
     39  N        -64.7670   25.1340  -31.1340 N.am   18  ALA18      -0.1977
     40  CA       -65.8650   24.2020  -30.9050 C.3    18  ALA18       0.1597
     41  C        -65.9290   23.1540  -32.0140 C.2    18  ALA18       0.2287
     42  O        -66.1700   21.9750  -31.7540 O.2    18  ALA18      -0.2864
     43  CB       -67.1840   24.9520  -30.8120 C.3    18  ALA18       0.0319
     44  N        -53.1100   33.0190  -40.0950 N.3    54  GLN54      -0.1231
     45  CA       -53.4170   32.7330  -38.6980 C.3    54  GLN54       0.1698
     46  C        -54.0500   31.3530  -38.5490 C.2    54  GLN54       0.2593
     47  O        -54.4410   30.7250  -39.5350 O.2    54  GLN54      -0.2718
     48  CB       -54.3500   33.8020  -38.1230 C.3    54  GLN54       0.0381
     49  CG       -53.5950   35.1470  -38.1150 C.3    54  GLN54       0.0905
     50  CD       -54.5290   36.3320  -38.2670 C.2    54  GLN54       0.2608
     51  OE1      -55.7140   36.2810  -38.4840 O.2    54  GLN54      -0.2717
     52  NE2      -53.9130   37.5260  -38.1850 N.am   54  GLN54      -0.0878
     53  N        -54.1500   30.8900  -37.3090 N.am   55  GLY55      -0.1942
     54  CA       -54.6850   29.5710  -37.0280 C.3    55  GLY55       0.2014
     55  C        -56.1280   29.4170  -37.4610 C.2    55  GLY55       0.2638
     56  O        -56.5490   28.3260  -37.8470 O.2    55  GLY55      -0.2714
     57  N        -56.8970   30.5030  -37.4120 N.am   56  ASP56      -0.1971
     58  CA       -58.3230   30.4510  -37.7420 C.3    56  ASP56       0.1709
     59  C        -58.6330   31.1140  -39.0830 C.2    56  ASP56       0.2293
     60  O        -59.5760   30.7160  -39.7680 O.2    56  ASP56      -0.2864
     61  CB       -59.1420   31.1160  -36.6360 C.3    56  ASP56       0.1436
     62  CG       -58.7170   32.5430  -36.3830 C.2    56  ASP56       0.3671
     63  OD1      -57.5990   32.9070  -36.8030 O.co2  56  ASP56      -0.2456
     64  OD2      -59.4940   33.2960  -35.7650 O.co2  56  ASP56      -0.2456
     65  N        -66.2740   34.7950  -41.1890 N.3    87  ARG87      -0.1245
     66  CA       -66.4430   36.2420  -41.1600 C.3    87  ARG87       0.1563
     67  C        -65.4350   36.8800  -42.1080 C.2    87  ARG87       0.2260
     68  O        -64.3030   36.4130  -42.2060 O.2    87  ARG87      -0.2867
     69  CB       -66.2330   36.7980  -39.7520 C.3    87  ARG87       0.0307
     70  CG       -67.0030   36.0990  -38.6500 C.3    87  ARG87       0.0489
     71  CD       -66.6500   36.7100  -37.3020 C.3    87  ARG87       0.2205
     72  NE       -67.3990   36.1090  -36.2000 N.pl3  87  ARG87      -0.0865
     73  CZ       -66.9880   35.0620  -35.4900 C.cat  87  ARG87       0.5346
     74  NH1      -65.8270   34.4750  -35.7560 N.pl3  87  ARG87       0.1354
     75  NH2      -67.7450   34.5980  -34.5070 N.pl3  87  ARG87       0.1354
     76  N        -59.0500   43.8600  -38.8740 N.3   111  TYR111     -0.1241
     77  CA       -59.5210   42.6800  -38.1600 C.3   111  TYR111      0.1605
     78  C        -60.7340   43.0130  -37.3010 C.2   111  TYR111      0.2264
     79  O        -61.6630   42.2130  -37.1920 O.2   111  TYR111     -0.2867
     80  CB       -58.4370   42.0790  -37.2700 C.3   111  TYR111      0.0534
     81  CG       -59.0310   41.0880  -36.2980 C.ar  111  TYR111     -0.0201
     82  CD1      -59.4390   39.8320  -36.7260 C.ar  111  TYR111     -0.0009
     83  CD2      -59.2320   41.4250  -34.9680 C.ar  111  TYR111     -0.0009
     84  CE1      -60.0050   38.9290  -35.8510 C.ar  111  TYR111      0.0417
     85  CE2      -59.7990   40.5300  -34.0850 C.ar  111  TYR111      0.0417
     86  CZ       -60.1860   39.2850  -34.5320 C.ar  111  TYR111      0.1957
     87  OH       -60.7490   38.3860  -33.6550 O.3   111  TYR111     -0.2866
@<TRIPOS>BOND
     1    68    67    2
     2    67    66    1
     3    65    66    1
     4    66    69    1
     5     1     2    1
     6    16    14    1
     7    14    13    1
     8    44    45    1
     9    60    59    2
    10    69    70    1
    11    47    46    2
    12     2     3    1
    13     2     5    1
    14     3     4    2
    15     3     9   am
    16     9    10    1
    17    13    10    1
    18    13    15    1
    19    59    58    1
    20    10    11    1
    21    76    77    1
    22    45    46    1
    23    45    48    1
    24    70    71    1
    25    46    53   am
    26    51    50    2
    27     5     6    1
    28    50    52   am
    29    50    49    1
    30    77    78    1
    31    77    80    1
    32    48    49    1
    33    56    55    2
    34    11    12    2
    35    58    57    1
    36    58    61    1
    37    55    57   am
    38    55    54    1
    39    53    54    1
    40    71    72    1
    41    78    79    2
    42    80    81    1
    43     6     7   ar
    44     6     8   ar
    45    63    62   ar
    46    82    81   ar
    47    82    84   ar
    48    61    62    1
    49    62    64   ar
    50    81    83   ar
    51    72    73    2
    52    84    86   ar
    53    74    73    1
    54    30    27    1
    55    30    31    1
    56    73    75    1
    57    83    85   ar
    58    27    26    1
    59    27    28    1
    60    17    18    1
    61    86    85   ar
    62    86    87    1
    63    26    19   am
    64    20    19    2
    65    19    18    1
    66    29    28    2
    67    28    32   am
    68    18    21    1
    69    21    22    1
    70    25    23   ar
    71    23    22    1
    72    23    24   ar
    73    32    33    1
    74    41    42    2
    75    41    40    1
    76    33    34    1
    77    33    36    1
    78    34    39   am
    79    34    35    2
    80    39    40    1
    81    40    43    1
    82    37    36    1
    83    36    38    1
