@<TRIPOS>MOLECULE
tmp/5d0nA00.pdb
 137 133 0 0 0
SMALL
GASTEIGER

@<TRIPOS>ATOM
      1  N         49.9010    1.5390  100.1730 N.3    14  SER14      -0.1202
      2  CA        49.8050    2.8500   99.5680 C.3    14  SER14       0.2020
      3  C         49.4520    3.9030  100.5830 C.2    14  SER14       0.2619
      4  O         48.7200    3.6470  101.5300 O.2    14  SER14      -0.2717
      5  CB        48.7660    2.8320   98.4450 C.3    14  SER14       0.2103
      6  OG        48.7000    4.0840   97.7920 O.3    14  SER14      -0.2182
      7  N         49.9810    5.0970  100.3670 N.am   15  ASP15      -0.1959
      8  CA        49.5500    6.2680  101.1250 C.3    15  ASP15       0.1840
      9  C         48.1280    6.7000  100.7840 C.2    15  ASP15       0.2623
     10  O         47.5360    7.4620  101.5400 O.2    15  ASP15      -0.2715
     11  CB        50.5110    7.4510  100.9390 C.3    15  ASP15       0.1450
     12  CG        50.8580    7.7190   99.4880 C.2    15  ASP15       0.3671
     13  OD1       50.1740    7.1940   98.5840 O.co2  15  ASP15      -0.2456
     14  OD2       51.8390    8.4570   99.2600 O.co2  15  ASP15      -0.2456
     15  N         47.6020    6.2420   99.6440 N.am   16  GLY16      -0.1940
     16  CA        46.1900    6.4370   99.2740 C.3    16  GLY16       0.2014
     17  C         45.3180    5.1880   99.4210 C.2    16  GLY16       0.2640
     18  O         45.2330    4.6080  100.4990 O.2    16  GLY16      -0.2714
     19  N         44.6800    4.7790   98.3280 N.am   17  THR17      -0.1936
     20  CA        43.6280    3.7450   98.3380 C.3    17  THR17       0.2028
     21  C         44.1180    2.2910   98.2430 C.2    17  THR17       0.2643
     22  O         43.4470    1.3620   98.7320 O.2    17  THR17      -0.2714
     23  CB        42.6160    3.9870   97.1880 C.3    17  THR17       0.1808
     24  OG1       43.2330    3.7370   95.9180 O.3    17  THR17      -0.2208
     25  CG2       42.0810    5.4170   97.2210 C.3    17  THR17       0.0379
     26  N         45.2700    2.1140   97.5980 N.am   18  GLY18      -0.1939
     27  CA        45.8110    0.8060   97.2800 C.3    18  GLY18       0.2014
     28  C         45.3780    0.2280   95.9460 C.2    18  GLY18       0.2639
     29  O         45.7970   -0.8720   95.6070 O.2    18  GLY18      -0.2714
     30  N         44.5690    0.9470   95.1680 N.am   19  TRP19      -0.1959
     31  CA        43.9090    0.3260   93.9910 C.3    19  TRP19       0.1771
     32  C         44.8350    0.1790   92.7710 C.2    19  TRP19       0.2620
     33  O         44.8600   -0.8840   92.1330 O.2    19  TRP19      -0.2715
     34  CB        42.5990    1.0550   93.6090 C.3    19  TRP19       0.0590
     35  CG        41.5110    1.0680   94.7020 C.ar   19  TRP19       0.0006
     36  CD1       40.7880    2.1500   95.1110 C.ar   19  TRP19       0.0946
     37  CD2       41.0370   -0.0450   95.4950 C.ar   19  TRP19       0.0152
     38  NE1       39.8970    1.7940   96.1000 N.ar   19  TRP19      -0.2442
     39  CE2       40.0280    0.4560   96.3550 C.ar   19  TRP19       0.0810
     40  CE3       41.3620   -1.4140   95.5590 C.ar   19  TRP19       0.0012
     41  CZ2       39.3460   -0.3570   97.2670 C.ar   19  TRP19       0.0191
     42  CZ3       40.6780   -2.2260   96.4690 C.ar   19  TRP19       0.0001
     43  CH2       39.6830   -1.6900   97.3100 C.ar   19  TRP19       0.0015
     44  N         45.5890    1.2450   92.4740 N.am   20  THR20      -0.1937
     45  CA        46.5670    1.2660   91.3710 C.3    20  THR20       0.2028
     46  C         47.5060    0.0840   91.4450 C.2    20  THR20       0.2642
     47  O         47.7430   -0.6080   90.4580 O.2    20  THR20      -0.2714
     48  CB        47.4240    2.5430   91.4110 C.3    20  THR20       0.1808
     49  OG1       46.5980    3.6590   91.7390 O.3    20  THR20      -0.2208
     50  CG2       48.0660    2.7990   90.0750 C.3    20  THR20       0.0379
     51  N         48.0140   -0.1360   92.6460 N.am   21  ALA21      -0.1977
     52  CA        48.8800   -1.2530   92.9470 C.3    21  ALA21       0.1597
     53  C         48.1580   -2.5870   92.7920 C.2    21  ALA21       0.2287
     54  O         48.6640   -3.4970   92.1240 O.2    21  ALA21      -0.2864
     55  CB        49.4210   -1.1050   94.3570 C.3    21  ALA21       0.0319
     56  N         53.2770    2.1570   96.8070 N.3    74  THR74      -0.1203
     57  CA        53.1270    3.4290   96.0920 C.3    74  THR74       0.1994
     58  C         53.1030    4.5590   97.1080 C.2    74  THR74       0.2618
     59  O         52.1980    4.6260   97.9450 O.2    74  THR74      -0.2717
     60  CB        51.8370    3.4930   95.2140 C.3    74  THR74       0.1784
     61  OG1       50.6960    3.8790   95.9950 O.3    74  THR74      -0.2211
     62  CG2       51.5410    2.1630   94.5310 C.3    74  THR74       0.0376
     63  N         54.0970    5.4380   97.0530 N.am   75  LEU75      -0.1965
     64  CA        54.2420    6.4780   98.0680 C.3    75  LEU75       0.1728
     65  C         54.7700    7.7690   97.4600 C.2    75  LEU75       0.2616
     66  O         55.8750    7.8090   96.9430 O.2    75  LEU75      -0.2715
     67  CB        55.1670    5.9870   99.1910 C.3    75  LEU75       0.0311
     68  CG        54.7090    4.7490   99.9940 C.3    75  LEU75       0.0022
     69  CD1       55.8530    4.0440  100.7060 C.3    75  LEU75       0.0001
     70  CD2       53.6150    5.1270  100.9850 C.3    75  LEU75       0.0001
     71  N         53.9710    8.8240   97.5380 N.am   76  ALA76      -0.1977
     72  CA        54.2870   10.0960   96.8900 C.3    76  ALA76       0.1597
     73  C         55.4920   10.7990   97.5060 C.2    76  ALA76       0.2287
     74  O         56.3300   11.3290   96.7850 O.2    76  ALA76      -0.2864
     75  CB        53.0760   11.0150   96.9360 C.3    76  ALA76       0.0319
     76  N         55.2910    2.4360   91.0740 N.3    99  LEU99      -0.1245
     77  CA        55.1000    3.5170   90.0980 C.3    99  LEU99       0.1561
     78  C         55.9440    4.7900   90.1710 C.2    99  LEU99       0.2260
     79  O         55.6680    5.7250   89.4240 O.2    99  LEU99      -0.2867
     80  CB        53.5980    3.8360   89.9330 C.3    99  LEU99       0.0270
     81  CG        52.7460    4.5510   90.9930 C.3    99  LEU99       0.0019
     82  CD1       53.5420    5.3380   92.0380 C.3    99  LEU99       0.0001
     83  CD2       51.7300    5.4530   90.2920 C.3    99  LEU99       0.0001
     84  N         55.1980   16.6040   92.7740 N.3   115  SER115     -0.1217
     85  CA        54.8110   17.3060   94.0070 C.3   115  SER115      0.1889
     86  C         55.2130   16.5770   95.2850 C.2   115  SER115      0.2288
     87  O         55.3370   17.2130   96.3250 O.2   115  SER115     -0.2866
     88  CB        53.3030   17.5390   94.0550 C.3   115  SER115      0.2089
     89  OG        52.6140   16.3090   94.1940 O.3   115  SER115     -0.2183
     90  N         53.4760   14.8230   97.1390 N.3   117  ILE117     -0.1231
     91  CA        52.3510   14.9140   98.0610 C.3   117  ILE117      0.1678
     92  C         51.3570   13.8370   97.6340 C.2   117  ILE117      0.2434
     93  O         50.9940   13.7930   96.4530 O.2   117  ILE117     -0.2733
     94  CB        51.6380   16.2810   97.9330 C.3   117  ILE117      0.0265
     95  CG1       52.5810   17.4330   98.2900 C.3   117  ILE117      0.0019
     96  CG2       50.3880   16.3290   98.8080 C.3   117  ILE117      0.0020
     97  CD1       52.1390   18.7720   97.7380 C.3   117  ILE117      0.0001
     98  N         50.9060   12.9750   98.5700 N.am  118  PRO118     -0.2718
     99  CA        49.8150   12.0660   98.1860 C.3   118  PRO118      0.1535
    100  C         48.4340   12.7400   98.0950 C.2   118  PRO118      0.2598
    101  O         48.2600   13.8790   98.5370 O.2   118  PRO118     -0.2715
    102  CB        49.8380   10.9980   99.2820 C.3   118  PRO118      0.0310
    103  CG        50.5060   11.6290  100.4450 C.3   118  PRO118      0.0237
    104  CD        51.4480   12.6620   99.9050 C.3   118  PRO118      0.0939
    105  N         47.4860   12.0310   97.4830 N.am  119  ARG119     -0.1978
    106  CA        46.0480   12.3920   97.5110 C.3   119  ARG119      0.1597
    107  C         45.4770   12.5940   98.9210 C.2   119  ARG119      0.2287
    108  O         44.5670   13.4040   99.1160 O.2   119  ARG119     -0.2864
    109  CB        45.2000   11.3230   96.8040 C.3   119  ARG119      0.0334
    110  CG        45.4840    9.8850   97.2590 C.3   119  ARG119      0.0492
    111  CD        44.4730    8.8210   96.8390 C.3   119  ARG119      0.2205
    112  NE        43.3910    9.3040   95.9780 N.pl3 119  ARG119     -0.0865
    113  CZ        42.8120    8.6100   95.0010 C.cat 119  ARG119      0.5346
    114  NH1       43.1910    7.3670   94.7000 N.pl3 119  ARG119      0.1354
    115  NH2       41.8290    9.1820   94.3110 N.pl3 119  ARG119      0.1354
    116  N         45.6110   20.8900   98.4390 N.3   124  ARG124     -0.1245
    117  CA        45.0530   20.7040   97.0790 C.3   124  ARG124      0.1563
    118  C         43.7910   19.8170   96.9330 C.2   124  ARG124      0.2260
    119  O         43.2710   19.6900   95.8150 O.2   124  ARG124     -0.2867
    120  CB        46.1500   20.2200   96.1160 C.3   124  ARG124      0.0307
    121  CG        45.6670   20.1290   94.6690 C.3   124  ARG124      0.0489
    122  CD        46.7900   19.7560   93.7120 C.3   124  ARG124      0.2205
    123  NE        47.3700   18.4590   94.0370 N.pl3 124  ARG124     -0.0865
    124  CZ        48.5730   18.2780   94.5720 C.cat 124  ARG124      0.5346
    125  NH1       49.3540   19.3170   94.8490 N.pl3 124  ARG124      0.1354
    126  NH2       48.9870   17.0480   94.8450 N.pl3 124  ARG124      0.1354
    127  N         39.7010   18.6090   94.9310 N.3   127  ARG127     -0.1245
    128  CA        39.8960   19.1380   93.5830 C.3   127  ARG127      0.1563
    129  C         39.5250   18.0530   92.5680 C.2   127  ARG127      0.2260
    130  O         40.3810   17.5600   91.8260 O.2   127  ARG127     -0.2867
    131  CB        41.3510   19.5890   93.3980 C.3   127  ARG127      0.0307
    132  CG        41.5440   20.5440   92.2590 C.3   127  ARG127      0.0489
    133  CD        43.0210   20.8090   92.0150 C.3   127  ARG127      0.2205
    134  NE        43.7130   19.6280   91.4960 N.pl3 127  ARG127     -0.0865
    135  CZ        43.6320   19.1990   90.2380 C.cat 127  ARG127      0.5346
    136  NH1       42.9130   19.8740   89.3420 N.pl3 127  ARG127      0.1354
    137  NH2       44.2920   18.1070   89.8730 N.pl3 127  ARG127      0.1354
@<TRIPOS>BOND
     1   136   135    1
     2    79    78    2
     3   137   135    1
     4    80    77    1
     5    80    81    1
     6    50    48    1
     7    77    78    1
     8    77    76    1
     9   135   134    2
    10    83    81    1
    11    47    46    2
    12    81    82    1
    13    45    48    1
    14    45    46    1
    15    45    44    1
    16    48    49    1
    17    46    51   am
    18   134   133    1
    19   130   129    2
    20   133   132    1
    21    54    53    2
    22    33    32    2
    23   132   131    1
    24    44    32   am
    25   129   128    1
    26    51    52    1
    27    32    31    1
    28    84    85    1
    29    53    52    1
    30    52    55    1
    31   131   128    1
    32   128   127    1
    33    34    31    1
    34    34    35    1
    35   122   123    1
    36   122   121    1
    37    31    30    1
    38    85    88    1
    39    85    86    1
    40   123   124    2
    41    88    89    1
    42   115   113    1
    43    62    60    1
    44   124   126    1
    45   124   125    1
    46   121   120    1
    47   114   113    1
    48    35    36   ar
    49    35    37   ar
    50   113   112    2
    51    36    38   ar
    52    30    28   am
    53    60    61    1
    54    60    57    1
    55    86    87    2
    56    37    40   ar
    57    37    39   ar
    58    40    42   ar
    59    29    28    2
    60   119   118    2
    61    24    23    1
    62    28    27    1
    63   112   111    1
    64    57    56    1
    65    57    58    1
    66    38    39   ar
    67   120   117    1
    68    39    41   ar
    69    93    92    2
    70    42    43   ar
    71    74    73    2
    72   109   110    1
    73   109   106    1
    74   111   110    1
    75    72    75    1
    76    72    73    1
    77    72    71    1
    78   118   117    1
    79    66    65    2
    80    63    58   am
    81    63    64    1
    82   117   116    1
    83    58    59    2
    84    90    91    1
    85    23    25    1
    86    23    20    1
    87    41    43   ar
    88    27    26    1
    89    65    71   am
    90    65    64    1
    91   105   106    1
    92   105   100   am
    93   106   107    1
    94    26    21   am
    95    92    91    1
    96    92    98   am
    97    97    95    1
    98     6     5    1
    99    94    91    1
   100    94    95    1
   101    94    96    1
   102    64    67    1
   103   100    99    1
   104   100   101    2
   105    99    98    1
   106    99   102    1
   107    21    20    1
   108    21    22    2
   109    19    20    1
   110    19    17   am
   111     5     2    1
   112    98   104    1
   113    13    12   ar
   114   107   108    2
   115    67    68    1
   116    14    12   ar
   117    16    17    1
   118    16    15    1
   119   102   103    1
   120    17    18    2
   121    12    11    1
   122     2     1    1
   123     2     3    1
   124    15     9   am
   125   104   103    1
   126    68    69    1
   127    68    70    1
   128     7     3   am
   129     7     8    1
   130     3     4    2
   131     9     8    1
   132     9    10    2
   133    11     8    1
