@<TRIPOS>MOLECULE
tmp/5d0rA00.pdb
 158 156 0 0 0
SMALL
GASTEIGER

@<TRIPOS>ATOM
      1  N         15.1490   22.1370   13.1070 N.3    37  LEU37      -0.1245
      2  CA        15.8220   22.9220   12.0670 C.3    37  LEU37       0.1561
      3  C         15.8260   24.4100   12.3050 C.2    37  LEU37       0.2260
      4  O         14.8580   24.9730   12.8400 O.2    37  LEU37      -0.2867
      5  CB        15.1210   22.6800   10.7610 C.3    37  LEU37       0.0270
      6  CG        15.2470   21.2150   10.3000 C.3    37  LEU37       0.0019
      7  CD1       14.1440   20.9450    9.2890 C.3    37  LEU37       0.0001
      8  CD2       16.5820   20.9460    9.6740 C.3    37  LEU37       0.0001
      9  N         16.5310   27.7900    9.8860 N.3    39  PHE39      -0.1241
     10  CA        16.7410   28.3450    8.5660 C.3    39  PHE39       0.1605
     11  C         16.9890   29.8060    8.8120 C.2    39  PHE39       0.2264
     12  O         16.1300   30.4970    9.3670 O.2    39  PHE39      -0.2867
     13  CB        15.4930   28.1960    7.7400 C.3    39  PHE39       0.0534
     14  CG        15.6860   28.3380    6.2400 C.ar   39  PHE39      -0.0203
     15  CD1       16.9120   28.2710    5.6350 C.ar   39  PHE39      -0.0042
     16  CD2       14.5780   28.4060    5.4230 C.ar   39  PHE39      -0.0042
     17  CE1       17.0660   28.3440    4.2530 C.ar   39  PHE39      -0.0003
     18  CE2       14.7010   28.4970    4.0060 C.ar   39  PHE39      -0.0003
     19  CZ        15.9740   28.4770    3.4270 C.ar   39  PHE39      -0.0000
     20  N         23.7630   23.1580    4.9200 N.3    89  LYS89      -0.1231
     21  CA        23.7360   23.6840    3.5190 C.3    89  LYS89       0.1693
     22  C         23.8560   25.2490    3.6320 C.2    89  LYS89       0.2592
     23  O         23.4050   25.8290    4.6310 O.2    89  LYS89      -0.2718
     24  CB        22.4260   23.2400    2.7950 C.3    89  LYS89       0.0285
     25  CG        22.3220   23.1280    1.2820 C.3    89  LYS89       0.0035
     26  CD        20.8600   22.7620    0.7770 C.3    89  LYS89       0.0206
     27  CE        20.6370   21.4380   -0.0980 C.3    89  LYS89       0.1093
     28  NZ        20.9430   19.9420    0.4640 N.3    89  LYS89      -0.1314
     29  N         24.6220   25.8680    2.7180 N.am   90  PHE90      -0.1962
     30  CA        24.6200   27.2720    2.5530 C.3    90  PHE90       0.1771
     31  C         24.1820   27.5170    1.1260 C.2    90  PHE90       0.2619
     32  O         24.4980   26.7560    0.2520 O.2    90  PHE90      -0.2715
     33  CB        26.0080   27.8720    2.5980 C.3    90  PHE90       0.0574
     34  CG        26.7900   27.6500    3.8550 C.ar   90  PHE90      -0.0200
     35  CD1       27.4930   26.4540    4.0480 C.ar   90  PHE90      -0.0042
     36  CD2       26.9490   28.6820    4.7820 C.ar   90  PHE90      -0.0042
     37  CE1       28.1910   26.2320    5.1940 C.ar   90  PHE90      -0.0003
     38  CE2       27.6980   28.4690    5.9310 C.ar   90  PHE90      -0.0003
     39  CZ        28.3150   27.2390    6.1290 C.ar   90  PHE90      -0.0000
     40  N         23.6100   28.6660    0.9020 N.am   91  ALA91      -0.1963
     41  CA        23.4430   29.2540   -0.4410 C.3    91  ALA91       0.1728
     42  C         23.1900   30.7100   -0.2160 C.2    91  ALA91       0.2617
     43  O         22.1520   31.0490    0.3780 O.2    91  ALA91      -0.2715
     44  CB        22.2220   28.7000   -1.2120 C.3    91  ALA91       0.0334
     45  N         24.1220   31.5460   -0.6710 N.am   92  GLY92      -0.1940
     46  CA        23.8710   32.9500   -0.7900 C.3    92  GLY92       0.2014
     47  C         23.8660   33.6520    0.5460 C.2    92  GLY92       0.2639
     48  O         24.8870   33.6350    1.2360 O.2    92  GLY92      -0.2714
     49  N         22.7120   34.2530    0.9000 N.am   93  ASP93      -0.1957
     50  CA        22.5170   34.9550    2.2120 C.3    93  ASP93       0.1840
     51  C         21.9910   34.0230    3.3590 C.2    93  ASP93       0.2622
     52  O         21.8730   34.5100    4.4830 O.2    93  ASP93      -0.2715
     53  CB        21.6050   36.2270    2.0710 C.3    93  ASP93       0.1450
     54  CG        20.2320   35.9220    1.4460 C.2    93  ASP93       0.3671
     55  OD1       20.1180   34.8570    0.7500 O.co2  93  ASP93      -0.2456
     56  OD2       19.2780   36.7560    1.6460 O.co2  93  ASP93      -0.2456
     57  N         21.7240   32.7260    3.0410 N.am   94  ALA94      -0.1963
     58  CA        20.9670   31.7690    3.8370 C.3    94  ALA94       0.1728
     59  C         21.7780   30.5150    4.1870 C.2    94  ALA94       0.2616
     60  O         22.6260   30.0860    3.4170 O.2    94  ALA94      -0.2715
     61  CB        19.7250   31.3870    3.0850 C.3    94  ALA94       0.0334
     62  N         21.5270   29.9390    5.3570 N.am   95  LEU95      -0.1963
     63  CA        22.0410   28.6360    5.7230 C.3    95  LEU95       0.1728
     64  C         21.0350   27.8520    6.5670 C.2    95  LEU95       0.2616
     65  O         20.2020   28.4450    7.2890 O.2    95  LEU95      -0.2715
     66  CB        23.3840   28.7700    6.4640 C.3    95  LEU95       0.0311
     67  CG        23.3580   29.5500    7.8070 C.3    95  LEU95       0.0022
     68  CD1       23.1300   28.6190    9.0270 C.3    95  LEU95       0.0001
     69  CD2       24.7040   30.2710    8.0140 C.3    95  LEU95       0.0001
     70  N         21.1520   26.5080    6.4770 N.am   96  LEU96      -0.1977
     71  CA        20.2410   25.5830    7.1190 C.3    96  LEU96       0.1596
     72  C         21.0120   24.8170    8.1540 C.2    96  LEU96       0.2287
     73  O         22.0770   24.3220    7.8670 O.2    96  LEU96      -0.2864
     74  CB        19.6220   24.6940    6.0640 C.3    96  LEU96       0.0297
     75  CG        18.6510   23.6930    6.6220 C.3    96  LEU96       0.0022
     76  CD1       17.4060   24.4680    7.0870 C.3    96  LEU96       0.0001
     77  CD2       18.2860   22.6260    5.5770 C.3    96  LEU96       0.0001
     78  N         22.8920   15.1190   -1.2610 N.3   159  PHE159     -0.1227
     79  CA        21.7890   14.8490   -0.2930 C.3   159  PHE159      0.1736
     80  C         20.7910   16.0050   -0.1770 C.2   159  PHE159      0.2595
     81  O         21.1350   17.1520   -0.4920 O.2   159  PHE159     -0.2718
     82  CB        22.2960   14.5470    1.1120 C.3   159  PHE159      0.0547
     83  CG        22.8020   15.7830    1.8480 C.ar  159  PHE159     -0.0202
     84  CD1       24.0460   16.2860    1.5600 C.ar  159  PHE159     -0.0042
     85  CD2       21.9930   16.4620    2.7490 C.ar  159  PHE159     -0.0042
     86  CE1       24.4870   17.4740    2.1470 C.ar  159  PHE159     -0.0003
     87  CE2       22.4270   17.6260    3.3650 C.ar  159  PHE159     -0.0003
     88  CZ        23.6690   18.1120    3.0830 C.ar  159  PHE159     -0.0000
     89  N         19.5900   15.6480    0.2790 N.am  160  LEU160     -0.1966
     90  CA        18.5490   16.5200    0.7030 C.3   160  LEU160      0.1728
     91  C         17.8860   16.0360    1.9530 C.2   160  LEU160      0.2616
     92  O         17.8070   14.8400    2.2380 O.2   160  LEU160     -0.2715
     93  CB        17.4100   16.6250   -0.3200 C.3   160  LEU160      0.0311
     94  CG        17.7890   16.9460   -1.7650 C.3   160  LEU160      0.0022
     95  CD1       16.7030   16.5180   -2.7360 C.3   160  LEU160      0.0001
     96  CD2       18.0670   18.4160   -1.8240 C.3   160  LEU160      0.0001
     97  N         17.3460   16.9860    2.7040 N.am  161  VAL161     -0.1977
     98  CA        16.4530   16.6730    3.7940 C.3   161  VAL161      0.1596
     99  C         15.0260   17.0430    3.2810 C.2   161  VAL161      0.2287
    100  O         14.8200   18.0370    2.5590 O.2   161  VAL161     -0.2864
    101  CB        16.8160   17.3220    5.1420 C.3   161  VAL161      0.0276
    102  CG1       17.9860   16.6140    5.7700 C.3   161  VAL161      0.0022
    103  CG2       17.0880   18.8140    5.0310 C.3   161  VAL161      0.0022
    104  N         10.6980   20.1020    7.2750 N.3   166  VAL166     -0.1245
    105  CA        11.4770   20.8540    6.3570 C.3   166  VAL166      0.1561
    106  C         10.5870   21.8780    5.6630 C.2   166  VAL166      0.2260
    107  O         10.9450   23.0560    5.5720 O.2   166  VAL166     -0.2867
    108  CB        12.1960   19.9080    5.3420 C.3   166  VAL166      0.0252
    109  CG1       13.1460   20.7190    4.5200 C.3   166  VAL166      0.0019
    110  CG2       13.0710   18.9460    6.0690 C.3   166  VAL166      0.0019
    111  N          9.8770   24.6380    8.2260 N.3   169  VAL169     -0.1231
    112  CA        10.9550   25.6160    8.4010 C.3   169  VAL169      0.1692
    113  C         11.0000   26.6370    7.2340 C.2   169  VAL169      0.2591
    114  O         11.2730   27.8450    7.4470 O.2   169  VAL169     -0.2718
    115  CB        12.3570   25.0040    8.7680 C.3   169  VAL169      0.0266
    116  CG1       13.1890   24.7130    7.5320 C.3   169  VAL169      0.0020
    117  CG2       13.1300   25.9930    9.6150 C.3   169  VAL169      0.0020
    118  N         10.7130   26.1780    6.0270 N.am  170  ARG170     -0.1980
    119  CA        10.6610   27.1470    4.9140 C.3   170  ARG170      0.1597
    120  C          9.4780   28.1220    5.1130 C.2   170  ARG170      0.2287
    121  O          9.6660   29.3250    5.0040 O.2   170  ARG170     -0.2864
    122  CB        10.6150   26.4810    3.5430 C.3   170  ARG170      0.0334
    123  CG        11.8720   25.6340    3.1890 C.3   170  ARG170      0.0492
    124  CD        11.8960   25.1750    1.6930 C.3   170  ARG170      0.2205
    125  NE        10.8970   24.1450    1.4790 N.pl3 170  ARG170     -0.0865
    126  CZ        11.1160   22.8290    1.5120 C.cat 170  ARG170      0.5346
    127  NH1       12.3530   22.3270    1.6160 N.pl3 170  ARG170      0.1354
    128  NH2       10.0770   21.9930    1.3900 N.pl3 170  ARG170      0.1354
    129  N         18.2210   21.6690   -4.3280 N.3   329  PHE329     -0.1227
    130  CA        17.4010   22.3490   -3.3870 C.3   329  PHE329      0.1736
    131  C         16.0420   21.7010   -3.2400 C.2   329  PHE329      0.2595
    132  O         15.4610   21.1460   -4.1790 O.2   329  PHE329     -0.2718
    133  CB        17.1840   23.8140   -3.7860 C.3   329  PHE329      0.0547
    134  CG        18.4070   24.6440   -3.7060 C.ar  329  PHE329     -0.0202
    135  CD1       18.8660   25.1160   -2.4860 C.ar  329  PHE329     -0.0042
    136  CD2       19.1000   24.9900   -4.8500 C.ar  329  PHE329     -0.0042
    137  CE1       20.0120   25.8830   -2.4000 C.ar  329  PHE329     -0.0003
    138  CE2       20.2640   25.7330   -4.7980 C.ar  329  PHE329     -0.0003
    139  CZ        20.7230   26.2100   -3.5620 C.ar  329  PHE329     -0.0000
    140  N         15.5260   21.7450   -2.0400 N.am  330  MET330     -0.1965
    141  CA        14.0820   21.5720   -1.8800 C.3   330  MET330      0.1736
    142  C         13.4720   22.9140   -1.6010 C.2   330  MET330      0.2613
    143  O         13.5570   23.4290   -0.4760 O.2   330  MET330     -0.2715
    144  CB        13.7960   20.6790   -0.7450 C.3   330  MET330      0.0427
    145  CG        14.1900   19.2560   -1.0390 C.3   330  MET330      0.0599
    146  SD        13.1060   18.5210   -2.2390 S.3   330  MET330     -0.1393
    147  CE        11.5200   18.7400   -1.4390 C.3   330  MET330      0.0692
    148  N         12.8620   23.5050   -2.6060 N.am  331  PHE331     -0.2027
    149  CA        11.9630   24.6340   -2.3360 C.3   331  PHE331      0.1325
    150  C         10.5780   24.1360   -1.8710 C.3   331  PHE331      0.2039
    151  O         10.2950   22.8670   -1.8030 O.3   331  PHE331     -0.2185
    152  CB        11.8560   25.5560   -3.5530 C.3   331  PHE331      0.0507
    153  CG        13.1800   26.1040   -3.9940 C.ar  331  PHE331     -0.0204
    154  CD1       14.2690   26.2080   -3.1090 C.ar  331  PHE331     -0.0042
    155  CD2       13.3550   26.5570   -5.2970 C.ar  331  PHE331     -0.0042
    156  CE1       15.4700   26.7330   -3.5480 C.ar  331  PHE331     -0.0003
    157  CE2       14.5690   27.0860   -5.7070 C.ar  331  PHE331     -0.0003
    158  CZ        15.6160   27.1530   -4.8440 C.ar  331  PHE331     -0.0000
@<TRIPOS>BOND
     1   157   155   ar
     2   157   158   ar
     3   155   153   ar
     4   136   138   ar
     5   136   134   ar
     6   158   156   ar
     7   138   139   ar
     8   129   130    1
     9   132   131    2
    10   153   152    1
    11   153   154   ar
    12   133   134    1
    13   133   130    1
    14   134   135   ar
    15   139   137   ar
    16   152   149    1
    17   156   154   ar
    18   130   131    1
    19   131   140   am
    20    95    94    1
    21   148   149    1
    22   148   142   am
    23   135   137   ar
    24   149   150    1
    25   146   147    1
    26   146   145    1
    27   140   141    1
    28   141   142    1
    29   141   144    1
    30   150   151    1
    31    96    94    1
    32    94    93    1
    33   142   143    2
    34    78    79    1
    35    44    41    1
    36   145   144    1
    37    46    45    1
    38    46    47    1
    39    45    42   am
    40    81    80    2
    41    41    42    1
    42    41    40    1
    43    93    90    1
    44    79    80    1
    45    79    82    1
    46    42    43    2
    47    80    89   am
    48    27    28    1
    49    27    26    1
    50    32    31    2
    51    89    90    1
    52    47    49   am
    53    47    48    2
    54    90    91    1
    55    55    54   ar
    56    26    25    1
    57    49    50    1
    58    40    31   am
    59    82    83    1
    60    31    30    1
    61    25    24    1
    62   128   126    1
    63    54    56   ar
    64    54    53    1
    65   125   126    2
    66   125   124    1
    67   126   127    1
    68    84    83   ar
    69    84    86   ar
    70   124   123    1
    71    83    85   ar
    72    91    92    2
    73    91    97   am
    74    53    50    1
    75    86    88   ar
    76    50    51    1
    77    30    33    1
    78    30    29    1
    79   100    99    2
    80    33    34    1
    81    97    98    1
    82    29    22   am
    83    85    87   ar
    84    24    21    1
    85    57    51   am
    86    57    58    1
    87    88    87   ar
    88    61    58    1
    89   123   122    1
    90    99    98    1
    91    51    52    2
    92    60    59    2
    93    19    18   ar
    94    19    17   ar
    95    21    22    1
    96    21    20    1
    97   122   119    1
    98    22    23    2
    99    98   101    1
   100    58    59    1
   101    34    35   ar
   102    34    36   ar
   103    18    16   ar
   104    35    37   ar
   105    59    62   am
   106    17    15   ar
   107   109   108    1
   108    36    38   ar
   109   119   120    1
   110   119   118    1
   111   121   120    2
   112   103   101    1
   113   101   102    1
   114    37    39   ar
   115   108   110    1
   116   108   105    1
   117    62    63    1
   118    16    14   ar
   119   107   106    2
   120    77    75    1
   121    15    14   ar
   122   106   105    1
   123    63    66    1
   124    63    64    1
   125    38    39   ar
   126   118   113   am
   127    74    75    1
   128    74    71    1
   129    14    13    1
   130   105   104    1
   131    66    67    1
   132    70    64   am
   133    70    71    1
   134    64    65    2
   135    75    76    1
   136    71    72    1
   137   113   114    2
   138   113   112    1
   139   116   115    1
   140    13    10    1
   141    67    69    1
   142    67    68    1
   143    73    72    2
   144   111   112    1
   145   112   115    1
   146    10    11    1
   147    10     9    1
   148   115   117    1
   149    11    12    2
   150     7     6    1
   151     8     6    1
   152     6     5    1
   153     5     2    1
   154     2     3    1
   155     2     1    1
   156     3     4    2
