@<TRIPOS>MOLECULE
tmp/5d0tN00.pdb
 139 130 0 0 0
SMALL
GASTEIGER

@<TRIPOS>ATOM
      1  N         44.1380 -143.1310   63.1900 N.3     1  THR1       -0.1218
      2  CA        44.0110 -142.0650   64.2290 C.3     1  THR1        0.1862
      3  C         42.9860 -142.4600   65.2650 C.2     1  THR1        0.2287
      4  O         41.9360 -143.0060   64.9360 O.2     1  THR1       -0.2866
      5  CB        43.6260 -140.7370   63.5730 C.3     1  THR1        0.1770
      6  OG1       44.7810 -140.2570   62.8870 O.3     1  THR1       -0.2211
      7  CG2       43.1730 -139.6300   64.5260 C.3     1  THR1        0.0375
      8  N         50.2010 -140.9020   65.6130 N.3    19  ARG19      -0.1231
      9  CA        50.5840 -141.5660   64.3680 C.3    19  ARG19       0.1694
     10  C         49.9940 -140.8870   63.1300 C.2    19  ARG19       0.2593
     11  O         48.8010 -140.5810   63.0850 O.2    19  ARG19      -0.2718
     12  CB        50.1610 -143.0370   64.3990 C.3    19  ARG19       0.0321
     13  CG        50.6080 -143.8340   63.1810 C.3    19  ARG19       0.0489
     14  CD        50.4760 -145.3320   63.4040 C.3    19  ARG19       0.2205
     15  NE        51.5040 -145.8510   64.3040 N.pl3  19  ARG19      -0.0865
     16  CZ        51.6800 -147.1380   64.5910 C.cat  19  ARG19       0.5346
     17  NH1       50.8970 -148.0680   64.0520 N.pl3  19  ARG19       0.1354
     18  NH2       52.6510 -147.5000   65.4210 N.pl3  19  ARG19       0.1354
     19  N         50.8460 -140.6660   62.1310 N.am   20  THR20      -0.1939
     20  CA        50.4300 -140.1560   60.8270 C.3    20  THR20       0.2028
     21  C         50.9480 -141.1100   59.7580 C.2    20  THR20       0.2643
     22  O         52.1430 -141.4080   59.7240 O.2    20  THR20      -0.2714
     23  CB        50.9990 -138.7480   60.5650 C.3    20  THR20       0.1808
     24  OG1       50.6150 -137.8670   61.6270 O.3    20  THR20      -0.2208
     25  CG2       50.4860 -138.1890   59.2460 C.3    20  THR20       0.0379
     26  N         50.0580 -141.5820   58.8870 N.am   21  THR21      -0.1936
     27  CA        50.4150 -142.6150   57.9130 C.3    21  THR21       0.2028
     28  C         50.2200 -142.2120   56.4540 C.2    21  THR21       0.2643
     29  O         49.3880 -141.3650   56.1270 O.2    21  THR21      -0.2714
     30  CB        49.6150 -143.9110   58.1450 C.3    21  THR21       0.1808
     31  OG1       48.2270 -143.5970   58.2980 O.3    21  THR21      -0.2208
     32  CG2       50.1140 -144.6330   59.3850 C.3    21  THR21       0.0379
     33  N         51.0220 -142.8380   55.5960 N.am   22  THR22      -0.1936
     34  CA        50.8510 -142.8010   54.1490 C.3    22  THR22       0.2028
     35  C         50.7840 -144.2530   53.7020 C.2    22  THR22       0.2642
     36  O         51.8140 -144.8890   53.4710 O.2    22  THR22      -0.2714
     37  CB        52.0360 -142.1150   53.4450 C.3    22  THR22       0.1808
     38  OG1       52.3950 -140.9240   54.1490 O.3    22  THR22      -0.2208
     39  CG2       51.6750 -141.7660   52.0090 C.3    22  THR22       0.0379
     40  N         49.5700 -144.7830   53.6040 N.am   23  GLY23      -0.1954
     41  CA        49.3770 -146.2110   53.3980 C.3    23  GLY23       0.1869
     42  C         49.7180 -146.9310   54.6890 C.2    23  GLY23       0.2309
     43  O         49.0510 -146.7320   55.7050 O.2    23  GLY23      -0.2863
     44  N         54.5680 -141.8560   58.4940 N.3    27  ALA27      -0.1245
     45  CA        55.2880 -140.6430   58.1030 C.3    27  ALA27       0.1562
     46  C         55.7250 -139.8180   59.3100 C.2    27  ALA27       0.2260
     47  O         56.7390 -139.1290   59.2570 O.2    27  ALA27      -0.2867
     48  CB        54.4310 -139.7970   57.1760 C.3    27  ALA27       0.0290
     49  N         53.2940 -137.1520   66.1290 N.3    31  THR31      -0.1218
     50  CA        52.4040 -136.0830   65.6740 C.3    31  THR31       0.1862
     51  C         51.6290 -135.4640   66.8360 C.2    31  THR31       0.2287
     52  O         51.3050 -136.1490   67.8110 O.2    31  THR31      -0.2866
     53  CB        51.3820 -136.6180   64.6450 C.3    31  THR31       0.1770
     54  OG1       52.0520 -137.4320   63.6760 O.3    31  THR31      -0.2211
     55  CG2       50.6670 -135.4790   63.9300 C.3    31  THR31       0.0375
     56  N         48.1280 -133.9820   67.3990 N.3    33  LYS33      -0.1245
     57  CA        46.7840 -133.8820   66.8300 C.3    33  LYS33       0.1561
     58  C         45.8520 -133.0240   67.6790 C.2    33  LYS33       0.2260
     59  O         44.7210 -132.7450   67.2770 O.2    33  LYS33      -0.2867
     60  CB        46.1870 -135.2790   66.6720 C.3    33  LYS33       0.0271
     61  CG        47.0190 -136.1840   65.7810 C.3    33  LYS33       0.0035
     62  CD        46.4910 -137.6050   65.7680 C.3    33  LYS33       0.0206
     63  CE        47.4410 -138.5170   65.0140 C.3    33  LYS33       0.1093
     64  NZ        46.7780 -139.7770   64.5910 N.3    33  LYS33      -0.1314
     65  N         42.0010 -133.5470   65.8920 N.3    45  ARG45      -0.1231
     66  CA        41.9450 -133.6630   64.4410 C.3    45  ARG45       0.1694
     67  C         42.0260 -135.1170   63.9840 C.2    45  ARG45       0.2593
     68  O         42.8270 -135.8970   64.5060 O.2    45  ARG45      -0.2718
     69  CB        43.0710 -132.8420   63.8130 C.3    45  ARG45       0.0321
     70  CG        42.9660 -131.3610   64.1340 C.3    45  ARG45       0.0489
     71  CD        44.0240 -130.5370   63.4250 C.3    45  ARG45       0.2205
     72  NE        45.3690 -130.8620   63.8960 N.pl3  45  ARG45      -0.0865
     73  CZ        46.3100 -131.4770   63.1830 C.cat  45  ARG45       0.5346
     74  NH1       46.0940 -131.8620   61.9250 N.pl3  45  ARG45       0.1354
     75  NH2       47.4940 -131.7110   63.7400 N.pl3  45  ARG45       0.1354
     76  N         41.1740 -135.4660   63.0190 N.am   46  SER46      -0.1938
     77  CA        41.2100 -136.7730   62.3570 C.3    46  SER46       0.2055
     78  C         40.8870 -136.6020   60.8780 C.2    46  SER46       0.2644
     79  O         40.2600 -135.6150   60.4850 O.2    46  SER46      -0.2714
     80  CB        40.2160 -137.7460   62.9970 C.3    46  SER46       0.2130
     81  OG        38.8830 -137.4870   62.5830 O.3    46  SER46      -0.2179
     82  N         41.3110 -137.5710   60.0690 N.am   47  GLY47      -0.1939
     83  CA        41.1090 -137.5280   58.6200 C.3    47  GLY47       0.2014
     84  C         42.3390 -136.9870   57.9200 C.2    47  GLY47       0.2640
     85  O         43.4590 -137.3670   58.2520 O.2    47  GLY47      -0.2714
     86  N         42.1340 -136.1000   56.9490 N.am   48  SER48      -0.1935
     87  CA        43.2430 -135.4900   56.2210 C.3    48  SER48       0.2055
     88  C         44.0100 -134.5240   57.1180 C.2    48  SER48       0.2643
     89  O         43.4150 -133.6580   57.7590 O.2    48  SER48      -0.2714
     90  CB        42.7320 -134.7430   54.9900 C.3    48  SER48       0.2130
     91  OG        43.7850 -134.0470   54.3400 O.3    48  SER48      -0.2179
     92  N         45.3290 -134.6800   57.1560 N.am   49  ALA49      -0.1963
     93  CA        46.1890 -133.7910   57.9320 C.3    49  ALA49       0.1728
     94  C         46.1790 -132.3860   57.3440 C.2    49  ALA49       0.2616
     95  O         46.1310 -131.4010   58.0780 O.2    49  ALA49      -0.2715
     96  CB        47.6090 -134.3320   57.9760 C.3    49  ALA49       0.0334
     97  N         46.2120 -132.3040   56.0170 N.am   50  ALA50      -0.1963
     98  CA        46.1940 -131.0210   55.3190 C.3    50  ALA50       0.1728
     99  C         44.8790 -130.2750   55.5470 C.2    50  ALA50       0.2616
    100  O         44.8820 -129.0970   55.9080 O.2    50  ALA50      -0.2715
    101  CB        46.4300 -131.2300   53.8310 C.3    50  ALA50       0.0334
    102  N         43.7610 -130.9670   55.3390 N.am   51  ASP51      -0.1957
    103  CA        42.4360 -130.3590   55.5010 C.3    51  ASP51       0.1840
    104  C         42.2180 -129.8400   56.9180 C.2    51  ASP51       0.2622
    105  O         41.7830 -128.7030   57.1070 O.2    51  ASP51      -0.2715
    106  CB        41.3270 -131.3600   55.1590 C.3    51  ASP51       0.1450
    107  CG        41.2720 -131.7040   53.6770 C.2    51  ASP51       0.3671
    108  OD1       41.9880 -131.0690   52.8710 O.co2  51  ASP51      -0.2456
    109  OD2       40.4960 -132.6150   53.3170 O.co2  51  ASP51      -0.2456
    110  N         42.5250 -130.6760   57.9070 N.am   52  THR52      -0.1951
    111  CA        42.3050 -130.3240   59.3120 C.3    52  THR52       0.1897
    112  C         43.2310 -129.2040   59.7980 C.2    52  THR52       0.2313
    113  O         42.8420 -128.4090   60.6530 O.2    52  THR52      -0.2863
    114  CB        42.4650 -131.5450   60.2370 C.3    52  THR52       0.1794
    115  OG1       43.7490 -132.1460   60.0250 O.3    52  THR52      -0.2208
    116  CG2       41.3660 -132.5610   59.9750 C.3    52  THR52       0.0378
    117  N         37.9270 -133.8800   53.9210 N.3    94  THR94      -0.1218
    118  CA        37.9110 -135.1390   54.6550 C.3    94  THR94       0.1862
    119  C         38.4720 -134.8360   56.0440 C.2    94  THR94       0.2287
    120  O         39.6540 -135.0580   56.3200 O.2    94  THR94      -0.2866
    121  CB        38.7450 -136.2190   53.9420 C.3    94  THR94       0.1770
    122  OG1       38.3080 -136.3370   52.5820 O.3    94  THR94      -0.2211
    123  CG2       38.5980 -137.5690   54.6350 C.3    94  THR94       0.0375
    124  N         38.0040 -140.9440   64.7270 N.3   128  GLY128     -0.1210
    125  CA        39.1720 -141.5280   64.0850 C.3   128  GLY128      0.1956
    126  C         38.9350 -142.9980   63.7960 C.2   128  GLY128      0.2612
    127  O         38.0020 -143.6050   64.3290 O.2   128  GLY128     -0.2717
    128  N         39.7900 -143.5690   62.9530 N.am  129  SER129     -0.1952
    129  CA        39.6750 -144.9710   62.5480 C.3   129  SER129      0.1924
    130  C         39.7430 -145.9430   63.7290 C.2   129  SER129      0.2314
    131  O         39.1190 -147.0040   63.6980 O.2   129  SER129     -0.2863
    132  CB        40.7660 -145.3170   61.5290 C.3   129  SER129      0.2116
    133  OG        42.0510 -144.9380   61.9990 O.3   129  SER129     -0.2180
    134  N         46.4590 -147.8020   62.0370 N.3   168  SER168     -0.1217
    135  CA        46.6090 -146.3790   61.7420 C.3   168  SER168      0.1889
    136  C         46.8240 -145.5330   62.9980 C.2   168  SER168      0.2288
    137  O         47.1380 -144.3480   62.8950 O.2   168  SER168     -0.2866
    138  CB        45.3860 -145.8680   60.9790 C.3   168  SER168      0.2089
    139  OG        45.2170 -146.5800   59.7660 O.3   168  SER168     -0.2183
@<TRIPOS>BOND
     1    39    37    1
     2   122   121    1
     3   108   107   ar
     4   109   107   ar
     5    41    40    1
     6    41    42    1
     7    37    34    1
     8    37    38    1
     9    36    35    2
    10    40    35   am
    11   107   106    1
    12    35    34    1
    13   101    98    1
    14   117   118    1
    15   121   123    1
    16   121   118    1
    17    34    33    1
    18    91    90    1
    19   118   119    1
    20    42    43    2
    21    90    87    1
    22   106   103    1
    23    98    99    1
    24    98    97    1
    25   102   103    1
    26   102    99   am
    27   103   104    1
    28    99   100    2
    29    33    28   am
    30    97    94   am
    31   119   120    2
    32    29    28    2
    33    87    86    1
    34    87    88    1
    35    28    27    1
    36   104   105    2
    37   104   110   am
    38    86    84   am
    39    88    92   am
    40    88    89    2
    41    92    93    1
    42    48    45    1
    43    94    93    1
    44    94    95    2
    45   110   111    1
    46    27    30    1
    47    27    26    1
    48    84    85    2
    49    84    83    1
    50    93    96    1
    51    45    44    1
    52    45    46    1
    53    30    31    1
    54    30    32    1
    55    83    82    1
    56    26    21   am
    57    25    23    1
    58    47    46    2
    59   111   112    1
    60   111   114    1
    61    22    21    2
    62    21    20    1
    63   139   138    1
    64   112   113    2
    65   116   114    1
    66   115   114    1
    67    82    78   am
    68    79    78    2
    69    23    20    1
    70    23    24    1
    71    20    19    1
    72    78    77    1
    73   138   135    1
    74   132   133    1
    75   132   129    1
    76   135   134    1
    77   135   136    1
    78    74    73    1
    79    19    10   am
    80    77    80    1
    81    77    76    1
    82   129   128    1
    83   129   130    1
    84    81    80    1
    85     6     5    1
    86   137   136    2
    87   128   126   am
    88    76    67   am
    89    11    10    2
    90    10     9    1
    91    13    14    1
    92    13    12    1
    93    73    75    1
    94    73    72    2
    95     1     2    1
    96    14    15    1
    97    71    72    1
    98    71    70    1
    99     5     2    1
   100     5     7    1
   101    54    53    1
   102   131   130    2
   103   126   125    1
   104   126   127    2
   105    69    70    1
   106    69    66    1
   107    55    53    1
   108    67    66    1
   109    67    68    2
   110    17    16    1
   111   125   124    1
   112     2     3    1
   113    15    16    2
   114     9    12    1
   115     9     8    1
   116    66    65    1
   117    64    63    1
   118    16    18    1
   119    53    50    1
   120     4     3    2
   121    63    62    1
   122    50    49    1
   123    50    51    1
   124    62    61    1
   125    61    60    1
   126    60    57    1
   127    57    56    1
   128    57    58    1
   129    51    52    2
   130    59    58    2
