@<TRIPOS>MOLECULE
tmp/5d0uA00.pdb
 161 151 0 0 0
SMALL
GASTEIGER

@<TRIPOS>ATOM
      1  N        112.5860  102.7920   -1.8370 N.3    36  LEU36      -0.1245
      2  CA       113.1120  104.0610   -2.3340 C.3    36  LEU36       0.1561
      3  C        112.2070  104.6690   -3.4050 C.2    36  LEU36       0.2260
      4  O        111.5430  103.9440   -4.1440 O.2    36  LEU36      -0.2867
      5  CB       114.5280  103.8690   -2.8850 C.3    36  LEU36       0.0270
      6  CG       115.6320  103.6550   -1.8450 C.3    36  LEU36       0.0019
      7  CD1      116.9530  103.3140   -2.5160 C.3    36  LEU36       0.0001
      8  CD2      115.7810  104.8860   -0.9650 C.3    36  LEU36       0.0001
      9  N        117.9730  114.3670   -3.0420 N.3    61  THR61      -0.1203
     10  CA       118.9620  113.5380   -2.3630 C.3    61  THR61       0.1994
     11  C        118.2680  112.5350   -1.4440 C.2    61  THR61       0.2618
     12  O        117.4130  112.9080   -0.6410 O.2    61  THR61      -0.2717
     13  CB       119.9470  114.3940   -1.5450 C.3    61  THR61       0.1784
     14  OG1      120.4890  115.4300   -2.3740 O.3    61  THR61      -0.2211
     15  CG2      121.0800  113.5380   -1.0070 C.3    61  THR61       0.0376
     16  N        118.6300  111.2620   -1.5730 N.am   62  GLY62      -0.1942
     17  CA       118.0160  110.2080   -0.7820 C.3    62  GLY62       0.2014
     18  C        117.0190  109.3880   -1.5810 C.2    62  GLY62       0.2640
     19  O        116.2990  108.5590   -1.0250 O.2    62  GLY62      -0.2714
     20  N        116.9850  109.6150   -2.8910 N.am   63  SER63      -0.1935
     21  CA       115.9940  108.9850   -3.7610 C.3    63  SER63       0.2055
     22  C        116.3690  107.5590   -4.1610 C.2    63  SER63       0.2644
     23  O        115.4970  106.7140   -4.3550 O.2    63  SER63      -0.2714
     24  CB       115.7860  109.8300   -5.0200 C.3    63  SER63       0.2130
     25  OG       115.3840  111.1490   -4.6920 O.3    63  SER63      -0.2179
     26  N        117.6670  107.3000   -4.2850 N.am   64  GLY64      -0.1939
     27  CA       118.1510  106.0160   -4.7640 C.3    64  GLY64       0.2014
     28  C        118.8650  106.2020   -6.0860 C.2    64  GLY64       0.2639
     29  O        119.4390  105.2710   -6.6440 O.2    64  GLY64      -0.2714
     30  N        118.8490  107.4420   -6.5610 N.am   65  LYS65      -0.1963
     31  CA       119.3030  107.7930   -7.9010 C.3    65  LYS65       0.1728
     32  C        120.7480  107.3820   -8.2190 C.2    65  LYS65       0.2617
     33  O        121.0580  107.0530   -9.3620 O.2    65  LYS65      -0.2715
     34  CB       119.1070  109.3010   -8.1020 C.3    65  LYS65       0.0311
     35  CG       120.2820  110.0550   -8.6900 C.3    65  LYS65       0.0038
     36  CD       119.9100  111.5130   -8.9230 C.3    65  LYS65       0.0206
     37  CE       119.2450  112.1160   -7.6930 C.3    65  LYS65       0.1093
     38  NZ       120.1290  112.0730   -6.4970 N.3    65  LYS65      -0.1314
     39  N        121.6230  107.3740   -7.2190 N.am   66  THR66      -0.1937
     40  CA       123.0160  106.9920   -7.4540 C.3    66  THR66       0.2028
     41  C        123.2410  105.4880   -7.2720 C.2    66  THR66       0.2642
     42  O        124.0220  104.8740   -8.0020 O.2    66  THR66      -0.2714
     43  CB       123.9770  107.7610   -6.5230 C.3    66  THR66       0.1808
     44  OG1      123.8350  109.1690   -6.7420 O.3    66  THR66      -0.2208
     45  CG2      125.4150  107.3650   -6.7970 C.3    66  THR66       0.0379
     46  N        122.5480  104.8960   -6.3060 N.am   67  THR67      -0.1950
     47  CA       122.7290  103.4800   -6.0030 C.3    67  THR67       0.1897
     48  C        121.8590  102.5610   -6.8620 C.2    67  THR67       0.2313
     49  O        122.2200  101.4080   -7.0980 O.2    67  THR67      -0.2863
     50  CB       122.4300  103.1860   -4.5190 C.3    67  THR67       0.1794
     51  OG1      121.1120  103.6420   -4.1910 O.3    67  THR67      -0.2208
     52  CG2      123.4420  103.8820   -3.6240 C.3    67  THR67       0.0378
     53  N        132.3570  105.1450   -1.1580 N.3    98  SER98      -0.1202
     54  CA       131.2750  104.7040   -0.2820 C.3    98  SER98       0.2020
     55  C        130.1370  104.0520   -1.0580 C.2    98  SER98       0.2618
     56  O        129.7290  102.9260   -0.7520 O.2    98  SER98      -0.2717
     57  CB       130.7360  105.8820    0.5320 C.3    98  SER98       0.2103
     58  OG       129.5270  105.5400    1.1880 O.3    98  SER98      -0.2182
     59  N        129.6270  104.7630   -2.0620 N.am   99  VAL99      -0.1979
     60  CA       128.5310  104.2470   -2.8740 C.3    99  VAL99       0.1595
     61  C        128.9570  102.9710   -3.5970 C.2    99  VAL99       0.2287
     62  O        128.1650  102.0430   -3.7330 O.2    99  VAL99      -0.2864
     63  CB       128.0340  105.2950   -3.8920 C.3    99  VAL99       0.0276
     64  CG1      127.0850  104.6680   -4.9000 C.3    99  VAL99       0.0022
     65  CG2      127.3500  106.4440   -3.1690 C.3    99  VAL99       0.0022
     66  N        128.4940  100.3040   -1.1830 N.3   102  ARG102     -0.1245
     67  CA       127.0660  100.0640   -0.9910 C.3   102  ARG102      0.1563
     68  C        126.4740   99.1950   -2.0970 C.2   102  ARG102      0.2260
     69  O        125.8400   98.1780   -1.8240 O.2   102  ARG102     -0.2867
     70  CB       126.3080  101.3900   -0.9150 C.3   102  ARG102      0.0307
     71  CG       124.8000  101.2310   -0.8140 C.3   102  ARG102      0.0489
     72  CD       124.4160  100.3660    0.3740 C.3   102  ARG102      0.2205
     73  NE       122.9680  100.2380    0.5070 N.pl3 102  ARG102     -0.0865
     74  CZ       122.3640   99.5430    1.4640 C.cat 102  ARG102      0.5346
     75  NH1      123.0850   98.9090    2.3790 N.pl3 102  ARG102      0.1354
     76  NH2      121.0400   99.4830    1.5070 N.pl3 102  ARG102      0.1354
     77  N        124.7110   95.5640   -2.2990 N.3   106  GLU106     -0.1245
     78  CA       123.3700   95.3790   -2.8460 C.3   106  GLU106      0.1567
     79  C        123.3480   94.3220   -3.9470 C.2   106  GLU106      0.2260
     80  O        122.3520   93.6250   -4.1260 O.2   106  GLU106     -0.2867
     81  CB       122.8200   96.7010   -3.3890 C.3   106  GLU106      0.0388
     82  CG       122.6130   97.7770   -2.3350 C.3   106  GLU106      0.1160
     83  CD       121.9350   99.0160   -2.8930 C.2   106  GLU106      0.3649
     84  OE1      121.6780   99.0560   -4.1150 O.co2 106  GLU106     -0.2457
     85  OE2      121.6500   99.9460   -2.1080 O.co2 106  GLU106     -0.2457
     86  N        125.4090  114.0450  -10.0580 N.3   159  GLU159     -0.1245
     87  CA       125.6280  115.2830   -9.3100 C.3   159  GLU159      0.1567
     88  C        126.0570  116.4190  -10.2320 C.2   159  GLU159      0.2260
     89  O        126.9990  117.1540   -9.9330 O.2   159  GLU159     -0.2867
     90  CB       126.6720  115.0740   -8.2090 C.3   159  GLU159      0.0388
     91  CG       126.3790  113.9030   -7.2880 C.3   159  GLU159      0.1160
     92  CD       125.1430  114.1220   -6.4420 C.2   159  GLU159      0.3649
     93  OE1      124.9130  115.2720   -6.0150 O.co2 159  GLU159     -0.2457
     94  OE2      124.4000  113.1450   -6.2070 O.co2 159  GLU159     -0.2457
     95  N        133.0660  104.2040    5.9720 N.3   297  GLN297     -0.1245
     96  CA       132.0070  103.2290    6.1960 C.3   297  GLN297      0.1566
     97  C        131.5140  103.2150    7.6380 C.2   297  GLN297      0.2260
     98  O        130.3750  102.8320    7.9040 O.2   297  GLN297     -0.2867
     99  CB       132.4860  101.8310    5.8000 C.3   297  GLN297      0.0367
    100  CG       132.7600  101.6830    4.3160 C.3   297  GLN297      0.0905
    101  CD       131.5710  102.0950    3.4730 C.2   297  GLN297      0.2608
    102  OE1      131.6880  102.9380    2.5830 O.2   297  GLN297     -0.2717
    103  NE2      130.4160  101.5020    3.7510 N.am  297  GLN297     -0.0878
    104  N        128.0590  104.7810    8.8650 N.3   300  PHE300     -0.1241
    105  CA       126.7750  104.1350    8.6170 C.3   300  PHE300      0.1605
    106  C        126.4280  103.1230    9.7050 C.2   300  PHE300      0.2264
    107  O        125.3910  102.4610    9.6360 O.2   300  PHE300     -0.2867
    108  CB       126.7710  103.4590    7.2460 C.3   300  PHE300      0.0534
    109  CG       126.9540  104.4140    6.1010 C.ar  300  PHE300     -0.0203
    110  CD1      125.8920  105.1720    5.6350 C.ar  300  PHE300     -0.0042
    111  CD2      128.1890  104.5560    5.4930 C.ar  300  PHE300     -0.0042
    112  CE1      126.0590  106.0540    4.5830 C.ar  300  PHE300     -0.0003
    113  CE2      128.3630  105.4360    4.4410 C.ar  300  PHE300     -0.0003
    114  CZ       127.2970  106.1860    3.9860 C.ar  300  PHE300     -0.0000
    115  N        124.9270  116.9440   -0.3340 N.3   326  THR326     -0.1203
    116  CA       124.1840  116.3450   -1.4420 C.3   326  THR326      0.1994
    117  C        124.7650  115.0390   -1.9890 C.2   326  THR326      0.2619
    118  O        124.0430  114.2310   -2.5620 O.2   326  THR326     -0.2717
    119  CB       124.0390  117.3420   -2.6090 C.3   326  THR326      0.1784
    120  OG1      123.2850  118.4740   -2.1710 O.3   326  THR326     -0.2211
    121  CG2      123.3260  116.7110   -3.7910 C.3   326  THR326      0.0376
    122  N        126.0690  114.8470   -1.8360 N.am  327  SER327     -0.1937
    123  CA       126.7270  113.6540   -2.3640 C.3   327  SER327      0.2055
    124  C        126.2740  112.3310   -1.7750 C.2   327  SER327      0.2643
    125  O        126.0940  111.3670   -2.5020 O.2   327  SER327     -0.2714
    126  CB       128.2390  113.7880   -2.2530 C.3   327  SER327      0.2130
    127  OG       128.7120  114.7660   -3.1560 O.3   327  SER327     -0.2179
    128  N        126.0850  112.2780   -0.4680 N.am  328  LEU328     -0.1963
    129  CA       125.6270  111.0460    0.1690 C.3   328  LEU328      0.1728
    130  C        124.5580  111.2960    1.2310 C.2   328  LEU328      0.2616
    131  O        124.3890  112.4170    1.7100 O.2   328  LEU328     -0.2715
    132  CB       126.8100  110.2820    0.7760 C.3   328  LEU328      0.0311
    133  CG       127.6510  110.8760    1.9110 C.3   328  LEU328      0.0022
    134  CD1      127.0230  110.6400    3.2830 C.3   328  LEU328      0.0001
    135  CD2      129.0620  110.3090    1.8610 C.3   328  LEU328      0.0001
    136  N        123.8460  110.2330    1.5930 N.am  329  THR329     -0.1951
    137  CA       122.7800  110.3120    2.5840 C.3   329  THR329      0.1897
    138  C        123.0060  109.3260    3.7240 C.2   329  THR329      0.2313
    139  O        123.3410  108.1640    3.4950 O.2   329  THR329     -0.2863
    140  CB       121.3990  110.0300    1.9560 C.3   329  THR329      0.1794
    141  OG1      121.1790  110.9190    0.8560 O.3   329  THR329     -0.2208
    142  CG2      120.2930  110.2190    2.9810 C.3   329  THR329      0.0378
    143  N        121.0490  107.6120    6.9860 N.3   331  ASP331     -0.1239
    144  CA       119.7160  107.4000    7.5320 C.3   331  ASP331      0.1674
    145  C        119.6790  107.5630    9.0420 C.2   331  ASP331      0.2266
    146  O        120.6200  107.1930    9.7450 O.2   331  ASP331     -0.2867
    147  CB       119.1970  106.0190    7.1470 C.3   331  ASP331      0.1410
    148  CG       118.8580  105.9220    5.6810 C.2   331  ASP331      0.3668
    149  OD1      118.7530  106.9830    5.0310 O.co2 331  ASP331     -0.2456
    150  OD2      118.6950  104.7920    5.1760 O.co2 331  ASP331     -0.2456
    151  N        114.0240  113.7100    6.2770 N.3   375  ARG375     -0.1245
    152  CA       113.9470  112.6420    5.2930 C.3   375  ARG375      0.1563
    153  C        113.0320  111.5230    5.7800 C.2   375  ARG375      0.2260
    154  O        111.9900  111.2560    5.1810 O.2   375  ARG375     -0.2867
    155  CB       115.3370  112.0880    4.9860 C.3   375  ARG375      0.0307
    156  CG       115.3100  110.9230    4.0180 C.3   375  ARG375      0.0489
    157  CD       116.6940  110.3640    3.7610 C.3   375  ARG375      0.2205
    158  NE       116.6200  109.1190    3.0040 N.pl3 375  ARG375     -0.0865
    159  CZ       116.4820  107.9190    3.5570 C.cat 375  ARG375      0.5346
    160  NH1      116.4080  107.7990    4.8750 N.pl3 375  ARG375      0.1354
    161  NH2      116.4180  106.8370    2.7930 N.pl3 375  ARG375      0.1354
@<TRIPOS>BOND
     1    88    89    2
     2    88    87    1
     3    86    87    1
     4    33    32    2
     5    87    90    1
     6    36    35    1
     7    36    37    1
     8    35    34    1
     9    32    31    1
    10    32    39   am
    11    90    91    1
    12    34    31    1
    13    42    41    2
    14    31    30    1
    15    37    38    1
    16    40    41    1
    17    40    39    1
    18    40    43    1
    19    91    92    1
    20    41    46   am
    21    49    48    2
    22    48    47    1
    23    45    43    1
    24    44    43    1
    25    29    28    2
    26    30    28   am
    27    92    94   ar
    28    92    93   ar
    29    46    47    1
    30    28    27    1
    31    47    50    1
    32    24    25    1
    33    24    21    1
    34    64    63    1
    35    27    26    1
    36    50    51    1
    37    50    52    1
    38    23    22    2
    39    26    22   am
    40    22    21    1
    41     4     3    2
    42    80    79    2
    43    84    83   ar
    44    79    78    1
    45    63    65    1
    46    63    60    1
    47   121   119    1
    48    21    20    1
    49    62    61    2
    50    61    60    1
    51     3     2    1
    52    81    78    1
    53    81    82    1
    54   127   126    1
    55     9    10    1
    56    83    82    1
    57    83    85   ar
    58    20    18   am
    59     5     2    1
    60     5     6    1
    61    60    59    1
    62    78    77    1
    63   119   120    1
    64   119   116    1
    65   118   117    2
    66     7     6    1
    67   125   124    2
    68    14    13    1
    69   123   126    1
    70   123   122    1
    71   123   124    1
    72    10    13    1
    73    10    11    1
    74     2     1    1
    75    68    69    2
    76    68    67    1
    77    59    55   am
    78   117   122   am
    79   117   116    1
    80     6     8    1
    81   124   128   am
    82    18    19    2
    83    18    17    1
    84    16    11   am
    85    16    17    1
    86    13    15    1
    87    11    12    2
    88   116   115    1
    89    66    67    1
    90    53    54    1
    91    55    56    2
    92    55    54    1
    93    67    70    1
    94    70    71    1
    95    71    72    1
    96   128   129    1
    97    54    57    1
    98   129   132    1
    99   129   130    1
   100    72    73    1
   101    73    74    2
   102    57    58    1
   103   132   133    1
   104   141   140    1
   105   130   136   am
   106   130   131    2
   107    74    76    1
   108    74    75    1
   109   136   137    1
   110   135   133    1
   111   133   134    1
   112   140   137    1
   113   140   142    1
   114   102   101    2
   115   137   138    1
   116   161   159    1
   117   158   159    2
   118   158   157    1
   119   101   103   am
   120   101   100    1
   121   139   138    2
   122   159   160    1
   123   157   156    1
   124   114   113   ar
   125   114   112   ar
   126   156   155    1
   127   100    99    1
   128   113   111   ar
   129   112   110   ar
   130   155   152    1
   131   149   148   ar
   132   150   148   ar
   133   154   153    2
   134   152   153    1
   135   152   151    1
   136   111   109   ar
   137   110   109   ar
   138   148   147    1
   139    99    96    1
   140    95    96    1
   141   109   108    1
   142    96    97    1
   143   143   144    1
   144   147   144    1
   145   108   105    1
   146   144   145    1
   147    97    98    2
   148   105   104    1
   149   105   106    1
   150   145   146    2
   151   107   106    2
