@<TRIPOS>MOLECULE
tmp/5d0yB00.pdb
 232 222 0 0 0
SMALL
GASTEIGER

@<TRIPOS>ATOM
      1  N        -42.0580    4.3750    6.0620 N.3    21  LYS21      -0.1245
      2  CA       -40.7040    3.8570    6.1500 C.3    21  LYS21       0.1561
      3  C        -40.1560    3.5880    4.7680 C.2    21  LYS21       0.2260
      4  O        -40.9060    3.3370    3.8280 O.2    21  LYS21      -0.2867
      5  CB       -40.6430    2.5830    7.0260 C.3    21  LYS21       0.0271
      6  CG       -41.7280    1.5560    6.7440 C.3    21  LYS21       0.0035
      7  CD       -41.5010    0.2660    7.4880 C.3    21  LYS21       0.0206
      8  CE       -42.7610   -0.5430    7.5100 C.3    21  LYS21       0.1093
      9  NZ       -42.6670   -1.7300    8.4120 N.3    21  LYS21      -0.1314
     10  N        -35.5300   -5.8720    3.4790 N.3    25  ALA25      -0.1231
     11  CA       -35.8400   -6.9230    4.4560 C.3    25  ALA25       0.1694
     12  C        -34.7850   -6.8990    5.5280 C.2    25  ALA25       0.2593
     13  O        -34.9550   -7.4730    6.5840 O.2    25  ALA25      -0.2718
     14  CB       -35.9050   -8.2810    3.8100 C.3    25  ALA25       0.0304
     15  N        -33.6630   -6.2720    5.1910 N.am   26  THR26      -0.1939
     16  CA       -32.6240   -5.8200    6.1110 C.3    26  THR26       0.2028
     17  C        -33.0200   -4.3960    6.4250 C.2    26  THR26       0.2642
     18  O        -34.1550   -4.0440    6.1430 O.2    26  THR26      -0.2714
     19  CB       -31.2560   -5.9160    5.4950 C.3    26  THR26       0.1808
     20  OG1      -31.1950   -7.1320    4.7370 O.3    26  THR26      -0.2208
     21  CG2      -30.1760   -5.9320    6.5860 C.3    26  THR26       0.0379
     22  N        -32.1390   -3.5590    6.9600 N.am   27  LEU27      -0.1963
     23  CA       -32.5740   -2.3260    7.6400 C.3    27  LEU27       0.1728
     24  C        -33.6920   -1.4730    6.9650 C.2    27  LEU27       0.2616
     25  O        -33.8190   -1.3880    5.7410 O.2    27  LEU27      -0.2715
     26  CB       -31.3460   -1.4300    7.9000 C.3    27  LEU27       0.0311
     27  CG       -30.7360   -0.5170    6.8390 C.3    27  LEU27       0.0022
     28  CD1      -31.1250    0.9280    7.0500 C.3    27  LEU27       0.0001
     29  CD2      -29.2530   -0.6160    6.8920 C.3    27  LEU27       0.0001
     30  N        -34.5540   -0.9330    7.8240 N.am   28  GLN28      -0.1963
     31  CA       -35.6180   -0.0210    7.4370 C.3    28  GLN28       0.1733
     32  C        -35.5130    1.2300    8.2890 C.2    28  GLN28       0.2616
     33  O        -35.0020    1.1800    9.3960 O.2    28  GLN28      -0.2715
     34  CB       -36.9950   -0.6450    7.6300 C.3    28  GLN28       0.0408
     35  CG       -37.2830   -1.8730    6.8330 C.3    28  GLN28       0.0908
     36  CD       -38.5470   -2.5230    7.3000 C.2    28  GLN28       0.2608
     37  OE1      -39.2650   -1.9670    8.1310 O.2    28  GLN28      -0.2717
     38  NE2      -38.8340   -3.7070    6.7800 N.am   28  GLN28      -0.0878
     39  N        -36.0290    2.3370    7.7680 N.am   29  VAL29      -0.1963
     40  CA       -35.9340    3.6460    8.3870 C.3    29  VAL29       0.1730
     41  C        -37.3130    4.2450    8.3800 C.2    29  VAL29       0.2655
     42  O        -37.8850    4.4120    7.3150 O.2    29  VAL29      -0.2711
     43  CB       -34.9530    4.5730    7.6060 C.3    29  VAL29       0.0290
     44  CG1      -34.8280    5.9230    8.2700 C.3    29  VAL29       0.0023
     45  CG2      -33.5830    3.9280    7.4900 C.3    29  VAL29       0.0023
     46  N        -37.8620    4.5660    9.5450 N.am   30  GLY30      -0.1730
     47  CA       -39.1930    5.1400    9.5740 C.2    30  GLY30       0.1340
     48  C        -39.6110    5.8510   10.8440 C.2    30  GLY30       0.2521
     49  O        -38.8120    6.0320   11.7570 O.2    30  GLY30      -0.2816
     50  N        -41.8890    4.9120   13.0820 N.3    32  GLY32      -0.1210
     51  CA       -42.4130    4.0730   14.1370 C.3    32  GLY32       0.1956
     52  C        -41.8920    4.4360   15.5190 C.2    32  GLY32       0.2611
     53  O        -42.6070    4.3180   16.5060 O.2    32  GLY32      -0.2717
     54  N        -40.6430    4.8720   15.6020 N.am   33  PHE33      -0.1976
     55  CA       -40.0690    5.1790   16.8940 C.3    33  PHE33       0.1639
     56  C        -40.9150    6.2220   17.6020 C.2    33  PHE33       0.2290
     57  O        -41.0300    6.2050   18.8160 O.2    33  PHE33      -0.2864
     58  CB       -38.6390    5.6830   16.7420 C.3    33  PHE33       0.0560
     59  CG       -38.5580    7.0490   16.1580 C.ar   33  PHE33      -0.0200
     60  CD1      -38.6370    7.2230   14.7930 C.ar   33  PHE33      -0.0042
     61  CD2      -38.4370    8.1650   16.9800 C.ar   33  PHE33      -0.0042
     62  CE1      -38.5930    8.4750   14.2500 C.ar   33  PHE33      -0.0003
     63  CE2      -38.3840    9.4250   16.4480 C.ar   33  PHE33      -0.0003
     64  CZ       -38.4590    9.5810   15.0780 C.ar   33  PHE33      -0.0000
     65  N        -47.2150   -4.2130   17.4470 N.3    56  ASP56      -0.1239
     66  CA       -46.5080   -4.9710   16.4290 C.3    56  ASP56       0.1674
     67  C        -47.4130   -6.0570   15.8600 C.2    56  ASP56       0.2266
     68  O        -47.4770   -6.2220   14.6570 O.2    56  ASP56      -0.2867
     69  CB       -45.2260   -5.5860   16.9790 C.3    56  ASP56       0.1410
     70  CG       -44.4430   -6.3310   15.9220 C.2    56  ASP56       0.3668
     71  OD1      -43.7650   -5.6610   15.1070 O.co2  56  ASP56      -0.2456
     72  OD2      -44.5110   -7.5810   15.9070 O.co2  56  ASP56      -0.2456
     73  N        -48.6190   -6.0850   12.0210 N.3    60  SER60      -0.1217
     74  CA       -48.3080   -7.2790   11.2600 C.3    60  SER60       0.1889
     75  C        -49.5780   -7.7970   10.6240 C.2    60  SER60       0.2288
     76  O        -49.6240   -8.0550    9.4410 O.2    60  SER60      -0.2866
     77  CB       -47.6960   -8.3510   12.1570 C.3    60  SER60       0.2089
     78  OG       -46.3910   -8.0340   12.6150 O.3    60  SER60      -0.2183
     79  N        -45.3440   -8.0340    7.1800 N.3    65  ASN65      -0.1225
     80  CA       -43.9450   -7.7010    7.2220 C.3    65  ASN65       0.1785
     81  C        -43.1740   -8.2920    6.0440 C.2    65  ASN65       0.2597
     82  O        -43.5080   -9.3610    5.5360 O.2    65  ASN65      -0.2718
     83  CB       -43.3630   -8.1820    8.5360 C.3    65  ASN65       0.1169
     84  CG       -44.1630   -7.7190    9.7080 C.2    65  ASN65       0.2627
     85  OD1      -44.4280   -8.4820   10.6280 O.2    65  ASN65      -0.2716
     86  ND2      -44.5700   -6.4660    9.6830 N.am   65  ASN65      -0.0877
     87  N        -42.1500   -7.5740    5.5980 N.am   66  LEU66      -0.1966
     88  CA       -41.3240   -8.0750    4.5250 C.3    66  LEU66       0.1728
     89  C        -40.6260   -9.3400    4.9750 C.2    66  LEU66       0.2617
     90  O        -39.8630   -9.3320    5.9410 O.2    66  LEU66      -0.2715
     91  CB       -40.3110   -7.0190    4.1040 C.3    66  LEU66       0.0311
     92  CG       -40.7690   -6.2680    2.8510 C.3    66  LEU66       0.0022
     93  CD1      -39.9780   -5.0060    2.5810 C.3    66  LEU66       0.0001
     94  CD2      -40.6200   -7.1850    1.7020 C.3    66  LEU66       0.0001
     95  N        -40.8680  -10.4270    4.2550 N.am   67  GLY67      -0.1940
     96  CA       -40.2850  -11.7080    4.5990 C.3    67  GLY67       0.2014
     97  C        -41.0620  -12.4750    5.6420 C.2    67  GLY67       0.2639
     98  O        -40.6550  -13.5530    6.0400 O.2    67  GLY67      -0.2714
     99  N        -42.1740  -11.9210    6.1020 N.am   68  GLY68      -0.1939
    100  CA       -43.0410  -12.6410    7.0010 C.3    68  GLY68       0.2014
    101  C        -42.8420  -12.2800    8.4440 C.2    68  GLY68       0.2639
    102  O        -41.8620  -11.6400    8.7980 O.2    68  GLY68      -0.2714
    103  N        -43.7950  -12.6990    9.2700 N.am   69  PHE69      -0.1959
    104  CA       -43.7990  -12.4560   10.7150 C.3    69  PHE69       0.1771
    105  C        -42.6000  -13.1340   11.3410 C.2    69  PHE69       0.2619
    106  O        -42.2130  -14.2290   10.9240 O.2    69  PHE69      -0.2715
    107  CB       -45.1020  -12.9820   11.3070 C.3    69  PHE69       0.0574
    108  CG       -45.2430  -12.8080   12.7840 C.ar   69  PHE69      -0.0200
    109  CD1      -45.8400  -11.6600   13.3070 C.ar   69  PHE69      -0.0042
    110  CD2      -44.8540  -13.8180   13.6570 C.ar   69  PHE69      -0.0042
    111  CE1      -46.0020  -11.5010   14.6940 C.ar   69  PHE69      -0.0003
    112  CE2      -45.0020  -13.6670   15.0300 C.ar   69  PHE69      -0.0003
    113  CZ       -45.5790  -12.5070   15.5530 C.ar   69  PHE69      -0.0000
    114  N        -41.9650  -12.4430   12.2810 N.am   70  PHE70      -0.1974
    115  CA       -40.9230  -13.0440   13.1010 C.3    70  PHE70       0.1639
    116  C        -41.0950  -12.5690   14.5180 C.2    70  PHE70       0.2290
    117  O        -41.0690  -11.3720   14.7880 O.2    70  PHE70      -0.2864
    118  CB       -39.5410  -12.6930   12.5850 C.3    70  PHE70       0.0560
    119  CG       -38.4340  -13.2970   13.3790 C.ar   70  PHE70      -0.0200
    120  CD1      -38.1940  -14.6400   13.3220 C.ar   70  PHE70      -0.0042
    121  CD2      -37.6220  -12.5150   14.1690 C.ar   70  PHE70      -0.0042
    122  CE1      -37.1900  -15.1980   14.0480 C.ar   70  PHE70      -0.0003
    123  CE2      -36.5940  -13.0760   14.9040 C.ar   70  PHE70      -0.0003
    124  CZ       -36.3800  -14.4180   14.8390 C.ar   70  PHE70      -0.0000
    125  N        -39.0100   -9.5120   16.1650 N.3    73  PHE73      -0.1227
    126  CA       -39.2460   -8.0800   15.9690 C.3    73  PHE73       0.1736
    127  C        -40.3290   -7.5800   16.9170 C.2    73  PHE73       0.2596
    128  O        -40.4250   -6.3900   17.2080 O.2    73  PHE73      -0.2718
    129  CB       -39.6240   -7.7820   14.5090 C.3    73  PHE73       0.0547
    130  CG       -38.4780   -7.9390   13.5550 C.ar   73  PHE73      -0.0202
    131  CD1      -38.2380   -9.1560   12.9320 C.ar   73  PHE73      -0.0042
    132  CD2      -37.6020   -6.8750   13.3180 C.ar   73  PHE73      -0.0042
    133  CE1      -37.1620   -9.3080   12.0700 C.ar   73  PHE73      -0.0003
    134  CE2      -36.5180   -7.0100   12.4560 C.ar   73  PHE73      -0.0003
    135  CZ       -36.2920   -8.2270   11.8290 C.ar   73  PHE73      -0.0000
    136  N        -41.1420   -8.5150   17.3860 N.am   74  THR74      -0.1953
    137  CA       -42.1890   -8.2160   18.3340 C.3    74  THR74       0.1897
    138  C        -41.5470   -7.8770   19.6690 C.2    74  THR74       0.2313
    139  O        -41.9440   -6.9380   20.3400 O.2    74  THR74      -0.2863
    140  CB       -43.1710   -9.4050   18.4920 C.3    74  THR74       0.1794
    141  OG1      -43.7320   -9.7490   17.2110 O.3    74  THR74      -0.2208
    142  CG2      -44.2950   -9.0660   19.4890 C.3    74  THR74       0.0378
    143  N        -38.2190   -1.6320   22.9480 N.3    80  GLU80      -0.1245
    144  CA       -38.1070   -0.2800   22.4240 C.3    80  GLU80       0.1567
    145  C        -39.0390    0.6530   23.2100 C.2    80  GLU80       0.2260
    146  O        -38.6120    1.6400   23.7680 O.2    80  GLU80      -0.2867
    147  CB       -38.4320   -0.2920   20.9220 C.3    80  GLU80       0.0388
    148  CG       -38.3200    1.0060   20.1670 C.3    80  GLU80       0.1160
    149  CD       -38.7640    0.8470   18.7100 C.2    80  GLU80       0.3649
    150  OE1      -38.3310    1.6560   17.8530 O.co2  80  GLU80      -0.2457
    151  OE2      -39.5490   -0.0870   18.4150 O.co2  80  GLU80      -0.2457
    152  N        -31.7900   -1.9330   18.2170 N.3   110  TYR110     -0.1241
    153  CA       -31.4740   -1.8020   16.8020 C.3   110  TYR110      0.1605
    154  C        -30.1620   -2.5160   16.4960 C.2   110  TYR110      0.2264
    155  O        -30.1120   -3.4530   15.7050 O.2   110  TYR110     -0.2867
    156  CB       -31.3950   -0.3380   16.3850 C.3   110  TYR110      0.0534
    157  CG       -32.6470    0.4870   16.6440 C.ar  110  TYR110     -0.0201
    158  CD1      -33.8980   -0.0910   16.7150 C.ar  110  TYR110     -0.0009
    159  CD2      -32.5640    1.8540   16.8100 C.ar  110  TYR110     -0.0009
    160  CE1      -35.0180    0.6630   16.9510 C.ar  110  TYR110      0.0417
    161  CE2      -33.6780    2.6140   17.0460 C.ar  110  TYR110      0.0417
    162  CZ       -34.9080    2.0140   17.1160 C.ar  110  TYR110      0.1957
    163  OH       -36.0280    2.7910   17.3490 O.3   110  TYR110     -0.2866
    164  N        -32.4330   -6.3720   16.5040 N.3   114  ASN114     -0.1240
    165  CA       -32.8360   -6.3790   15.1190 C.3   114  ASN114      0.1653
    166  C        -31.7590   -6.8640   14.1560 C.2   114  ASN114      0.2266
    167  O        -32.0740   -7.4690   13.1350 O.2   114  ASN114     -0.2867
    168  CB       -33.3060   -4.9940   14.7470 C.3   114  ASN114      0.1155
    169  CG       -34.7460   -4.8080   15.0680 C.2   114  ASN114      0.2627
    170  OD1      -35.2920   -5.5440   15.8680 O.2   114  ASN114     -0.2716
    171  ND2      -35.3920   -3.8580   14.4230 N.am  114  ASN114     -0.0877
    172  N        -32.2910  -10.0920   11.8520 N.3   118  VAL118     -0.1245
    173  CA       -31.9400   -9.9960   10.4420 C.3   118  VAL118      0.1561
    174  C        -30.8860  -11.0250   10.0650 C.2   118  VAL118      0.2260
    175  O        -31.0190  -11.7400    9.0760 O.2   118  VAL118     -0.2867
    176  CB       -31.4220   -8.6180   10.1110 C.3   118  VAL118      0.0252
    177  CG1      -30.6350   -8.6650    8.8410 C.3   118  VAL118      0.0019
    178  CG2      -32.5770   -7.6470   10.0020 C.3   118  VAL118      0.0019
    179  N        -32.7620  -14.2130   10.0530 N.3   121  LEU121     -0.1245
    180  CA       -33.6750  -14.3220    8.9160 C.3   121  LEU121      0.1561
    181  C        -32.8930  -14.5610    7.6260 C.2   121  LEU121      0.2260
    182  O        -33.1270  -15.5650    6.9620 O.2   121  LEU121     -0.2867
    183  CB       -34.5660  -13.0820    8.8040 C.3   121  LEU121      0.0270
    184  CG       -35.5330  -12.9310    9.9740 C.3   121  LEU121      0.0019
    185  CD1      -36.5310  -11.8440    9.7050 C.3   121  LEU121      0.0001
    186  CD2      -36.2480  -14.2400   10.2430 C.3   121  LEU121      0.0001
    187  N        -25.7470   -2.6640    8.3410 N.3   133  ARG133     -0.1245
    188  CA       -26.6310   -1.7680    9.0750 C.3   133  ARG133      0.1563
    189  C        -26.0030   -0.6620    9.9150 C.2   133  ARG133      0.2260
    190  O        -26.7230    0.2160   10.3760 O.2   133  ARG133     -0.2867
    191  CB       -27.5260   -2.6060   10.0030 C.3   133  ARG133      0.0307
    192  CG       -28.0480   -3.8950    9.3760 C.3   133  ARG133      0.0489
    193  CD       -28.9510   -4.6570   10.3090 C.3   133  ARG133      0.2205
    194  NE       -30.1520   -3.9000   10.6370 N.pl3 133  ARG133     -0.0865
    195  CZ       -30.5000   -3.6000   11.8780 C.cat 133  ARG133      0.5346
    196  NH1      -29.7390   -4.0040   12.8710 N.pl3 133  ARG133      0.1354
    197  NH2      -31.5930   -2.9070   12.1310 N.pl3 133  ARG133      0.1354
    198  N        -26.5310    3.3400    9.4040 N.3   136  LYS136     -0.1231
    199  CA       -27.8160    3.8840    9.8160 C.3   136  LYS136      0.1693
    200  C        -27.8330    4.1820   11.3130 C.2   136  LYS136      0.2591
    201  O        -28.3350    5.2250   11.7490 O.2   136  LYS136     -0.2718
    202  CB       -28.9580    2.9340    9.4880 C.3   136  LYS136      0.0285
    203  CG       -30.2980    3.5050    9.9490 C.3   136  LYS136      0.0035
    204  CD       -31.1600    2.4910   10.6900 C.3   136  LYS136      0.0206
    205  CE       -32.3270    3.1860   11.4090 C.3   136  LYS136      0.1093
    206  NZ       -32.2700    3.0000   12.8790 N.3   136  LYS136     -0.1314
    207  N        -27.2750    3.2520   12.0880 N.am  137  GLU137     -0.1979
    208  CA       -27.4020    3.2830   13.5300 C.3   137  GLU137      0.1602
    209  C        -26.4540    4.3120   14.1120 C.2   137  GLU137      0.2287
    210  O        -26.6000    4.7160   15.2580 O.2   137  GLU137     -0.2864
    211  CB       -27.1450    1.8970   14.1180 C.3   137  GLU137      0.0415
    212  CG       -27.7960    0.7530   13.3380 C.3   137  GLU137      0.1163
    213  CD       -29.3170    0.6960   13.4780 C.2   137  GLU137      0.3649
    214  OE1      -29.8740   -0.4200   13.4120 O.co2 137  GLU137     -0.2457
    215  OE2      -29.9670    1.7470   13.6520 O.co2 137  GLU137     -0.2457
    216  N        -28.9010    8.0530   12.2850 N.3   140  THR140     -0.1218
    217  CA       -30.2270    8.3440   12.8190 C.3   140  THR140      0.1862
    218  C        -30.3440    8.7930   14.3050 C.2   140  THR140      0.2287
    219  O        -31.1650    9.6620   14.5790 O.2   140  THR140     -0.2866
    220  CB       -31.1630    7.1420   12.6090 C.3   140  THR140      0.1770
    221  OG1      -30.6230    5.9890   13.2590 O.3   140  THR140     -0.2211
    222  CG2      -31.2940    6.8590   11.1370 C.3   140  THR140      0.0375
    223  N        -33.2940   10.9910   15.8560 N.3   144  HIS144     -0.1241
    224  CA       -34.2520   10.4380   16.8000 C.3   144  HIS144      0.1621
    225  C        -34.3510   11.3500   17.9970 C.2   144  HIS144      0.2264
    226  O        -35.4380   11.6670   18.4500 O.2   144  HIS144     -0.2867
    227  CB       -33.8620    9.0250   17.2290 C.3   144  HIS144      0.0745
    228  CG       -34.3460    7.9620   16.2930 C.ar  144  HIS144      0.0817
    229  ND1      -34.1740    6.6170   16.5430 N.ar  144  HIS144     -0.2268
    230  CD2      -35.0120    8.0450   15.1160 C.ar  144  HIS144      0.1154
    231  CE1      -34.7190    5.9170   15.5620 C.ar  144  HIS144      0.1986
    232  NE2      -35.2370    6.7590   14.6840 N.ar  144  HIS144     -0.2212
@<TRIPOS>BOND
     1    94    92    1
     2    93    92    1
     3    92    91    1
     4    10    11    1
     5    14    11    1
     6     4     3    2
     7    91    88    1
     8    95    96    1
     9    95    89   am
    10    11    12    1
    11    88    89    1
    12    88    87    1
    13    96    97    1
    14    20    19    1
    15     3     2    1
    16    89    90    2
    17    15    12   am
    18    15    16    1
    19    19    16    1
    20    19    21    1
    21    12    13    2
    22    82    81    2
    23    87    81   am
    24    97    98    2
    25    97    99   am
    26    25    24    2
    27    81    80    1
    28     1     2    1
    29    99   100    1
    30    16    17    1
    31    18    17    2
    32     2     5    1
    33    17    22   am
    34     6     5    1
    35     6     7    1
    36    38    36   am
    37    35    36    1
    38    35    34    1
    39    27    29    1
    40    27    28    1
    41    27    26    1
    42    22    23    1
    43   182   181    2
    44    24    23    1
    45    24    30   am
    46   100   101    1
    47    79    80    1
    48    80    83    1
    49    36    37    2
    50    42    41    2
    51    31    34    1
    52    31    30    1
    53    31    32    1
    54     7     8    1
    55    45    43    1
    56     8     9    1
    57    43    44    1
    58    43    40    1
    59   181   180    1
    60    23    26    1
    61    39    32   am
    62    39    40    1
    63    32    33    2
    64   187   188    1
    65    41    40    1
    66    41    46    1
    67   101   102    2
    68   101   103   am
    69    83    84    1
    70   183   180    1
    71   183   184    1
    72   177   176    1
    73   180   179    1
    74   188   189    1
    75   188   191    1
    76   175   174    2
    77   103   104    1
    78   192   191    1
    79   192   193    1
    80   198   199    1
    81    76    75    2
    82   202   199    1
    83   202   203    1
    84    46    47    2
    85    47    48    1
    86    86    84   am
    87   185   184    1
    88    84    85    2
    89   199   200    1
    90   189   190    2
    91   203   204    1
    92   184   186    1
    93   178   176    1
    94   174   173    1
    95   176   173    1
    96   193   194    1
    97   173   172    1
    98    75    74    1
    99   194   195    2
   100   204   205    1
   101   104   107    1
   102   104   105    1
   103    48    49    2
   104   106   105    2
   105   222   220    1
   106    74    73    1
   107    74    77    1
   108   107   108    1
   109   200   201    2
   110   200   207   am
   111   105   114   am
   112   205   206    1
   113   135   133   ar
   114   135   134   ar
   115   195   197    1
   116   195   196    1
   117   133   131   ar
   118   207   208    1
   119    77    78    1
   120   114   115    1
   121   216   217    1
   122   134   132   ar
   123   118   115    1
   124   118   119    1
   125   220   217    1
   126   220   221    1
   127   108   109   ar
   128   108   110   ar
   129   217   218    1
   130   131   130   ar
   131    50    51    1
   132   115   116    1
   133   167   166    2
   134   109   111   ar
   135   132   130   ar
   136   120   119   ar
   137   120   122   ar
   138   212   213    1
   139   212   211    1
   140   119   121   ar
   141   214   213   ar
   142   213   215   ar
   143   208   209    1
   144   208   211    1
   145   130   129    1
   146   110   112   ar
   147   122   124   ar
   148   209   210    2
   149    51    52    1
   150   166   165    1
   151   121   123   ar
   152    62    60   ar
   153    62    64   ar
   154   218   219    2
   155   171   169   am
   156   129   126    1
   157   116   117    2
   158    68    67    2
   159   232   230   ar
   160   232   231   ar
   161   111   113   ar
   162   168   169    1
   163   168   165    1
   164    60    59   ar
   165   124   123   ar
   166   112   113   ar
   167   169   170    2
   168    64    63   ar
   169    71    70   ar
   170   230   228   ar
   171   165   164    1
   172    52    54   am
   173    52    53    2
   174   231   229   ar
   175    54    55    1
   176   155   154    2
   177   223   224    1
   178    67    66    1
   179    72    70   ar
   180    70    69    1
   181   126   125    1
   182   126   127    1
   183    59    58    1
   184    59    61   ar
   185   228   229   ar
   186   228   227    1
   187   156   157    1
   188   156   153    1
   189    66    69    1
   190    66    65    1
   191    63    61   ar
   192   154   153    1
   193   157   158   ar
   194   157   159   ar
   195   158   160   ar
   196    58    55    1
   197   224   227    1
   198   224   225    1
   199   153   152    1
   200   159   161   ar
   201    55    56    1
   202   127   128    2
   203   127   136   am
   204   160   162   ar
   205   161   162   ar
   206   162   163    1
   207   141   140    1
   208   136   137    1
   209    56    57    2
   210   150   149   ar
   211   225   226    2
   212   137   140    1
   213   137   138    1
   214   151   149   ar
   215   140   142    1
   216   149   148    1
   217   138   139    2
   218   148   147    1
   219   147   144    1
   220   144   143    1
   221   144   145    1
   222   145   146    2
