@<TRIPOS>MOLECULE
tmp/5d10A00.pdb
 149 140 0 0 0
SMALL
GASTEIGER

@<TRIPOS>ATOM
      1  N        -10.8820  -45.0700    8.8200 N.3    16  LEU16      -0.1231
      2  CA       -10.7160  -44.3660    7.5260 C.3    16  LEU16       0.1693
      3  C         -9.3410  -44.6080    6.8770 C.2    16  LEU16       0.2593
      4  O         -9.2610  -45.0950    5.7410 O.2    16  LEU16      -0.2718
      5  CB       -10.9700  -42.8550    7.7060 C.3    16  LEU16       0.0284
      6  CG       -12.3880  -42.4530    8.1650 C.3    16  LEU16       0.0019
      7  CD1      -12.4420  -41.0020    8.5930 C.3    16  LEU16       0.0001
      8  CD2      -13.4400  -42.7040    7.0910 C.3    16  LEU16       0.0001
      9  N         -8.2750  -44.2560    7.5970 N.am   17  GLY17      -0.1942
     10  CA        -6.8900  -44.4470    7.1390 C.3    17  GLY17       0.2014
     11  C         -6.3420  -45.7680    7.6510 C.2    17  GLY17       0.2638
     12  O         -7.1110  -46.6880    7.9490 O.2    17  GLY17      -0.2714
     13  N         -5.0190  -45.8640    7.7590 N.am   18  GLN18      -0.1977
     14  CA        -4.3600  -47.0770    8.2520 C.3    18  GLN18       0.1601
     15  C         -2.9390  -46.7800    8.7210 C.2    18  GLN18       0.2287
     16  O         -2.3280  -45.7900    8.3110 O.2    18  GLN18      -0.2864
     17  CB        -4.3400  -48.1600    7.1630 C.3    18  GLN18       0.0394
     18  CG        -3.7320  -49.4900    7.6060 C.3    18  GLN18       0.0908
     19  CD        -4.5360  -50.1710    8.7050 C.2    18  GLN18       0.2608
     20  OE1       -5.7680  -50.1440    8.6990 O.2    18  GLN18      -0.2717
     21  NE2       -3.8370  -50.7780    9.6570 N.am   18  GLN18      -0.0878
     22  N         -3.6390  -44.9850   12.3670 N.3    19  GLU19      -0.1231
     23  CA        -5.0010  -44.9710   11.8350 C.3    19  GLU19       0.1699
     24  C         -5.6150  -43.5650   11.8360 C.2    19  GLU19       0.2592
     25  O         -4.9790  -42.5970   12.2430 O.2    19  GLU19      -0.2718
     26  CB        -5.8980  -45.9400   12.6240 C.3    19  GLU19       0.0402
     27  CG        -5.2200  -47.2400   13.0530 C.3    19  GLU19       0.1161
     28  CD        -6.1930  -48.3200   13.5300 C.2    19  GLU19       0.3649
     29  OE1       -7.4290  -48.1350   13.4310 O.co2  19  GLU19      -0.2457
     30  OE2       -5.7140  -49.3780   14.0030 O.co2  19  GLU19      -0.2457
     31  N         -6.8470  -43.4700   11.3430 N.am   20  VAL20      -0.1980
     32  CA        -7.6440  -42.2360   11.3790 C.3    20  VAL20       0.1595
     33  C         -9.1090  -42.6300   11.4810 C.2    20  VAL20       0.2287
     34  O         -9.5440  -43.4890   10.7400 O.2    20  VAL20      -0.2864
     35  CB        -7.4330  -41.3810   10.1030 C.3    20  VAL20       0.0276
     36  CG1       -8.5130  -40.3090    9.9540 C.3    20  VAL20       0.0022
     37  CG2       -6.0510  -40.7330   10.0960 C.3    20  VAL20       0.0022
     38  N        -12.5090  -35.6420   13.3280 N.3    32  ALA32      -0.1245
     39  CA       -11.5990  -36.5970   12.6990 C.3    32  ALA32       0.1562
     40  C        -10.4650  -36.8580   13.6800 C.2    32  ALA32       0.2260
     41  O         -9.7820  -35.9220   14.1200 O.2    32  ALA32      -0.2867
     42  CB       -11.0480  -36.0480   11.3930 C.3    32  ALA32       0.0290
     43  N         -7.0380  -38.5430   14.4440 N.3    34  LYS34      -0.1245
     44  CA        -5.7820  -39.0870   13.9680 C.3    34  LYS34       0.1561
     45  C         -5.0720  -39.6750   15.1700 C.2    34  LYS34       0.2260
     46  O         -4.4510  -38.9560   15.9560 O.2    34  LYS34      -0.2867
     47  CB        -4.9300  -38.0020   13.3140 C.3    34  LYS34       0.0271
     48  CG        -3.9050  -38.6030   12.4690 C.3    34  LYS34       0.0035
     49  CD        -3.0040  -37.5610   11.8010 C.3    34  LYS34       0.0206
     50  CE        -3.8030  -36.5690   10.9700 C.3    34  LYS34       0.1093
     51  NZ        -2.9570  -35.5890   10.2610 N.3    34  LYS34      -0.1314
     52  N         -7.1150  -27.2130    7.1160 N.3    58  VAL58      -0.1245
     53  CA        -7.7560  -28.1110    8.0910 C.3    58  VAL58       0.1561
     54  C         -7.3380  -27.7450    9.5270 C.2    58  VAL58       0.2260
     55  O         -6.1570  -27.4710    9.7870 O.2    58  VAL58      -0.2867
     56  CB        -7.4330  -29.5890    7.8030 C.3    58  VAL58       0.0252
     57  CG1       -8.1430  -30.4920    8.7960 C.3    58  VAL58       0.0019
     58  CG2       -7.8900  -29.9880    6.4130 C.3    58  VAL58       0.0019
     59  N         -9.3900  -33.3180   15.0100 N.3    73  MET73      -0.1230
     60  CA        -9.4210  -32.3070   13.9670 C.3    73  MET73       0.1702
     61  C        -10.7790  -32.1770   13.3400 C.2    73  MET73       0.2592
     62  O        -11.6370  -33.0490   13.4890 O.2    73  MET73      -0.2718
     63  CB        -8.4250  -32.6610   12.8580 C.3    73  MET73       0.0401
     64  CG        -6.9950  -32.3210   13.1990 C.3    73  MET73       0.0596
     65  SD        -5.8380  -33.2140   12.1730 S.3    73  MET73      -0.1393
     66  CE        -5.9900  -32.3180   10.6310 C.3    73  MET73       0.0692
     67  N        -10.9330  -31.0700   12.6200 N.am   74  GLU74      -0.1966
     68  CA       -12.0140  -30.8490   11.6660 C.3    74  GLU74       0.1733
     69  C        -12.2500  -32.0770   10.7730 C.2    74  GLU74       0.2616
     70  O        -11.2860  -32.6670   10.2740 O.2    74  GLU74      -0.2715
     71  CB       -11.6140  -29.6630   10.7960 C.3    74  GLU74       0.0429
     72  CG       -12.5650  -29.3110    9.6650 C.3    74  GLU74       0.1163
     73  CD       -12.3350  -27.9100    9.1390 C.2    74  GLU74       0.3649
     74  OE1      -11.2540  -27.3180    9.4040 O.co2  74  GLU74      -0.2457
     75  OE2      -13.2500  -27.3970    8.4720 O.co2  74  GLU74      -0.2457
     76  N        -13.5210  -32.4570   10.6100 N.am   75  TYR75      -0.1960
     77  CA       -13.9420  -33.5940    9.7780 C.3    75  TYR75       0.1771
     78  C        -14.4150  -33.0740    8.4370 C.2    75  TYR75       0.2619
     79  O        -15.1810  -32.1260    8.3810 O.2    75  TYR75      -0.2715
     80  CB       -15.0970  -34.3630   10.4220 C.3    75  TYR75       0.0574
     81  CG       -15.7280  -35.4060    9.5020 C.ar   75  TYR75      -0.0198
     82  CD1      -15.0030  -36.5250    9.0880 C.ar   75  TYR75      -0.0009
     83  CD2      -17.0510  -35.2800    9.0560 C.ar   75  TYR75      -0.0009
     84  CE1      -15.5630  -37.4810    8.2480 C.ar   75  TYR75       0.0417
     85  CE2      -17.6260  -36.2390    8.2200 C.ar   75  TYR75       0.0417
     86  CZ       -16.8750  -37.3350    7.8160 C.ar   75  TYR75       0.1957
     87  OH       -17.4160  -38.2920    6.9740 O.3    75  TYR75      -0.2866
     88  N        -14.0070  -33.7420    7.3650 N.am   76  MET76      -0.1963
     89  CA       -14.2570  -33.2810    6.0130 C.3    76  MET76       0.1736
     90  C        -15.1810  -34.3080    5.4030 C.2    76  MET76       0.2617
     91  O        -14.8950  -35.5120    5.3380 O.2    76  MET76      -0.2715
     92  CB       -12.9750  -33.0960    5.2220 C.3    76  MET76       0.0427
     93  CG       -12.0410  -32.0390    5.8030 C.3    76  MET76       0.0599
     94  SD       -12.7450  -30.4230    6.2320 S.3    76  MET76      -0.1393
     95  CE       -13.5450  -29.8790    4.7240 C.3    76  MET76       0.0692
     96  N        -16.3300  -33.7970    5.0130 N.am   77  SER77      -0.1936
     97  CA       -17.4760  -34.5980    4.6500 C.3    77  SER77       0.2055
     98  C        -17.1070  -35.7000    3.6570 C.2    77  SER77       0.2643
     99  O        -17.3800  -36.8830    3.8780 O.2    77  SER77      -0.2714
    100  CB       -18.5210  -33.6760    4.0110 C.3    77  SER77       0.2130
    101  OG       -19.7790  -33.9550    4.5390 O.3    77  SER77      -0.2179
    102  N        -16.4340  -35.2560    2.5900 N.am   78  LYS78      -0.1963
    103  CA       -16.3470  -35.9470    1.3040 C.3    78  LYS78       0.1728
    104  C        -15.0190  -36.6350    1.0600 C.2    78  LYS78       0.2617
    105  O        -14.8190  -37.1820   -0.0290 O.2    78  LYS78      -0.2715
    106  CB       -16.6370  -34.9430    0.1580 C.3    78  LYS78       0.0311
    107  CG       -18.0110  -35.0880   -0.4760 C.3    78  LYS78       0.0038
    108  CD       -19.1390  -34.8280    0.5140 C.3    78  LYS78       0.0206
    109  CE       -20.5210  -35.0580   -0.0740 C.3    78  LYS78       0.1093
    110  NZ       -20.7340  -36.4600   -0.5420 N.3    78  LYS78      -0.1314
    111  N        -14.1270  -36.6230    2.0580 N.am   79  GLY79      -0.1940
    112  CA       -12.8190  -37.3000    1.9670 C.3    79  GLY79       0.2014
    113  C        -11.8450  -36.6450    0.9850 C.2    79  GLY79       0.2639
    114  O        -12.0250  -35.5050    0.5850 O.2    79  GLY79      -0.2714
    115  N        -10.8140  -37.3790    0.5940 N.am   80  CYS80      -0.1967
    116  CA        -9.7230  -36.8140   -0.1820 C.3    80  CYS80       0.1712
    117  C        -10.0920  -36.6520   -1.6630 C.2    80  CYS80       0.2296
    118  O        -10.8900  -37.4180   -2.2310 O.2    80  CYS80      -0.2864
    119  CB        -8.4170  -37.5980    0.0180 C.3    80  CYS80       0.0983
    120  SG        -8.0200  -38.8000   -1.2600 S.3    80  CYS80      -0.0798
    121  N         -9.8590  -39.3850   -4.6990 N.3    83  ASP83      -0.1239
    122  CA       -11.0260  -40.3270   -4.6650 C.3    83  ASP83       0.1674
    123  C        -12.2970  -39.7030   -5.1940 C.2    83  ASP83       0.2266
    124  O        -13.0830  -40.3490   -5.8450 O.2    83  ASP83      -0.2867
    125  CB       -11.2890  -40.8450   -3.2420 C.3    83  ASP83       0.1410
    126  CG       -10.0840  -41.5910   -2.6630 C.2    83  ASP83       0.3668
    127  OD1       -9.0550  -41.7610   -3.3840 O.co2  83  ASP83      -0.2456
    128  OD2      -10.1490  -42.0130   -1.4910 O.co2  83  ASP83      -0.2456
    129  N         -4.2880  -36.1400   -3.3810 N.3   125  ALA125     -0.1245
    130  CA        -4.4640  -37.1130   -2.2810 C.3   125  ALA125      0.1562
    131  C         -4.4350  -36.4480   -0.8960 C.2   125  ALA125      0.2260
    132  O         -5.0190  -36.9610    0.0570 O.2   125  ALA125     -0.2867
    133  CB        -3.3870  -38.1710   -2.3680 C.3   125  ALA125      0.0290
    134  N         -8.4810  -32.3270    1.1270 N.3   128  LEU128     -0.1245
    135  CA        -9.7580  -32.8890    1.5240 C.3   128  LEU128      0.1561
    136  C        -10.9220  -32.0290    1.0200 C.2   128  LEU128      0.2260
    137  O        -10.8010  -30.8070    0.8770 O.2   128  LEU128     -0.2867
    138  CB        -9.8150  -33.0410    3.0330 C.3   128  LEU128      0.0270
    139  CG        -8.7460  -33.9380    3.6350 C.3   128  LEU128      0.0019
    140  CD1       -8.8430  -33.8640    5.1430 C.3   128  LEU128      0.0001
    141  CD2       -8.8630  -35.3900    3.1690 C.3   128  LEU128      0.0001
    142  N         -2.5270  -32.1380    6.2620 N.3   139  ASP139     -0.1239
    143  CA        -1.3690  -32.9740    6.5970 C.3   139  ASP139      0.1674
    144  C         -0.0740  -32.5130    5.8930 C.2   139  ASP139      0.2266
    145  O          0.6130  -31.5880    6.3510 O.2   139  ASP139     -0.2867
    146  CB        -1.6780  -34.4520    6.2700 C.3   139  ASP139      0.1410
    147  CG        -2.9490  -34.9870    6.9920 C.2   139  ASP139      0.3668
    148  OD1       -3.7760  -34.1880    7.5100 O.co2 139  ASP139     -0.2456
    149  OD2       -3.1190  -36.2320    7.0490 O.co2 139  ASP139     -0.2456
@<TRIPOS>BOND
     1   124   123    2
     2   123   122    1
     3   121   122    1
     4   122   125    1
     5   127   126   ar
     6   129   130    1
     7   125   126    1
     8   126   128   ar
     9   133   130    1
    10   130   131    1
    11   118   117    2
    12   117   116    1
    13   120   119    1
    14   131   132    2
    15   110   109    1
    16   107   106    1
    17   107   108    1
    18   116   119    1
    19   116   115    1
    20   109   108    1
    21   105   104    2
    22   106   103    1
    23   114   113    2
    24   115   113   am
    25   137   136    2
    26   113   112    1
    27   136   135    1
    28   104   103    1
    29   104   111   am
    30   134   135    1
    31   103   102    1
    32   135   138    1
    33   112   111    1
    34   102    98   am
    35   138   139    1
    36   141   139    1
    37   139   140    1
    38    98    99    2
    39    98    97    1
    40   100   101    1
    41   100    97    1
    42    97    96    1
    43    95    94    1
    44    96    90   am
    45    92    93    1
    46    92    89    1
    47    91    90    2
    48    90    89    1
    49     4     3    2
    50    93    94    1
    51   144   145    2
    52   144   143    1
    53    89    88    1
    54   142   143    1
    55   146   143    1
    56   146   147    1
    57    58    56    1
    58     3     2    1
    59     3     9   am
    60    87    86    1
    61   147   149   ar
    62   147   148   ar
    63     8     6    1
    64    52    53    1
    65    10     9    1
    66    10    11    1
    67    17    18    1
    68    17    14    1
    69    88    78   am
    70     2     5    1
    71     2     1    1
    72    18    19    1
    73    11    13   am
    74    11    12    2
    75     5     6    1
    76    13    14    1
    77    56    53    1
    78    56    57    1
    79    86    85   ar
    80    86    84   ar
    81    53    54    1
    82     6     7    1
    83    85    83   ar
    84    84    82   ar
    85    14    15    1
    86    16    15    2
    87    79    78    2
    88    78    77    1
    89    75    73   ar
    90    20    19    2
    91    19    21   am
    92    83    81   ar
    93    82    81   ar
    94    73    74   ar
    95    73    72    1
    96    81    80    1
    97    54    55    2
    98    72    71    1
    99    77    80    1
   100    77    76    1
   101    36    35    1
   102    37    35    1
   103    35    32    1
   104    51    50    1
   105    70    69    2
   106    76    69   am
   107    66    65    1
   108    34    33    2
   109    69    68    1
   110    71    68    1
   111    50    49    1
   112    31    32    1
   113    31    24   am
   114    32    33    1
   115    42    39    1
   116    68    67    1
   117    49    48    1
   118    23    24    1
   119    23    22    1
   120    23    26    1
   121    24    25    2
   122    65    64    1
   123    48    47    1
   124    67    61   am
   125    26    27    1
   126    39    38    1
   127    39    40    1
   128    63    64    1
   129    63    60    1
   130    27    28    1
   131    47    44    1
   132    61    62    2
   133    61    60    1
   134    29    28   ar
   135    28    30   ar
   136    40    41    2
   137    60    59    1
   138    44    43    1
   139    44    45    1
   140    45    46    2
