@<TRIPOS>MOLECULE
tmp/5d10B00.pdb
 150 143 0 0 0
SMALL
GASTEIGER

@<TRIPOS>ATOM
      1  N         -3.6890  -76.4480  -33.7120 N.3    17  LEU17      -0.1231
      2  CA        -3.5780  -75.7820  -32.4010 C.3    17  LEU17       0.1693
      3  C         -4.6620  -76.1830  -31.3840 C.2    17  LEU17       0.2593
      4  O         -4.5010  -75.9340  -30.1800 O.2    17  LEU17      -0.2718
      5  CB        -3.5460  -74.2560  -32.5820 C.3    17  LEU17       0.0284
      6  CG        -2.3180  -73.6730  -33.2930 C.3    17  LEU17       0.0019
      7  CD1       -2.6180  -72.2890  -33.8280 C.3    17  LEU17       0.0001
      8  CD2       -1.1080  -73.6090  -32.3850 C.3    17  LEU17       0.0001
      9  N         -5.7520  -76.7900  -31.8590 N.am   18  GLY18      -0.1942
     10  CA        -6.7690  -77.3720  -30.9730 C.3    18  GLY18       0.2014
     11  C         -8.1230  -77.4620  -31.6470 C.2    18  GLY18       0.2639
     12  O         -8.5390  -76.5300  -32.3250 O.2    18  GLY18      -0.2714
     13  N         -8.8170  -78.5820  -31.4580 N.am   19  GLN19      -0.1963
     14  CA       -10.1340  -78.7690  -32.0660 C.3    19  GLN19       0.1733
     15  C        -11.1530  -77.9960  -31.2450 C.2    19  GLN19       0.2617
     16  O        -11.5700  -78.4380  -30.1760 O.2    19  GLN19      -0.2715
     17  CB       -10.5380  -80.2480  -32.1460 C.3    19  GLN19       0.0408
     18  CG        -9.5070  -81.1650  -32.7850 C.3    19  GLN19       0.0908
     19  CD        -9.1850  -80.7970  -34.2230 C.2    19  GLN19       0.2608
     20  OE1       -9.9870  -81.0440  -35.1240 O.2    19  GLN19      -0.2717
     21  NE2       -8.0000  -80.2180  -34.4500 N.am   19  GLN19      -0.0878
     22  N        -11.5100  -76.8130  -31.7340 N.am   20  GLY20      -0.1940
     23  CA       -12.7320  -76.1470  -31.3090 C.3    20  GLY20       0.2014
     24  C        -13.8970  -76.9440  -31.8690 C.2    20  GLY20       0.2639
     25  O        -13.7000  -77.8660  -32.6830 O.2    20  GLY20      -0.2714
     26  N        -15.1050  -76.6100  -31.4190 N.am   21  CYS21      -0.1967
     27  CA       -16.3190  -77.2060  -31.9800 C.3    21  CYS21       0.1712
     28  C        -16.5300  -76.6860  -33.3980 C.2    21  CYS21       0.2296
     29  O        -15.9990  -75.6370  -33.7780 O.2    21  CYS21      -0.2864
     30  CB       -17.5580  -76.9040  -31.1280 C.3    21  CYS21       0.0983
     31  SG       -17.6740  -77.8100  -29.5690 S.3    21  CYS21      -0.0798
     32  N         -8.4220  -75.1350  -35.6950 N.3    25  VAL25      -0.1245
     33  CA        -7.5200  -73.9920  -35.8640 C.3    25  VAL25       0.1561
     34  C         -6.0950  -74.4700  -36.0860 C.2    25  VAL25       0.2260
     35  O         -5.6640  -75.4430  -35.4760 O.2    25  VAL25      -0.2867
     36  CB        -7.5980  -73.0050  -34.6740 C.3    25  VAL25       0.0252
     37  CG1       -7.3080  -73.6980  -33.3580 C.3    25  VAL25       0.0019
     38  CG2       -6.6590  -71.8170  -34.8660 C.3    25  VAL25       0.0019
     39  N         -2.8270  -67.4700  -38.1760 N.3    37  ALA37      -0.1231
     40  CA        -3.7340  -68.4860  -37.6320 C.3    37  ALA37       0.1694
     41  C         -5.0090  -68.5380  -38.4820 C.2    37  ALA37       0.2592
     42  O         -5.4700  -67.5170  -39.0100 O.2    37  ALA37      -0.2718
     43  CB        -4.0640  -68.2020  -36.1670 C.3    37  ALA37       0.0304
     44  N         -5.5650  -69.7420  -38.6090 N.am   38  ILE38      -0.1966
     45  CA        -6.5370  -70.0670  -39.6600 C.3    38  ILE38       0.1727
     46  C         -7.6400  -70.9040  -39.0670 C.2    38  ILE38       0.2616
     47  O         -7.3630  -71.9080  -38.4510 O.2    38  ILE38      -0.2715
     48  CB        -5.9040  -70.8990  -40.8160 C.3    38  ILE38       0.0290
     49  CG1       -4.6080  -70.2580  -41.3570 C.3    38  ILE38       0.0022
     50  CG2       -6.8990  -71.0610  -41.9630 C.3    38  ILE38       0.0023
     51  CD1       -3.7470  -71.1840  -42.1940 C.3    38  ILE38       0.0001
     52  N         -8.8830  -70.5200  -39.3190 N.am   39  LYS39      -0.1977
     53  CA       -10.0580  -71.1520  -38.7140 C.3    39  LYS39       0.1596
     54  C        -10.9100  -71.9530  -39.7390 C.2    39  LYS39       0.2287
     55  O        -11.2950  -71.4300  -40.7850 O.2    39  LYS39      -0.2864
     56  CB       -10.9070  -70.0710  -38.0530 C.3    39  LYS39       0.0298
     57  CG       -11.5960  -70.5140  -36.7740 C.3    39  LYS39       0.0038
     58  CD       -12.9470  -69.8370  -36.6310 C.3    39  LYS39       0.0206
     59  CE       -13.7970  -70.4710  -35.5460 C.3    39  LYS39       0.1093
     60  NZ       -15.2120  -70.0330  -35.6670 N.3    39  LYS39      -0.1314
     61  N         -8.1330  -59.1680  -31.4550 N.3    54  VAL54      -0.1245
     62  CA        -7.4980  -60.0900  -32.4120 C.3    54  VAL54       0.1561
     63  C         -8.0390  -59.7690  -33.8180 C.2    54  VAL54       0.2260
     64  O         -9.2090  -59.4290  -33.9830 O.2    54  VAL54      -0.2867
     65  CB        -7.7440  -61.5720  -32.0220 C.3    54  VAL54       0.0252
     66  CG1       -7.0490  -62.5170  -32.9790 C.3    54  VAL54       0.0019
     67  CG2       -7.2220  -61.8490  -30.6280 C.3    54  VAL54       0.0019
     68  N         -6.2850  -65.0690  -39.5990 N.3    69  MET69      -0.1230
     69  CA        -6.1870  -64.2020  -38.4290 C.3    69  MET69       0.1702
     70  C         -4.7970  -63.9950  -37.8860 C.2    69  MET69       0.2592
     71  O         -3.8980  -64.7720  -38.1520 O.2    69  MET69      -0.2718
     72  CB        -7.0020  -64.7920  -37.2890 C.3    69  MET69       0.0401
     73  CG        -8.4810  -64.9260  -37.5740 C.3    69  MET69       0.0596
     74  SD        -9.4050  -65.3250  -36.0820 S.3    69  MET69      -0.1393
     75  CE        -9.4500  -63.7000  -35.3500 C.3    69  MET69       0.0692
     76  N         -4.6590  -62.9460  -37.0800 N.am   70  GLU70      -0.1966
     77  CA        -3.4580  -62.6780  -36.2770 C.3    70  GLU70       0.1733
     78  C         -3.1430  -63.8710  -35.3790 C.2    70  GLU70       0.2616
     79  O         -4.0640  -64.4610  -34.8040 O.2    70  GLU70      -0.2715
     80  CB        -3.7560  -61.4670  -35.4170 C.3    70  GLU70       0.0429
     81  CG        -2.7160  -61.0180  -34.4010 C.3    70  GLU70       0.1163
     82  CD        -3.1470  -59.7320  -33.7100 C.2    70  GLU70       0.3649
     83  OE1       -4.3200  -59.3230  -33.8210 O.co2  70  GLU70      -0.2457
     84  OE2       -2.3190  -59.1000  -33.0590 O.co2  70  GLU70      -0.2457
     85  N         -1.8610  -64.2260  -35.2870 N.am   71  TYR71      -0.1960
     86  CA        -1.3730  -65.3250  -34.4310 C.3    71  TYR71       0.1771
     87  C         -0.8880  -64.7930  -33.0670 C.2    71  TYR71       0.2619
     88  O         -0.1760  -63.7900  -32.9580 O.2    71  TYR71      -0.2715
     89  CB        -0.2400  -66.1320  -35.1180 C.3    71  TYR71       0.0574
     90  CG         0.3570  -67.2660  -34.2450 C.ar   71  TYR71      -0.0198
     91  CD1       -0.4090  -68.3850  -33.8890 C.ar   71  TYR71      -0.0009
     92  CD2        1.6780  -67.2200  -33.8020 C.ar   71  TYR71      -0.0009
     93  CE1        0.1150  -69.4100  -33.0960 C.ar   71  TYR71       0.0417
     94  CE2        2.2160  -68.2410  -33.0240 C.ar   71  TYR71       0.0417
     95  CZ         1.4280  -69.3310  -32.6580 C.ar   71  TYR71       0.1957
     96  OH         1.9460  -70.3380  -31.8710 O.3    71  TYR71      -0.2866
     97  N         -1.2340  -65.5300  -32.0330 N.am   72  MET72      -0.1963
     98  CA        -1.0200  -65.1060  -30.6530 C.3    72  MET72       0.1736
     99  C         -0.1760  -66.2170  -30.0830 C.2    72  MET72       0.2617
    100  O         -0.6580  -67.3070  -29.8130 O.2    72  MET72      -0.2715
    101  CB        -2.3390  -64.9150  -29.8890 C.3    72  MET72       0.0427
    102  CG        -3.2050  -63.7910  -30.4490 C.3    72  MET72       0.0599
    103  SD        -2.4450  -62.1470  -30.5320 S.3    72  MET72      -0.1393
    104  CE        -2.1830  -61.7620  -28.8090 C.3    72  MET72       0.0692
    105  N          1.1020  -65.9220  -29.9480 N.am   73  SER73      -0.1936
    106  CA         2.1150  -66.9210  -29.6600 C.3    73  SER73       0.2055
    107  C          1.9630  -67.7390  -28.3670 C.2    73  SER73       0.2643
    108  O          2.5330  -68.8220  -28.2900 O.2    73  SER73      -0.2714
    109  CB         3.4510  -66.2150  -29.5940 C.3    73  SER73       0.2130
    110  OG         3.4960  -65.3820  -28.4470 O.3    73  SER73      -0.2179
    111  N          1.2570  -67.2170  -27.3560 N.am   74  LYS74      -0.1963
    112  CA         1.1920  -67.8760  -26.0330 C.3    74  LYS74       0.1728
    113  C         -0.1570  -68.5080  -25.7020 C.2    74  LYS74       0.2617
    114  O         -0.3320  -68.9410  -24.5770 O.2    74  LYS74      -0.2715
    115  CB         1.6150  -66.9240  -24.9040 C.3    74  LYS74       0.0311
    116  CG         3.0360  -66.3780  -24.9710 C.3    74  LYS74       0.0038
    117  CD         4.0720  -67.4320  -25.3890 C.3    74  LYS74       0.0206
    118  CE         5.4680  -67.1450  -24.8510 C.3    74  LYS74       0.1093
    119  NZ         6.5540  -67.7110  -25.7140 N.3    74  LYS74      -0.1314
    120  N         -1.0790  -68.5820  -26.6770 N.am   75  GLY75      -0.1940
    121  CA        -2.3660  -69.3150  -26.5270 C.3    75  GLY75       0.2014
    122  C         -3.3460  -68.7630  -25.4800 C.2    75  GLY75       0.2639
    123  O         -3.0840  -67.7590  -24.8560 O.2    75  GLY75      -0.2714
    124  N         -4.4580  -69.4530  -25.2600 N.am   76  CYS76      -0.1967
    125  CA        -5.5330  -68.9180  -24.4150 C.3    76  CYS76       0.1712
    126  C         -5.0930  -68.5470  -22.9770 C.2    76  CYS76       0.2296
    127  O         -4.1840  -69.1650  -22.4280 O.2    76  CYS76      -0.2864
    128  CB        -6.7750  -69.8340  -24.4050 C.3    76  CYS76       0.0983
    129  SG        -7.0130  -70.8780  -22.9570 S.3    76  CYS76      -0.0798
    130  N        -10.8600  -67.9570  -21.0210 N.3   121  ALA121     -0.1245
    131  CA       -10.6870  -68.8780  -22.1650 C.3   121  ALA121      0.1562
    132  C        -10.9150  -68.2720  -23.5800 C.2   121  ALA121      0.2260
    133  O        -10.7550  -68.9550  -24.5820 O.2   121  ALA121     -0.2867
    134  CB       -11.5450  -70.1100  -21.9910 C.3   121  ALA121      0.0290
    135  N         -6.7010  -64.2020  -25.6570 N.3   124  LEU124     -0.1245
    136  CA        -5.4730  -64.7550  -26.1510 C.3   124  LEU124      0.1561
    137  C         -4.3850  -63.8710  -25.6320 C.2   124  LEU124      0.2260
    138  O         -4.5770  -62.6610  -25.5040 O.2   124  LEU124     -0.2867
    139  CB        -5.5040  -64.8020  -27.6660 C.3   124  LEU124      0.0270
    140  CG        -6.0910  -66.0660  -28.2670 C.3   124  LEU124      0.0019
    141  CD1       -7.3520  -66.5490  -27.5650 C.3   124  LEU124      0.0001
    142  CD2       -6.3630  -65.8050  -29.7270 C.3   124  LEU124      0.0001
    143  N        -12.8540  -64.6520  -29.0090 N.3   135  ASP135     -0.1239
    144  CA       -13.1580  -64.5740  -30.4190 C.3   135  ASP135      0.1674
    145  C        -14.4230  -63.7370  -30.3120 C.2   135  ASP135      0.2266
    146  O        -14.5920  -63.0600  -29.3070 O.2   135  ASP135     -0.2867
    147  CB       -13.3740  -65.9720  -31.0110 C.3   135  ASP135      0.1410
    148  CG       -14.6640  -66.6330  -30.5300 C.2   135  ASP135      0.3668
    149  OD1      -15.5470  -66.9150  -31.3760 O.co2 135  ASP135     -0.2456
    150  OD2      -14.8010  -66.8500  -29.3100 O.co2 135  ASP135     -0.2456
@<TRIPOS>BOND
     1    51    49    1
     2    50    48    1
     3    49    48    1
     4    48    45    1
     5    55    54    2
     6    54    53    1
     7    45    46    1
     8    45    44    1
     9    68    69    1
    10    52    46   am
    11    52    53    1
    12    46    47    2
    13    42    41    2
    14    53    56    1
    15    44    41   am
    16    41    40    1
    17    69    70    1
    18    69    72    1
    19    39    40    1
    20    71    70    2
    21    56    57    1
    22    70    76   am
    23    40    43    1
    24    73    72    1
    25    73    74    1
    26    76    77    1
    27    57    58    1
    28    58    59    1
    29    77    80    1
    30    77    78    1
    31    34    33    1
    32    34    35    2
    33    74    75    1
    34    33    32    1
    35    33    36    1
    36    60    59    1
    37    80    81    1
    38    78    85   am
    39    78    79    2
    40    85    86    1
    41    20    19    2
    42    89    86    1
    43    89    90    1
    44    38    36    1
    45    36    37    1
    46    21    19   am
    47    86    87    1
    48    81    82    1
    49    90    91   ar
    50    90    92   ar
    51    19    18    1
    52    64    63    2
    53    91    93   ar
    54     7     6    1
    55    83    82   ar
    56    63    62    1
    57    92    94   ar
    58    29    28    2
    59     1     2    1
    60    82    84   ar
    61    28    27    1
    62     6     5    1
    63     6     8    1
    64    93    95   ar
    65    87    88    2
    66    87    97   am
    67    94    95   ar
    68    66    65    1
    69    18    17    1
    70    25    24    2
    71    95    96    1
    72     5     2    1
    73    62    65    1
    74    62    61    1
    75     2     3    1
    76    12    11    2
    77    17    14    1
    78    14    13    1
    79    14    15    1
    80    97    98    1
    81    65    67    1
    82    27    26    1
    83    27    30    1
    84    24    26   am
    85    24    23    1
    86     9     3   am
    87     9    10    1
    88    22    23    1
    89    22    15   am
    90    11    13   am
    91    11    10    1
    92     3     4    2
    93   149   148   ar
    94    15    16    2
    95    30    31    1
    96   147   148    1
    97   147   144    1
    98    98    99    1
    99    98   101    1
   100   103   102    1
   101   103   104    1
   102   148   150   ar
   103   102   101    1
   104   144   145    1
   105   144   143    1
   106   145   146    2
   107    99   105   am
   108    99   100    2
   109   105   106    1
   110   142   140    1
   111   106   109    1
   112   106   107    1
   113   109   110    1
   114   107   108    2
   115   107   111   am
   116   140   139    1
   117   140   141    1
   118   139   136    1
   119   111   112    1
   120   120   121    1
   121   120   113   am
   122   121   122    1
   123   136   135    1
   124   136   137    1
   125   112   113    1
   126   112   115    1
   127   119   118    1
   128   113   114    2
   129   137   138    2
   130   122   124   am
   131   122   123    2
   132   117   116    1
   133   117   118    1
   134   124   125    1
   135   116   115    1
   136   133   132    2
   137   125   128    1
   138   125   126    1
   139   128   129    1
   140   132   131    1
   141   126   127    2
   142   131   134    1
   143   131   130    1
