@<TRIPOS>MOLECULE
tmp/5d11B00.pdb
 144 135 0 0 0
SMALL
GASTEIGER

@<TRIPOS>ATOM
      1  N         -1.9840  -76.4840  -32.9460 N.3    17  LEU17      -0.1231
      2  CA        -1.9630  -75.9390  -31.6060 C.3    17  LEU17       0.1693
      3  C         -3.1320  -76.5290  -30.8450 C.2    17  LEU17       0.2592
      4  O         -2.9510  -77.0060  -29.7340 O.2    17  LEU17      -0.2718
      5  CB        -1.9990  -74.4060  -31.6620 C.3    17  LEU17       0.0284
      6  CG        -0.7250  -73.6220  -31.3150 C.3    17  LEU17       0.0019
      7  CD1        0.5800  -74.3370  -31.6230 C.3    17  LEU17       0.0001
      8  CD2       -0.7570  -72.2670  -31.9960 C.3    17  LEU17       0.0001
      9  N         -4.3190  -76.5080  -31.4500 N.am   18  GLY18      -0.1957
     10  CA        -5.5070  -77.0330  -30.7930 C.3    18  GLY18       0.1869
     11  C         -6.6240  -77.5050  -31.6940 C.2    18  GLY18       0.2309
     12  O         -6.8090  -77.0070  -32.8190 O.2    18  GLY18      -0.2863
     13  N         -6.8290  -75.0080  -34.6790 N.3    25  VAL25      -0.1245
     14  CA        -6.0730  -73.7940  -34.5040 C.3    25  VAL25       0.1561
     15  C         -4.6020  -74.0900  -34.7980 C.2    25  VAL25       0.2260
     16  O         -4.0350  -74.9580  -34.1600 O.2    25  VAL25      -0.2867
     17  CB        -6.1600  -73.2830  -33.0370 C.3    25  VAL25       0.0252
     18  CG1       -5.3150  -72.0230  -32.8560 C.3    25  VAL25       0.0019
     19  CG2       -7.6010  -73.0030  -32.6380 C.3    25  VAL25       0.0019
     20  N         -1.9000  -66.9690  -36.9640 N.3    37  ALA37      -0.1245
     21  CA        -2.6350  -68.0770  -36.3630 C.3    37  ALA37       0.1562
     22  C         -3.7830  -68.3180  -37.2920 C.2    37  ALA37       0.2260
     23  O         -4.3500  -67.3550  -37.8350 O.2    37  ALA37      -0.2867
     24  CB        -3.1530  -67.7400  -34.9490 C.3    37  ALA37       0.0290
     25  N         -7.4450  -70.4360  -37.9010 N.3    39  LYS39      -0.1245
     26  CA        -8.4930  -70.8890  -37.0150 C.3    39  LYS39       0.1561
     27  C         -9.5130  -71.5630  -37.8960 C.2    39  LYS39       0.2260
     28  O        -10.4970  -70.9580  -38.2820 O.2    39  LYS39      -0.2867
     29  CB        -9.0770  -69.6980  -36.2520 C.3    39  LYS39       0.0271
     30  CG        -9.8860  -70.0630  -35.0180 C.3    39  LYS39       0.0035
     31  CD        -9.9830  -68.9090  -34.0170 C.3    39  LYS39       0.0206
     32  CE       -10.9030  -69.2510  -32.8530 C.3    39  LYS39       0.1093
     33  NZ       -11.6140  -68.0460  -32.3550 N.3    39  LYS39      -0.1314
     34  N         -6.9810  -59.1110  -30.3230 N.3    58  VAL58      -0.1245
     35  CA        -6.1930  -59.9120  -31.2790 C.3    58  VAL58       0.1561
     36  C         -6.6460  -59.5200  -32.7040 C.2    58  VAL58       0.2260
     37  O         -7.8220  -59.5230  -32.9880 O.2    58  VAL58      -0.2867
     38  CB        -6.3690  -61.4420  -31.0520 C.3    58  VAL58       0.0252
     39  CG1       -5.5890  -62.2270  -32.0990 C.3    58  VAL58       0.0019
     40  CG2       -5.9130  -61.8520  -29.6500 C.3    58  VAL58       0.0019
     41  N         -5.1380  -64.6150  -38.3240 N.3    73  MET73      -0.1230
     42  CA        -5.1160  -63.7310  -37.1890 C.3    73  MET73       0.1702
     43  C         -3.7660  -63.5640  -36.6100 C.2    73  MET73       0.2592
     44  O         -2.9180  -64.4300  -36.7710 O.2    73  MET73      -0.2718
     45  CB        -6.0070  -64.2900  -36.1070 C.3    73  MET73       0.0401
     46  CG        -7.4580  -64.1670  -36.4160 C.3    73  MET73       0.0596
     47  SD        -8.2780  -64.6160  -34.9130 S.3    73  MET73      -0.1393
     48  CE        -9.9740  -64.5700  -35.4030 C.3    73  MET73       0.0692
     49  N         -3.5850  -62.4300  -35.9190 N.am   74  GLU74      -0.1966
     50  CA        -2.3810  -62.1260  -35.1320 C.3    74  GLU74       0.1733
     51  C         -2.0900  -63.2530  -34.2050 C.2    74  GLU74       0.2616
     52  O         -3.0110  -63.7650  -33.5970 O.2    74  GLU74      -0.2715
     53  CB        -2.6320  -60.8910  -34.2890 C.3    74  GLU74       0.0429
     54  CG        -1.4680  -60.3540  -33.4770 C.3    74  GLU74       0.1163
     55  CD        -1.9040  -59.2360  -32.5120 C.2    74  GLU74       0.3649
     56  OE1       -3.0780  -58.7630  -32.5860 O.co2  74  GLU74      -0.2457
     57  OE2       -1.0470  -58.8420  -31.6870 O.co2  74  GLU74      -0.2457
     58  N         -0.8070  -63.5740  -34.0670 N.am   75  TYR75      -0.1960
     59  CA        -0.3230  -64.6920  -33.3060 C.3    75  TYR75       0.1771
     60  C          0.1640  -64.2400  -31.9510 C.2    75  TYR75       0.2619
     61  O          0.9960  -63.3320  -31.8330 O.2    75  TYR75      -0.2715
     62  CB         0.8460  -65.4380  -34.0120 C.3    75  TYR75       0.0574
     63  CG         1.3420  -66.6640  -33.2430 C.ar   75  TYR75      -0.0198
     64  CD1        0.5500  -67.7960  -33.1300 C.ar   75  TYR75      -0.0009
     65  CD2        2.5950  -66.6800  -32.6440 C.ar   75  TYR75      -0.0009
     66  CE1        0.9700  -68.9150  -32.4350 C.ar   75  TYR75       0.0417
     67  CE2        3.0410  -67.7920  -31.9660 C.ar   75  TYR75       0.0417
     68  CZ         2.2220  -68.9040  -31.8640 C.ar   75  TYR75       0.1957
     69  OH         2.6350  -70.0030  -31.1540 O.3    75  TYR75      -0.2866
     70  N         -0.2500  -65.0070  -30.9500 N.am   76  MET76      -0.1963
     71  CA        -0.0540  -64.6940  -29.5350 C.3    76  MET76       0.1736
     72  C          0.6430  -65.9360  -29.0680 C.2    76  MET76       0.2617
     73  O          0.0530  -67.0320  -29.0720 O.2    76  MET76      -0.2715
     74  CB        -1.3920  -64.5210  -28.8050 C.3    76  MET76       0.0427
     75  CG        -2.2900  -63.4430  -29.3610 C.3    76  MET76       0.0599
     76  SD        -1.4850  -61.8270  -29.4490 S.3    76  MET76      -0.1393
     77  CE        -0.9260  -61.5020  -27.7850 C.3    76  MET76       0.0692
     78  N          1.8850  -65.7690  -28.6760 N.am   77  SER77      -0.1936
     79  CA         2.7700  -66.9030  -28.5650 C.3    77  SER77       0.2055
     80  C          2.5310  -67.7460  -27.3160 C.2    77  SER77       0.2643
     81  O          2.9290  -68.8940  -27.2680 O.2    77  SER77      -0.2714
     82  CB         4.2110  -66.3870  -28.5630 C.3    77  SER77       0.2130
     83  OG         4.4210  -65.4010  -27.5570 O.3    77  SER77      -0.2179
     84  N          1.9210  -67.1610  -26.2910 N.am   78  LYS78      -0.1963
     85  CA         1.8900  -67.7950  -24.9850 C.3    78  LYS78       0.1728
     86  C          0.6020  -68.5070  -24.7520 C.2    78  LYS78       0.2617
     87  O          0.4950  -69.1540  -23.7140 O.2    78  LYS78      -0.2715
     88  CB         2.1300  -66.8050  -23.8360 C.3    78  LYS78       0.0311
     89  CG         3.4720  -66.1050  -23.8390 C.3    78  LYS78       0.0038
     90  CD         4.5970  -67.1030  -23.6750 C.3    78  LYS78       0.0206
     91  CE         5.9470  -66.4830  -23.9870 C.3    78  LYS78       0.1093
     92  NZ         7.0370  -67.3640  -23.4770 N.3    78  LYS78      -0.1314
     93  N         -0.3540  -68.4230  -25.6960 N.am   79  GLY79      -0.1940
     94  CA        -1.6670  -69.0480  -25.5390 C.3    79  GLY79       0.2014
     95  C         -2.5800  -68.3820  -24.5030 C.2    79  GLY79       0.2639
     96  O         -2.3380  -67.2570  -24.0790 O.2    79  GLY79      -0.2714
     97  N         -3.6440  -69.0760  -24.1080 N.am   80  CYS80      -0.1967
     98  CA        -4.7030  -68.4740  -23.3230 C.3    80  CYS80       0.1712
     99  C         -4.2830  -68.1870  -21.9130 C.2    80  CYS80       0.2296
    100  O         -3.3700  -68.8320  -21.3660 O.2    80  CYS80      -0.2864
    101  CB        -5.9940  -69.2570  -23.2930 C.3    80  CYS80       0.0983
    102  SG        -6.0020  -70.7450  -22.2630 S.3    80  CYS80      -0.0798
    103  N         -5.8510  -68.3120  -19.0480 N.3    82  LEU82      -0.1231
    104  CA        -6.1350  -69.3670  -18.0900 C.3    82  LEU82       0.1693
    105  C         -4.9930  -70.3590  -17.8870 C.2    82  LEU82       0.2592
    106  O         -4.5700  -70.5650  -16.7560 O.2    82  LEU82      -0.2718
    107  CB        -7.3930  -70.1140  -18.5020 C.3    82  LEU82       0.0284
    108  CG        -7.8000  -71.1560  -17.4880 C.3    82  LEU82       0.0019
    109  CD1       -8.0710  -70.6250  -16.0680 C.3    82  LEU82       0.0001
    110  CD2       -8.9730  -71.8820  -18.0710 C.3    82  LEU82       0.0001
    111  N         -4.5250  -70.9980  -18.9670 N.am   83  ASP83      -0.1974
    112  CA        -3.3560  -71.9090  -18.9010 C.3    83  ASP83       0.1709
    113  C         -2.0710  -71.2330  -18.4220 C.2    83  ASP83       0.2293
    114  O         -1.3480  -71.7540  -17.6330 O.2    83  ASP83      -0.2864
    115  CB        -3.1370  -72.6240  -20.2420 C.3    83  ASP83       0.1436
    116  CG        -4.3130  -73.5510  -20.6040 C.2    83  ASP83       0.3671
    117  OD1       -5.2140  -73.7430  -19.7580 O.co2  83  ASP83      -0.2456
    118  OD2       -4.3670  -74.0870  -21.7320 O.co2  83  ASP83      -0.2456
    119  N        -10.0740  -67.7560  -20.1960 N.3   125  ALA125     -0.1245
    120  CA        -9.9030  -68.6860  -21.3010 C.3   125  ALA125      0.1562
    121  C        -10.0040  -68.0030  -22.6960 C.2   125  ALA125      0.2260
    122  O         -9.4880  -68.5640  -23.6570 O.2   125  ALA125     -0.2867
    123  CB       -10.8820  -69.8360  -21.2060 C.3   125  ALA125      0.0290
    124  N         -5.7510  -63.9970  -24.7720 N.3   128  LEU128     -0.1245
    125  CA        -4.5280  -64.5760  -25.2780 C.3   128  LEU128      0.1561
    126  C         -3.3670  -63.6970  -24.8560 C.2   128  LEU128      0.2260
    127  O         -3.4770  -62.5170  -24.7750 O.2   128  LEU128     -0.2867
    128  CB        -4.6060  -64.7500  -26.8080 C.3   128  LEU128      0.0270
    129  CG        -5.5630  -65.8070  -27.3160 C.3   128  LEU128      0.0019
    130  CD1       -5.7710  -65.7430  -28.8130 C.3   128  LEU128      0.0001
    131  CD2       -5.0380  -67.2030  -26.9610 C.3   128  LEU128      0.0001
    132  N         -9.6440  -62.0610  -27.0680 N.3   138  ALA138     -0.1231
    133  CA        -9.7960  -62.9900  -28.1970 C.3   138  ALA138      0.1694
    134  C        -11.2250  -63.4890  -28.2260 C.2   138  ALA138      0.2592
    135  O        -12.0400  -63.2240  -27.2990 O.2   138  ALA138     -0.2718
    136  CB        -8.8510  -64.1840  -28.0400 C.3   138  ALA138      0.0304
    137  N        -11.5150  -64.2550  -29.2760 N.am  139  ASP139     -0.1974
    138  CA       -12.7410  -65.0480  -29.3690 C.3   139  ASP139      0.1709
    139  C        -14.0160  -64.2260  -29.2990 C.2   139  ASP139      0.2293
    140  O        -14.8930  -64.4570  -28.4520 O.2   139  ASP139     -0.2864
    141  CB       -12.7090  -66.1860  -28.3320 C.3   139  ASP139      0.1436
    142  CG       -11.4900  -67.0640  -28.5220 C.2   139  ASP139      0.3671
    143  OD1      -11.0850  -67.2280  -29.6970 O.co2 139  ASP139     -0.2456
    144  OD2      -10.8970  -67.5430  -27.5400 O.co2 139  ASP139     -0.2456
@<TRIPOS>BOND
     1    41    42    1
     2    28    27    2
     3    25    26    1
     4    27    26    1
     5    23    22    2
     6    22    21    1
     7    42    43    1
     8    42    45    1
     9    26    29    1
    10    20    21    1
    11    44    43    2
    12    43    49   am
    13    46    45    1
    14    46    47    1
    15    21    24    1
    16    29    30    1
    17    49    50    1
    18    48    47    1
    19    50    53    1
    20    50    51    1
    21    30    31    1
    22    15    14    1
    23    15    16    2
    24    13    14    1
    25    14    17    1
    26    53    54    1
    27    51    58   am
    28    51    52    2
    29    58    59    1
    30    31    32    1
    31    62    59    1
    32    62    63    1
    33    54    55    1
    34    59    60    1
    35    63    64   ar
    36    63    65   ar
    37    64    66   ar
    38    17    18    1
    39    17    19    1
    40    37    36    2
    41     1     2    1
    42    32    33    1
    43    12    11    2
    44    36    35    1
    45    65    67   ar
    46    56    55   ar
    47    55    57   ar
    48    66    68   ar
    49    39    38    1
    50     8     6    1
    51    67    68   ar
    52    60    61    2
    53    60    70   am
    54    68    69    1
    55    11    10    1
    56     5     2    1
    57     5     6    1
    58     7     6    1
    59     2     3    1
    60     9     3   am
    61     9    10    1
    62    35    38    1
    63    35    34    1
    64    38    40    1
    65    70    71    1
    66     3     4    2
    67   143   142   ar
    68    71    72    1
    69    71    74    1
    70    76    75    1
    71    76    77    1
    72   138   139    1
    73   138   137    1
    74   138   141    1
    75    75    74    1
    76   139   140    2
    77   137   134   am
    78    73    72    2
    79    72    78   am
    80   130   129    1
    81    78    79    1
    82    79    82    1
    83    79    80    1
    84    82    83    1
    85   142   141    1
    86   142   144   ar
    87   134   133    1
    88   134   135    2
    89   133   136    1
    90   133   132    1
    91    80    81    2
    92    80    84   am
    93   129   131    1
    94   129   128    1
    95   128   125    1
    96    84    85    1
    97    93    94    1
    98    93    86   am
    99    94    95    1
   100   125   126    1
   101   125   124    1
   102    85    86    1
   103    85    88    1
   104   126   127    2
   105    86    87    2
   106    95    97   am
   107    95    96    2
   108    97    98    1
   109    91    90    1
   110    91    92    1
   111    89    88    1
   112    89    90    1
   113   122   121    2
   114    98   101    1
   115    98    99    1
   116   101   102    1
   117   121   120    1
   118    99   100    2
   119   118   116   ar
   120   120   123    1
   121   120   119    1
   122   116   115    1
   123   116   117   ar
   124   115   112    1
   125   103   104    1
   126   111   112    1
   127   111   105   am
   128   112   113    1
   129   107   104    1
   130   107   108    1
   131   113   114    2
   132   104   105    1
   133   110   108    1
   134   105   106    2
   135   108   109    1
