@<TRIPOS>MOLECULE
tmp/5d12A00.pdb
 128 121 0 0 0
SMALL
GASTEIGER

@<TRIPOS>ATOM
      1  N         -9.8090   44.3140   -6.5740 N.3    17  LEU17      -0.1231
      2  CA        -9.8560   43.9900   -5.1320 C.3    17  LEU17       0.1696
      3  C         -8.5580   43.9550   -4.2730 C.2    17  LEU17       0.2632
      4  O         -8.6180   43.4470   -3.1510 O.2    17  LEU17      -0.2714
      5  CB       -10.7000   42.7160   -4.8800 C.3    17  LEU17       0.0284
      6  CG       -11.2450   41.8220   -6.0070 C.3    17  LEU17       0.0019
      7  CD1      -10.2040   40.8350   -6.4910 C.3    17  LEU17       0.0001
      8  CD2      -12.4540   41.0390   -5.5200 C.3    17  LEU17       0.0001
      9  N         -7.4350   44.5400   -4.7040 N.am   18  GLY18      -0.1718
     10  CA        -6.2190   44.4680   -3.8630 C.2    18  GLY18       0.1480
     11  C         -5.0660   45.4420   -4.0390 C.2    18  GLY18       0.2820
     12  O         -5.0720   46.5410   -3.4730 O.2    18  GLY18      -0.2669
     13  N         -4.0500   44.9950   -4.7820 N.am   19  GLN19      -0.1929
     14  CA        -2.9000   45.8170   -5.1690 C.3    19  GLN19       0.1736
     15  C         -2.1360   46.4310   -3.9950 C.2    19  GLN19       0.2617
     16  O         -1.6800   47.5700   -4.0850 O.2    19  GLN19      -0.2715
     17  CB        -3.3760   46.9340   -6.1030 C.3    19  GLN19       0.0408
     18  CG        -2.2850   47.8290   -6.6790 C.3    19  GLN19       0.0908
     19  CD        -2.7830   49.2150   -7.0190 C.2    19  GLN19       0.2608
     20  OE1       -3.9870   49.4760   -7.0330 O.2    19  GLN19      -0.2717
     21  NE2       -1.8550   50.1190   -7.2940 N.am   19  GLN19      -0.0878
     22  N         -1.9950   45.7020   -2.8920 N.am   20  GLY20      -0.1955
     23  CA        -1.1900   46.2060   -1.7630 C.3    20  GLY20       0.1869
     24  C          0.2780   46.3330   -2.1500 C.2    20  GLY20       0.2309
     25  O          0.9490   47.3370   -1.8570 O.2    20  GLY20      -0.2863
     26  N         -5.3800   42.9230   -8.3440 N.3    25  VAL25      -0.1245
     27  CA        -6.1880   41.7120   -8.2720 C.3    25  VAL25       0.1561
     28  C         -7.6450   42.1150   -8.3870 C.2    25  VAL25       0.2260
     29  O         -8.1720   42.8010   -7.5040 O.2    25  VAL25      -0.2867
     30  CB        -5.9210   40.9210   -6.9710 C.3    25  VAL25       0.0252
     31  CG1       -7.0380   39.9360   -6.6530 C.3    25  VAL25       0.0019
     32  CG2       -4.6200   40.1600   -7.0900 C.3    25  VAL25       0.0019
     33  N        -10.3170   35.1880  -11.1650 N.3    37  ALA37      -0.1245
     34  CA        -9.5050   36.1240  -10.4370 C.3    37  ALA37       0.1562
     35  C         -8.3000   36.3430  -11.2890 C.2    37  ALA37       0.2260
     36  O         -7.7120   35.3780  -11.7870 O.2    37  ALA37      -0.2867
     37  CB        -9.0990   35.5390   -9.1030 C.3    37  ALA37       0.0290
     38  N         -4.5520   38.4770  -11.7740 N.3    39  LYS39      -0.1245
     39  CA        -3.4850   39.1660  -11.0770 C.3    39  LYS39       0.1561
     40  C         -2.7150   39.8670  -12.1460 C.2    39  LYS39       0.2260
     41  O         -2.5900   39.3420  -13.2400 O.2    39  LYS39      -0.2867
     42  CB        -2.5740   38.1820  -10.3470 C.3    39  LYS39       0.0271
     43  CG        -3.1970   37.5350   -9.1420 C.3    39  LYS39       0.0035
     44  CD        -2.1320   36.6340   -8.5120 C.3    39  LYS39       0.0206
     45  CE        -2.6630   36.0090   -7.2570 C.3    39  LYS39       0.1093
     46  NZ        -1.6670   35.0530   -6.7070 N.3    39  LYS39      -0.1314
     47  N         -5.7030   26.9440   -4.1970 N.3    62  VAL62      -0.1245
     48  CA        -6.4210   27.7390   -5.1670 C.3    62  VAL62       0.1561
     49  C         -5.8850   27.2510   -6.4760 C.2    62  VAL62       0.2260
     50  O         -4.6960   26.9860   -6.5860 O.2    62  VAL62      -0.2867
     51  CB        -6.1160   29.2420   -5.0350 C.3    62  VAL62       0.0252
     52  CG1       -6.5600   30.0200   -6.2740 C.3    62  VAL62       0.0019
     53  CG2       -6.7900   29.7960   -3.7940 C.3    62  VAL62       0.0019
     54  N         -7.2050   32.5810  -12.2340 N.3    77  MET77      -0.1230
     55  CA        -7.3550   31.4250  -11.3340 C.3    77  MET77       0.1702
     56  C         -8.7280   31.4100  -10.7010 C.2    77  MET77       0.2592
     57  O         -9.5550   32.2650  -10.9980 O.2    77  MET77      -0.2718
     58  CB        -6.3030   31.4220  -10.2250 C.3    77  MET77       0.0401
     59  CG        -5.4090   32.6300  -10.1590 C.3    77  MET77       0.0596
     60  SD        -5.0480   33.0210   -8.4430 S.3    77  MET77      -0.1393
     61  CE        -6.5180   33.9960   -8.1550 C.3    77  MET77       0.0692
     62  N         -8.9650   30.4530   -9.8100 N.am   78  GLU78      -0.1966
     63  CA       -10.2880   30.3010   -9.1920 C.3    78  GLU78       0.1733
     64  C        -10.6260   31.2780   -8.0760 C.2    78  GLU78       0.2616
     65  O        -10.0260   31.2800   -7.0100 O.2    78  GLU78      -0.2715
     66  CB       -10.4870   28.8930   -8.6480 C.3    78  GLU78       0.0429
     67  CG        -9.7530   28.5960   -7.3630 C.3    78  GLU78       0.1163
     68  CD       -10.1030   27.2310   -6.8250 C.2    78  GLU78       0.3649
     69  OE1       -9.2110   26.5160   -6.3220 O.co2  78  GLU78      -0.2457
     70  OE2      -11.2890   26.8710   -6.8890 O.co2  78  GLU78      -0.2457
     71  N        -11.6580   32.0550   -8.3160 N.am   79  TYR79      -0.1960
     72  CA       -12.1350   33.0210   -7.3640 C.3    79  TYR79       0.1771
     73  C        -12.6050   32.4100   -6.0510 C.2    79  TYR79       0.2619
     74  O        -13.2890   31.3980   -6.0380 O.2    79  TYR79      -0.2715
     75  CB       -13.2980   33.7160   -8.0110 C.3    79  TYR79       0.0574
     76  CG       -13.9560   34.7480   -7.1860 C.ar   79  TYR79      -0.0198
     77  CD1      -13.4160   36.0100   -7.0880 C.ar   79  TYR79      -0.0009
     78  CD2      -15.1540   34.4780   -6.5370 C.ar   79  TYR79      -0.0009
     79  CE1      -14.0440   36.9850   -6.3460 C.ar   79  TYR79       0.0417
     80  CE2      -15.7980   35.4410   -5.7990 C.ar   79  TYR79       0.0417
     81  CZ       -15.2390   36.6980   -5.7070 C.ar   79  TYR79       0.1957
     82  OH       -15.8600   37.6790   -4.9720 O.3    79  TYR79      -0.2866
     83  N        -12.2390   33.0650   -4.9550 N.am   80  MET80      -0.1963
     84  CA       -12.6410   32.6910   -3.6020 C.3    80  MET80       0.1736
     85  C        -13.3590   33.8860   -3.0040 C.2    80  MET80       0.2617
     86  O        -12.7790   34.9470   -2.8550 O.2    80  MET80      -0.2715
     87  CB       -11.4050   32.3900   -2.7850 C.3    80  MET80       0.0427
     88  CG       -10.3740   31.5510   -3.5370 C.3    80  MET80       0.0599
     89  SD       -10.6680   29.7660   -3.4570 S.3    80  MET80      -0.1393
     90  CE       -11.5780   29.5840   -1.9180 C.3    80  MET80       0.0692
     91  N        -14.6230   33.6920   -2.6600 N.am   81  SER81      -0.1936
     92  CA       -15.5480   34.7770   -2.3020 C.3    81  SER81       0.2055
     93  C        -15.2500   35.5670   -1.0740 C.2    81  SER81       0.2643
     94  O        -15.7650   36.6590   -0.9400 O.2    81  SER81      -0.2714
     95  CB       -16.9690   34.2250   -2.1000 C.3    81  SER81       0.2130
     96  OG       -16.9860   32.8760   -1.6170 O.3    81  SER81      -0.2179
     97  N        -14.4800   35.0210   -0.1470 N.am   82  LYS82      -0.1963
     98  CA       -14.4140   35.6400    1.1610 C.3    82  LYS82       0.1728
     99  C        -13.0570   36.2030    1.5240 C.2    82  LYS82       0.2617
    100  O        -12.6430   36.1880    2.6910 O.2    82  LYS82      -0.2715
    101  CB       -14.9530   34.6740    2.1980 C.3    82  LYS82       0.0311
    102  CG       -16.2880   34.0620    1.7560 C.3    82  LYS82       0.0038
    103  CD       -17.2440   33.8580    2.9000 C.3    82  LYS82       0.0206
    104  CE       -17.6650   35.2050    3.4760 C.3    82  LYS82       0.1093
    105  NZ       -18.7870   35.8370    2.7280 N.3    82  LYS82      -0.1314
    106  N        -12.3960   36.7590    0.5180 N.am   83  GLY83      -0.1940
    107  CA       -11.1550   37.4940    0.7160 C.3    83  GLY83       0.2014
    108  C        -10.0410   36.6340    1.2520 C.2    83  GLY83       0.2639
    109  O         -9.8290   35.5120    0.7990 O.2    83  GLY83      -0.2714
    110  N         -9.3220   37.1510    2.2270 N.am   84  CYS84      -0.1967
    111  CA        -8.2310   36.3850    2.7710 C.3    84  CYS84       0.1712
    112  C         -8.4460   36.1130    4.2530 C.2    84  CYS84       0.2296
    113  O         -9.1310   36.8600    4.9510 O.2    84  CYS84      -0.2864
    114  CB        -6.8750   37.0200    2.4290 C.3    84  CYS84       0.0983
    115  SG        -6.3190   38.4130    3.4220 S.3    84  CYS84      -0.0798
    116  N         -2.4920   35.5820    5.4830 N.3   129  ALA129     -0.1245
    117  CA        -2.6620   36.5630    4.3980 C.3   129  ALA129      0.1562
    118  C         -2.6490   35.8710    3.0330 C.2   129  ALA129      0.2260
    119  O         -3.2620   36.3240    2.0710 O.2   129  ALA129     -0.2867
    120  CB        -1.5280   37.5640    4.4680 C.3   129  ALA129      0.0290
    121  N         -6.8710   32.0260    1.2540 N.3   132  LEU132     -0.1245
    122  CA        -8.0820   32.6720    0.7740 C.3   132  LEU132      0.1561
    123  C         -9.2950   31.8340    1.2420 C.2   132  LEU132      0.2260
    124  O         -9.2660   30.6020    1.1640 O.2   132  LEU132     -0.2867
    125  CB        -8.0210   32.7800   -0.7740 C.3   132  LEU132      0.0270
    126  CG        -7.2550   33.8930   -1.5720 C.3   132  LEU132      0.0019
    127  CD1       -6.1360   34.6170   -0.8320 C.3   132  LEU132      0.0001
    128  CD2       -6.6690   33.3820   -2.8820 C.3   132  LEU132      0.0001
@<TRIPOS>BOND
     1    41    40    2
     2    54    55    1
     3    40    39    1
     4    36    35    2
     5    38    39    1
     6    55    56    1
     7    55    58    1
     8    35    34    1
     9    33    34    1
    10    39    42    1
    11    57    56    2
    12    56    62   am
    13    34    37    1
    14    42    43    1
    15    58    59    1
    16    59    60    1
    17    62    63    1
    18    63    66    1
    19    63    64    1
    20    43    44    1
    21    66    67    1
    22    44    45    1
    23    60    61    1
    24    28    27    1
    25    28    29    2
    26    26    27    1
    27    71    64   am
    28    71    72    1
    29    27    30    1
    30    64    65    2
    31    75    72    1
    32    75    76    1
    33    72    73    1
    34    67    68    1
    35    21    19   am
    36    45    46    1
    37    76    77   ar
    38    76    78   ar
    39    32    30    1
    40    77    79   ar
    41    20    19    2
    42    19    18    1
    43    30    31    1
    44    70    68   ar
    45    68    69   ar
    46    18    17    1
    47    50    49    2
    48     1     2    1
    49    78    80   ar
    50     7     6    1
    51    49    48    1
    52    79    81   ar
    53    52    51    1
    54    17    14    1
    55    73    74    2
    56    73    83   am
    57     6     8    1
    58     6     5    1
    59    80    81   ar
    60    81    82    1
    61    14    13    1
    62    14    15    1
    63    48    51    1
    64    48    47    1
    65     2     5    1
    66     2     3    1
    67    51    53    1
    68    83    84    1
    69    13    11   am
    70     9     3    1
    71     9    10    2
    72     3     4    2
    73    16    15    2
    74    11    10    1
    75    11    12    2
    76    15    22   am
    77    84    85    1
    78    84    87    1
    79    88    89    1
    80    88    87    1
    81    89    90    1
    82    85    86    2
    83    85    91   am
    84    22    23    1
    85   128   126    1
    86    91    92    1
    87    92    95    1
    88    92    93    1
    89    24    25    2
    90    24    23    1
    91    95    96    1
    92   126   127    1
    93   126   125    1
    94    93    94    2
    95    93    97   am
    96   125   122    1
    97    97    98    1
    98   106   107    1
    99   106    99   am
   100   107   108    1
   101   122   123    1
   102   122   121    1
   103   109   108    2
   104    98    99    1
   105    98   101    1
   106   124   123    2
   107   108   110   am
   108    99   100    2
   109   102   101    1
   110   102   103    1
   111   119   118    2
   112   110   111    1
   113   114   111    1
   114   114   115    1
   115   105   104    1
   116   111   112    1
   117   103   104    1
   118   118   117    1
   119   112   113    2
   120   117   120    1
   121   117   116    1
