@<TRIPOS>MOLECULE
tmp/5d13D00.pdb
 198 191 0 0 0
SMALL
GASTEIGER

@<TRIPOS>ATOM
      1  N         99.5520  -26.6770   26.5270 N.3    12  ARG12      -0.1245
      2  CA       100.3460  -27.3740   27.5360 C.3    12  ARG12       0.1563
      3  C        100.1810  -28.8800   27.4120 C.2    12  ARG12       0.2260
      4  O         99.0640  -29.3910   27.3030 O.2    12  ARG12      -0.2867
      5  CB        99.9830  -26.9200   28.9540 C.3    12  ARG12       0.0307
      6  CG       100.9390  -27.4740   30.0030 C.3    12  ARG12       0.0489
      7  CD       100.6070  -27.0490   31.4310 C.3    12  ARG12       0.2205
      8  NE       100.7870  -25.6190   31.6770 N.pl3  12  ARG12      -0.0865
      9  CZ        99.7900  -24.7410   31.6680 C.cat  12  ARG12       0.5346
     10  NH1       98.5560  -25.1530   31.4160 N.pl3  12  ARG12       0.1354
     11  NH2      100.0140  -23.4580   31.9070 N.pl3  12  ARG12       0.1354
     12  N        103.1780  -29.4690   31.9230 N.3    16  GLY16      -0.1210
     13  CA       104.0960  -28.3440   32.0470 C.3    16  GLY16       0.1956
     14  C        104.4290  -27.7870   30.6760 C.2    16  GLY16       0.2612
     15  O        104.1690  -28.4420   29.6730 O.2    16  GLY16      -0.2717
     16  N        105.0270  -26.5980   30.6260 N.am   17  LEU17      -0.1965
     17  CA       105.4350  -25.9950   29.3570 C.3    17  LEU17       0.1728
     18  C        106.7780  -26.5060   28.8340 C.2    17  LEU17       0.2617
     19  O        107.0530  -26.4240   27.6380 O.2    17  LEU17      -0.2715
     20  CB       105.4890  -24.4680   29.4920 C.3    17  LEU17       0.0311
     21  CG       104.1900  -23.7740   29.9120 C.3    17  LEU17       0.0022
     22  CD1      104.4000  -22.2620   30.0290 C.3    17  LEU17       0.0001
     23  CD2      103.0540  -24.1000   28.9520 C.3    17  LEU17       0.0001
     24  N        107.6170  -27.0120   29.7280 N.am   18  GLY18      -0.1940
     25  CA       108.8750  -27.6160   29.3290 C.3    18  GLY18       0.2014
     26  C        110.0250  -26.6340   29.1700 C.2    18  GLY18       0.2639
     27  O        110.8670  -26.7840   28.2760 O.2    18  GLY18      -0.2714
     28  N        110.0770  -25.6330   30.0420 N.am   19  PHE19      -0.1959
     29  CA       111.2420  -24.7700   30.1140 C.3    19  PHE19       0.1771
     30  C        111.3500  -24.2050   31.5170 C.2    19  PHE19       0.2620
     31  O        110.4010  -24.2800   32.2930 O.2    19  PHE19      -0.2715
     32  CB       111.1910  -23.6480   29.0670 C.3    19  PHE19       0.0574
     33  CG       110.0620  -22.6670   29.2380 C.ar   19  PHE19      -0.0200
     34  CD1      110.1970  -21.5700   30.0760 C.ar   19  PHE19      -0.0042
     35  CD2      108.8860  -22.8060   28.5170 C.ar   19  PHE19      -0.0042
     36  CE1      109.1780  -20.6490   30.2100 C.ar   19  PHE19      -0.0003
     37  CE2      107.8560  -21.8850   28.6490 C.ar   19  PHE19      -0.0003
     38  CZ       108.0050  -20.8060   29.5010 C.ar   19  PHE19      -0.0000
     39  N        112.5260  -23.6730   31.8380 N.am   20  ASN20      -0.1958
     40  CA       112.7870  -23.0940   33.1380 C.3    20  ASN20       0.1819
     41  C        112.8640  -21.6020   33.0390 C.2    20  ASN20       0.2621
     42  O        113.2240  -21.0660   31.9960 O.2    20  ASN20      -0.2715
     43  CB       114.0920  -23.6160   33.7230 C.3    20  ASN20       0.1195
     44  CG       114.0760  -25.1040   33.9540 C.2    20  ASN20       0.2630
     45  OD1      113.0460  -25.7580   33.7900 O.2    20  ASN20      -0.2716
     46  ND2      115.2280  -25.6540   34.3320 N.am   20  ASN20      -0.0877
     47  N        112.5090  -20.9320   34.1240 N.am   21  ILE21      -0.1963
     48  CA       112.6670  -19.4980   34.1790 C.3    21  ILE21       0.1727
     49  C        113.5800  -19.1600   35.3270 C.2    21  ILE21       0.2616
     50  O        113.5530  -19.8070   36.3760 O.2    21  ILE21      -0.2715
     51  CB       111.3230  -18.7420   34.3350 C.3    21  ILE21       0.0290
     52  CG1      110.5560  -19.2550   35.5610 C.3    21  ILE21       0.0022
     53  CG2      110.4980  -18.9090   33.0790 C.3    21  ILE21       0.0023
     54  CD1      109.3890  -18.3860   35.9970 C.3    21  ILE21       0.0001
     55  N        114.3700  -18.1200   35.1100 N.am   22  VAL22      -0.1963
     56  CA       115.1570  -17.5090   36.1630 C.3    22  VAL22       0.1727
     57  C        114.7200  -16.0780   36.2270 C.2    22  VAL22       0.2616
     58  O        113.9200  -15.6480   35.3990 O.2    22  VAL22      -0.2715
     59  CB       116.6670  -17.5750   35.8810 C.3    22  VAL22       0.0290
     60  CG1      117.1050  -19.0060   35.7870 C.3    22  VAL22       0.0023
     61  CG2      116.9950  -16.8380   34.5880 C.3    22  VAL22       0.0023
     62  N        115.2140  -15.3500   37.2250 N.am   23  GLY23      -0.1955
     63  CA       114.9370  -13.9330   37.3350 C.3    23  GLY23       0.1869
     64  C        113.7680  -13.6810   38.2690 C.2    23  GLY23       0.2309
     65  O        113.3900  -14.5420   39.0650 O.2    23  GLY23      -0.2863
     66  N        113.7280  -11.2980   40.5090 N.3    25  GLU25      -0.1245
     67  CA       114.3050  -10.8940   41.7870 C.3    25  GLU25       0.1567
     68  C        115.0440   -9.5640   41.6470 C.2    25  GLU25       0.2260
     69  O        115.6870   -9.3150   40.6260 O.2    25  GLU25      -0.2867
     70  CB       115.2680  -11.9690   42.2860 C.3    25  GLU25       0.0388
     71  CG       114.6230  -13.3340   42.5150 C.3    25  GLU25       0.1160
     72  CD       115.6000  -14.4840   42.3410 C.2    25  GLU25       0.3649
     73  OE1      116.8080  -14.2260   42.1740 O.co2  25  GLU25      -0.2457
     74  OE2      115.1550  -15.6510   42.3520 O.co2  25  GLU25      -0.2457
     75  N        115.1280   -7.4880   38.4920 N.3    28  GLU28      -0.1245
     76  CA       115.4420   -8.2260   37.2760 C.3    28  GLU28       0.1567
     77  C        114.1570   -8.8440   36.7330 C.2    28  GLU28       0.2260
     78  O        113.2770   -9.2100   37.5110 O.2    28  GLU28      -0.2867
     79  CB       116.4870   -9.3080   37.5540 C.3    28  GLU28       0.0388
     80  CG       117.5910   -8.8960   38.5050 C.3    28  GLU28       0.1160
     81  CD       118.5500  -10.0580   38.7910 C.2    28  GLU28       0.3649
     82  OE1      118.3830  -11.1180   38.1440 O.co2  28  GLU28      -0.2457
     83  OE2      119.4100   -9.8260   39.6650 O.co2  28  GLU28      -0.2457
     84  N        113.3420  -14.5300   32.6650 N.3    31  PHE31      -0.1241
     85  CA       114.0250  -15.0830   31.4860 C.3    31  PHE31       0.1605
     86  C        113.9210  -16.6040   31.3730 C.2    31  PHE31       0.2264
     87  O        113.8530  -17.2910   32.3850 O.2    31  PHE31      -0.2867
     88  CB       115.5190  -14.7220   31.5320 C.3    31  PHE31       0.0534
     89  CG       115.7930  -13.2480   31.5530 C.ar   31  PHE31      -0.0203
     90  CD1      115.6860  -12.5240   32.7330 C.ar   31  PHE31      -0.0042
     91  CD2      116.1760  -12.5870   30.3970 C.ar   31  PHE31      -0.0042
     92  CE1      115.9460  -11.1580   32.7580 C.ar   31  PHE31      -0.0003
     93  CE2      116.4340  -11.2210   30.4130 C.ar   31  PHE31      -0.0003
     94  CZ       116.3200  -10.5080   31.5970 C.ar   31  PHE31      -0.0000
     95  N        115.7690  -19.9180   30.9950 N.3    33  SER33      -0.1202
     96  CA       117.1390  -20.3680   31.2350 C.3    33  SER33       0.2020
     97  C        117.4690  -21.7420   30.6740 C.2    33  SER33       0.2618
     98  O        118.6370  -22.0690   30.4700 O.2    33  SER33      -0.2717
     99  CB       117.4280  -20.3970   32.7270 C.3    33  SER33       0.2103
    100  OG       116.4840  -21.2090   33.3950 O.3    33  SER33      -0.2182
    101  N        116.4630  -22.5690   30.4550 N.am   34  PHE34      -0.1975
    102  CA       116.7420  -23.9350   30.0460 C.3    34  PHE34       0.1639
    103  C        115.4660  -24.4900   29.4620 C.2    34  PHE34       0.2290
    104  O        114.3830  -24.1900   29.9540 O.2    34  PHE34      -0.2864
    105  CB       117.2240  -24.7920   31.2150 C.3    34  PHE34       0.0560
    106  CG       117.7790  -26.1240   30.7920 C.ar   34  PHE34      -0.0200
    107  CD1      119.1030  -26.2310   30.4010 C.ar   34  PHE34      -0.0042
    108  CD2      116.9780  -27.2530   30.7440 C.ar   34  PHE34      -0.0042
    109  CE1      119.6290  -27.4440   29.9990 C.ar   34  PHE34      -0.0003
    110  CE2      117.4940  -28.4660   30.3360 C.ar   34  PHE34      -0.0003
    111  CZ       118.8210  -28.5640   29.9640 C.ar   34  PHE34      -0.0000
    112  N        113.5210  -27.9760   28.5190 N.3    36  LEU36      -0.1245
    113  CA       113.4920  -29.4220   28.6390 C.3    36  LEU36       0.1561
    114  C        113.2850  -29.9960   27.2460 C.2    36  LEU36       0.2260
    115  O        112.2350  -29.7990   26.6220 O.2    36  LEU36      -0.2867
    116  CB       112.3880  -29.8800   29.5920 C.3    36  LEU36       0.0270
    117  CG       112.6060  -29.5860   31.0760 C.3    36  LEU36       0.0019
    118  CD1      111.3580  -29.9760   31.8330 C.3    36  LEU36       0.0001
    119  CD2      113.7820  -30.3430   31.6360 C.3    36  LEU36       0.0001
    120  N        109.5270  -13.5000   40.7610 N.3    66  HIS66      -0.1226
    121  CA       109.7460  -14.8610   40.3120 C.3    66  HIS66       0.1752
    122  C        108.5280  -15.7160   40.6110 C.2    66  HIS66       0.2595
    123  O        108.0690  -16.4680   39.7570 O.2    66  HIS66      -0.2718
    124  CB       110.9840  -15.4570   40.9810 C.3    66  HIS66       0.0759
    125  CG       111.3510  -16.8090   40.4590 C.ar   66  HIS66       0.0818
    126  ND1      112.1710  -16.9880   39.3640 N.ar   66  HIS66      -0.2268
    127  CD2      111.0110  -18.0500   40.8820 C.ar   66  HIS66       0.1154
    128  CE1      112.3120  -18.2790   39.1300 C.ar   66  HIS66       0.1986
    129  NE2      111.6140  -18.9460   40.0340 N.ar   66  HIS66      -0.2212
    130  N        108.0210  -15.6090   41.8360 N.am   67  GLU67      -0.1979
    131  CA       106.8930  -16.4280   42.2670 C.3    67  GLU67       0.1602
    132  C        105.6140  -16.1710   41.4720 C.2    67  GLU67       0.2287
    133  O        104.9470  -17.1260   41.0730 O.2    67  GLU67      -0.2864
    134  CB       106.6300  -16.2030   43.7560 C.3    67  GLU67       0.0415
    135  CG       107.8620  -16.3160   44.6620 C.3    67  GLU67       0.1163
    136  CD       108.4850  -17.7060   44.6900 C.2    67  GLU67       0.3649
    137  OE1      107.7640  -18.7070   44.5150 O.co2  67  GLU67      -0.2457
    138  OE2      109.7040  -17.8020   44.9050 O.co2  67  GLU67      -0.2457
    139  N        105.9850  -17.5650   37.9680 N.3    70  ALA70      -0.1245
    140  CA       105.7370  -18.9970   38.0000 C.3    70  ALA70       0.1562
    141  C        104.2330  -19.2800   38.1660 C.2    70  ALA70       0.2260
    142  O        103.6860  -20.1620   37.5040 O.2    70  ALA70      -0.2867
    143  CB       106.5220  -19.6390   39.1110 C.3    70  ALA70       0.0290
    144  N        102.5590  -18.2510   35.0440 N.3    73  LEU73      -0.1231
    145  CA       102.7440  -19.2570   34.0100 C.3    73  LEU73       0.1693
    146  C        101.9590  -20.5000   34.3770 C.2    73  LEU73       0.2591
    147  O        101.3790  -21.1630   33.5180 O.2    73  LEU73      -0.2718
    148  CB       104.2110  -19.6030   33.8210 C.3    73  LEU73       0.0284
    149  CG       105.0210  -18.5440   33.0800 C.3    73  LEU73       0.0019
    150  CD1      106.4880  -18.7480   33.3320 C.3    73  LEU73       0.0001
    151  CD2      104.7270  -18.5970   31.6060 C.3    73  LEU73       0.0001
    152  N        101.9730  -20.8290   35.6590 N.am   74  LYS74      -0.1980
    153  CA       101.3180  -22.0310   36.1210 C.3    74  LYS74       0.1596
    154  C         99.7990  -21.8690   36.0070 C.2    74  LYS74       0.2287
    155  O         99.0830  -22.8430   35.7790 O.2    74  LYS74      -0.2864
    156  CB       101.7190  -22.3410   37.5700 C.3    74  LYS74       0.0298
    157  CG       101.2180  -23.6750   38.1170 C.3    74  LYS74       0.0038
    158  CD       101.8930  -24.0390   39.4490 C.3    74  LYS74       0.0206
    159  CE       101.5480  -23.0660   40.5480 C.3    74  LYS74       0.1093
    160  NZ       100.1230  -23.2120   40.9380 N.3    74  LYS74      -0.1314
    161  N        120.5770  -10.9250   29.9050 N.3    91  TYR91      -0.1241
    162  CA       120.7240  -12.3070   30.3550 C.3    91  TYR91       0.1605
    163  C        122.2050  -12.6320   30.5870 C.2    91  TYR91       0.2264
    164  O        122.5940  -13.0820   31.6640 O.2    91  TYR91      -0.2867
    165  CB       120.0940  -13.2290   29.3040 C.3    91  TYR91       0.0534
    166  CG       120.0220  -14.7080   29.6150 C.ar   91  TYR91      -0.0201
    167  CD1      118.9300  -15.2390   30.2880 C.ar   91  TYR91      -0.0009
    168  CD2      121.0100  -15.5790   29.1880 C.ar   91  TYR91      -0.0009
    169  CE1      118.8460  -16.5870   30.5560 C.ar   91  TYR91       0.0417
    170  CE2      120.9330  -16.9240   29.4480 C.ar   91  TYR91       0.0417
    171  CZ       119.8380  -17.4260   30.1180 C.ar   91  TYR91       0.1957
    172  OH       119.7690  -18.7700   30.3910 O.3    91  TYR91      -0.2866
    173  N        123.5540  -10.9560   33.7110 N.3    94  PHE94      -0.1227
    174  CA       123.1820  -11.6830   34.9200 C.3    94  PHE94       0.1736
    175  C        123.8870  -13.0340   35.0240 C.2    94  PHE94       0.2595
    176  O        124.3500  -13.4060   36.1040 O.2    94  PHE94      -0.2718
    177  CB       121.6680  -11.8900   35.0030 C.3    94  PHE94       0.0547
    178  CG       120.8660  -10.6260   35.1990 C.ar   94  PHE94      -0.0202
    179  CD1      121.2420   -9.6850   36.1450 C.ar   94  PHE94      -0.0042
    180  CD2      119.7100  -10.3980   34.4630 C.ar   94  PHE94      -0.0042
    181  CE1      120.4860   -8.5390   36.3430 C.ar   94  PHE94      -0.0003
    182  CE2      118.9480   -9.2620   34.6640 C.ar   94  PHE94      -0.0003
    183  CZ       119.3370   -8.3300   35.6020 C.ar   94  PHE94      -0.0000
    184  N        123.9240  -13.7860   33.9270 N.am   95  GLU95      -0.1979
    185  CA       124.6480  -15.0560   33.9020 C.3    95  GLU95       0.1602
    186  C        126.0660  -14.8610   34.4290 C.2    95  GLU95       0.2287
    187  O        126.5200  -15.5890   35.3070 O.2    95  GLU95      -0.2864
    188  CB       124.7410  -15.6050   32.4820 C.3    95  GLU95       0.0415
    189  CG       125.4190  -16.9620   32.3900 C.3    95  GLU95       0.1163
    190  CD       125.6350  -17.4050   30.9590 C.2    95  GLU95       0.3649
    191  OE1      125.2850  -16.6350   30.0370 O.co2  95  GLU95      -0.2457
    192  OE2      126.1950  -18.5020   30.7540 O.co2  95  GLU95      -0.2457
    193  N        126.2360  -13.9400   38.1460 N.3    98  SER98      -0.1217
    194  CA       126.0550  -15.1010   39.0060 C.3    98  SER98       0.1889
    195  C        127.3450  -15.9110   39.1690 C.2    98  SER98       0.2288
    196  O        127.5470  -16.5480   40.2030 O.2    98  SER98      -0.2866
    197  CB       124.9430  -15.9950   38.4460 C.3    98  SER98       0.2089
    198  OG       125.4170  -16.8190   37.3970 O.3    98  SER98      -0.2183
@<TRIPOS>BOND
     1     1     2    1
     2   115   114    2
     3   114   113    1
     4     4     3    2
     5     3     2    1
     6     2     5    1
     7    19    18    2
     8    27    26    2
     9    35    37   ar
    10    35    33   ar
    11   112   113    1
    12   113   116    1
    13    37    38   ar
    14    18    17    1
    15    18    24   am
    16    23    21    1
    17     5     6    1
    18    32    33    1
    19    32    29    1
    20    26    25    1
    21    26    28   am
    22   168   170   ar
    23   168   166   ar
    24    33    34   ar
    25   165   166    1
    26   165   162    1
    27    25    24    1
    28    17    20    1
    29    17    16    1
    30   170   171   ar
    31   103   104    2
    32   103   102    1
    33    20    21    1
    34    38    36   ar
    35   116   117    1
    36   166   167   ar
    37    15    14    2
    38   161   162    1
    39    21    22    1
    40   111   109   ar
    41   111   110   ar
    42   109   107   ar
    43     6     7    1
    44   191   190   ar
    45    28    29    1
    46   102   101    1
    47   102   105    1
    48    34    36   ar
    49    29    30    1
    50   171   172    1
    51   171   169   ar
    52   167   169   ar
    53   110   108   ar
    54   162   163    1
    55    91    93   ar
    56    91    89   ar
    57   107   106   ar
    58    93    94   ar
    59   101    97   am
    60    98    97    2
    61   163   164    2
    62    16    14   am
    63    97    96    1
    64    14    13    1
    65   108   106   ar
    66   192   190   ar
    67   106   105    1
    68   190   189    1
    69    95    96    1
    70   117   119    1
    71   117   118    1
    72    96    99    1
    73    86    85    1
    74    86    87    2
    75    10     9    1
    76     7     8    1
    77    85    88    1
    78    85    84    1
    79    30    39   am
    80    30    31    2
    81    88    89    1
    82    89    90   ar
    83    94    92   ar
    84   151   149    1
    85     9     8    2
    86     9    11    1
    87    39    40    1
    88    12    13    1
    89    42    41    2
    90   189   188    1
    91   188   185    1
    92    99   100    1
    93    90    92   ar
    94    41    40    1
    95    41    47   am
    96    53    51    1
    97   149   150    1
    98   149   148    1
    99    40    43    1
   100   147   146    2
   101   173   174    1
   102    43    44    1
   103    45    44    2
   104   148   145    1
   105   185   184    1
   106   185   186    1
   107   184   175   am
   108    44    46   am
   109   145   146    1
   110   145   144    1
   111    47    48    1
   112    48    51    1
   113    48    49    1
   114    51    52    1
   115   146   152   am
   116   186   187    2
   117   180   182   ar
   118   180   178   ar
   119    61    59    1
   120   182   183   ar
   121   174   177    1
   122   174   175    1
   123   177   178    1
   124   175   176    2
   125    55    49   am
   126    55    56    1
   127   178   179   ar
   128    49    50    2
   129    58    57    2
   130    52    54    1
   131   183   181   ar
   132   152   153    1
   133   155   154    2
   134    60    59    1
   135    59    56    1
   136   154   153    1
   137   153   156    1
   138   179   181   ar
   139    56    57    1
   140    57    62   am
   141    77    76    1
   142    77    78    2
   143    62    63    1
   144    76    79    1
   145    76    75    1
   146    63    64    1
   147   198   197    1
   148   142   141    2
   149    79    80    1
   150   156   157    1
   151   139   140    1
   152   140   141    1
   153   140   143    1
   154   157   158    1
   155    82    81   ar
   156   193   194    1
   157    64    65    2
   158   197   194    1
   159    80    81    1
   160    81    83   ar
   161   194   195    1
   162   128   126   ar
   163   128   129   ar
   164   195   196    2
   165   126   125   ar
   166   158   159    1
   167   123   122    2
   168   129   127   ar
   169   121   122    1
   170   121   120    1
   171   121   124    1
   172   125   127   ar
   173   125   124    1
   174    66    67    1
   175   159   160    1
   176   122   130   am
   177    69    68    2
   178   133   132    2
   179   132   131    1
   180    68    67    1
   181    67    70    1
   182   130   131    1
   183    73    72   ar
   184   131   134    1
   185    70    71    1
   186    72    74   ar
   187    72    71    1
   188   134   135    1
   189   137   136   ar
   190   135   136    1
   191   136   138   ar
