@<TRIPOS>MOLECULE
tmp/5d13B00.pdb
 209 203 0 0 0
SMALL
GASTEIGER

@<TRIPOS>ATOM
      1  N         99.0630  -22.1060   -9.5810 N.3    12  ARG12      -0.1245
      2  CA        99.3850  -21.3170   -8.4090 C.3    12  ARG12       0.1563
      3  C        100.7850  -20.7410   -8.5170 C.2    12  ARG12       0.2260
      4  O        101.6890  -21.4120   -8.9950 O.2    12  ARG12      -0.2867
      5  CB        99.2510  -22.1860   -7.1670 C.3    12  ARG12       0.0307
      6  CG        99.6130  -21.5450   -5.8550 C.3    12  ARG12       0.0489
      7  CD        99.5450  -22.5640   -4.7540 C.3    12  ARG12       0.2205
      8  NE        98.2510  -23.2700   -4.7290 N.pl3  12  ARG12      -0.0865
      9  CZ        97.2460  -22.9880   -3.9110 C.cat  12  ARG12       0.5346
     10  NH1       97.3390  -21.9890   -3.0440 N.pl3  12  ARG12       0.1354
     11  NH2       96.1430  -23.7230   -3.9550 N.pl3  12  ARG12       0.1354
     12  N        102.6640  -17.0380   -4.1340 N.3    15  THR15      -0.1203
     13  CA       101.8120  -16.3100   -3.2000 C.3    15  THR15       0.1994
     14  C        100.4250  -16.9320   -2.9450 C.2    15  THR15       0.2618
     15  O         99.8470  -16.7330   -1.8760 O.2    15  THR15      -0.2717
     16  CB       101.5990  -14.8560   -3.6900 C.3    15  THR15       0.1784
     17  OG1      101.0580  -14.0610   -2.6280 O.3    15  THR15      -0.2211
     18  CG2      100.6580  -14.8020   -4.9030 C.3    15  THR15       0.0376
     19  N         99.8830  -17.6710   -3.9070 N.am   16  GLY16      -0.1942
     20  CA        98.4800  -18.0260   -3.8330 C.3    16  GLY16       0.2014
     21  C         97.8250  -18.1260   -5.1950 C.2    16  GLY16       0.2639
     22  O         98.4790  -18.0320   -6.2310 O.2    16  GLY16      -0.2714
     23  N         96.5340  -18.3970   -5.1800 N.am   17  LEU17      -0.1963
     24  CA        95.7020  -18.4100   -6.3870 C.3    17  LEU17       0.1728
     25  C         95.3360  -16.9840   -6.8300 C.2    17  LEU17       0.2617
     26  O         94.9730  -16.7530   -7.9800 O.2    17  LEU17      -0.2715
     27  CB        94.4320  -19.2250   -6.1460 C.3    17  LEU17       0.0311
     28  CG        94.6220  -20.6920   -5.7770 C.3    17  LEU17       0.0022
     29  CD1       93.2700  -21.3400   -5.5240 C.3    17  LEU17       0.0001
     30  CD2       95.3850  -21.3980   -6.8900 C.3    17  LEU17       0.0001
     31  N         95.4150  -16.0370   -5.9050 N.am   18  GLY18      -0.1940
     32  CA        95.2510  -14.6200   -6.2240 C.3    18  GLY18       0.2014
     33  C         93.8180  -14.1030   -6.2580 C.2    18  GLY18       0.2639
     34  O         93.4500  -13.2580   -7.0670 O.2    18  GLY18      -0.2714
     35  N         92.9900  -14.5880   -5.3580 N.am   19  PHE19      -0.1959
     36  CA        91.6640  -13.9950   -5.1870 C.3    19  PHE19       0.1771
     37  C         91.2020  -14.2340   -3.7830 C.2    19  PHE19       0.2620
     38  O         91.8470  -14.9910   -3.0420 O.2    19  PHE19      -0.2715
     39  CB        90.6760  -14.5180   -6.2330 C.3    19  PHE19       0.0574
     40  CG        90.4230  -16.0210   -6.2050 C.ar   19  PHE19      -0.0200
     41  CD1       91.2110  -16.8930   -6.9600 C.ar   19  PHE19      -0.0042
     42  CD2       89.3650  -16.5480   -5.4810 C.ar   19  PHE19      -0.0042
     43  CE1       90.9500  -18.3030   -6.9600 C.ar   19  PHE19      -0.0003
     44  CE2       89.0960  -17.9240   -5.4700 C.ar   19  PHE19      -0.0003
     45  CZ        89.8890  -18.8020   -6.2010 C.ar   19  PHE19      -0.0000
     46  N         90.1750  -13.4730   -3.3840 N.am   20  ASN20      -0.1958
     47  CA        89.5330  -13.6040   -2.0760 C.3    20  ASN20       0.1819
     48  C         88.1690  -14.2360   -2.2110 C.2    20  ASN20       0.2621
     49  O         87.5330  -14.0430   -3.2370 O.2    20  ASN20      -0.2715
     50  CB        89.3440  -12.2580   -1.4100 C.3    20  ASN20       0.1195
     51  CG        90.6430  -11.5470   -1.1420 C.2    20  ASN20       0.2630
     52  OD1       91.7200  -12.0730   -1.3830 O.2    20  ASN20      -0.2716
     53  ND2       90.5380  -10.3520   -0.6170 N.am   20  ASN20      -0.0877
     54  N         87.7120  -14.9390   -1.1760 N.am   21  ILE21      -0.1963
     55  CA        86.3770  -15.5120   -1.1740 C.3    21  ILE21       0.1727
     56  C         85.6270  -14.9640   -0.0170 C.2    21  ILE21       0.2616
     57  O         86.2240  -14.6480    1.0030 O.2    21  ILE21      -0.2715
     58  CB        86.3160  -17.0750   -1.0570 C.3    21  ILE21       0.0290
     59  CG1       86.9850  -17.5760    0.2330 C.3    21  ILE21       0.0022
     60  CG2       86.9000  -17.7760   -2.2770 C.3    21  ILE21       0.0023
     61  CD1       86.7630  -19.0610    0.5020 C.3    21  ILE21       0.0001
     62  N         84.3200  -14.8200   -0.2280 N.am   22  VAL22      -0.1963
     63  CA        83.3260  -14.5280    0.7800 C.3    22  VAL22       0.1727
     64  C         82.1930  -15.5700    0.6990 C.2    22  VAL22       0.2617
     65  O         82.1350  -16.3770   -0.2660 O.2    22  VAL22      -0.2715
     66  CB        82.7500  -13.0880    0.5700 C.3    22  VAL22       0.0290
     67  CG1       83.8430  -11.9900    0.8230 C.3    22  VAL22       0.0023
     68  CG2       82.1520  -12.9690   -0.8440 C.3    22  VAL22       0.0023
     69  N         81.3060  -15.5690    1.7010 N.am   23  GLY23      -0.1940
     70  CA        80.1450  -16.4480    1.7180 C.3    23  GLY23       0.2014
     71  C         80.3720  -17.7050    2.5440 C.2    23  GLY23       0.2639
     72  O         81.2580  -17.7460    3.4150 O.2    23  GLY23      -0.2714
     73  N         79.5280  -18.7150    2.3210 N.am   24  GLY24      -0.1939
     74  CA        79.6690  -19.9670    3.0350 C.3    24  GLY24       0.2014
     75  C         79.2420  -19.7460    4.4650 C.2    24  GLY24       0.2638
     76  O         79.8050  -20.3340    5.4040 O.2    24  GLY24      -0.2714
     77  N         78.2820  -18.8450    4.6250 N.am   25  GLU25      -0.1977
     78  CA        77.6800  -18.5170    5.9100 C.3    25  GLU25       0.1602
     79  C         76.1860  -18.5290    5.6600 C.2    25  GLU25       0.2287
     80  O         75.7590  -18.0670    4.6110 O.2    25  GLU25      -0.2864
     81  CB        78.0810  -17.1370    6.4200 C.3    25  GLU25       0.0415
     82  CG        79.5500  -16.8780    6.6680 C.3    25  GLU25       0.1163
     83  CD        79.8840  -15.3900    6.5840 C.2    25  GLU25       0.3649
     84  OE1       78.9520  -14.5800    6.4620 O.co2  25  GLU25      -0.2457
     85  OE2       81.0680  -15.0280    6.6380 O.co2  25  GLU25      -0.2457
     86  N         74.5050  -19.5670    2.3050 N.3    28  GLU28      -0.1245
     87  CA        74.9990  -18.9160    1.1070 C.3    28  GLU28       0.1567
     88  C         76.2460  -19.6670    0.5750 C.2    28  GLU28       0.2260
     89  O         77.0370  -20.1900    1.3480 O.2    28  GLU28      -0.2867
     90  CB        75.3440  -17.4600    1.4240 C.3    28  GLU28       0.0388
     91  CG        74.8180  -16.4600    0.4250 C.3    28  GLU28       0.1160
     92  CD        73.3130  -16.4890    0.3270 C.2    28  GLU28       0.3649
     93  OE1       72.6380  -16.2000    1.3360 O.co2  28  GLU28      -0.2457
     94  OE2       72.8090  -16.8060   -0.7700 O.co2  28  GLU28      -0.2457
     95  N         81.6250  -17.2190   -3.0080 N.3    31  PHE31      -0.1241
     96  CA        81.8460  -16.2050   -4.0430 C.3    31  PHE31       0.1605
     97  C         83.2310  -15.4850   -3.9000 C.2    31  PHE31       0.2264
     98  O         83.7760  -15.2960   -2.8270 O.2    31  PHE31      -0.2867
     99  CB        80.7520  -15.0990   -4.0240 C.3    31  PHE31       0.0534
    100  CG        79.3350  -15.6070   -4.1940 C.ar   31  PHE31      -0.0203
    101  CD1       78.6420  -16.0820   -3.1070 C.ar   31  PHE31      -0.0042
    102  CD2       78.7160  -15.6130   -5.4370 C.ar   31  PHE31      -0.0042
    103  CE1       77.3390  -16.5290   -3.2270 C.ar   31  PHE31      -0.0003
    104  CE2       77.4120  -16.0760   -5.5700 C.ar   31  PHE31      -0.0003
    105  CZ        76.7330  -16.5280   -4.4600 C.ar   31  PHE31      -0.0000
    106  N         85.1790  -12.3540   -4.0850 N.3    33  SER33      -0.1202
    107  CA        85.0050  -10.9130   -3.7470 C.3    33  SER33       0.2020
    108  C         86.1030  -10.0340   -4.3580 C.2    33  SER33       0.2618
    109  O         85.9640   -8.7970   -4.4520 O.2    33  SER33      -0.2717
    110  CB        85.0210  -10.7710   -2.2360 C.3    33  SER33       0.2103
    111  OG        86.2040  -11.4650   -1.7720 O.3    33  SER33      -0.2182
    112  N         87.2230  -10.6350   -4.7300 N.am   34  PHE34      -0.1975
    113  CA        88.3470   -9.8260   -5.1700 C.3    34  PHE34       0.1639
    114  C         89.3940  -10.5780   -5.9910 C.2    34  PHE34       0.2290
    115  O         89.7520  -11.6990   -5.6910 O.2    34  PHE34      -0.2864
    116  CB        89.0350   -9.2000   -3.9550 C.3    34  PHE34       0.0560
    117  CG        90.0860   -8.1950   -4.3220 C.ar   34  PHE34      -0.0200
    118  CD1       89.7250   -6.9010   -4.6000 C.ar   34  PHE34      -0.0042
    119  CD2       91.4170   -8.5450   -4.4260 C.ar   34  PHE34      -0.0042
    120  CE1       90.6850   -5.9460   -4.9520 C.ar   34  PHE34      -0.0003
    121  CE2       92.3790   -7.5950   -4.7850 C.ar   34  PHE34      -0.0003
    122  CZ        92.0060   -6.3080   -5.0450 C.ar   34  PHE34      -0.0000
    123  N         93.2060  -10.2560   -7.2990 N.3    36  LEU36      -0.1245
    124  CA        94.5150   -9.6400   -7.1640 C.3    36  LEU36       0.1561
    125  C         95.0960   -9.3690   -8.5470 C.2    36  LEU36       0.2260
    126  O         95.4010  -10.3000   -9.3070 O.2    36  LEU36      -0.2867
    127  CB        95.4390  -10.5690   -6.3730 C.3    36  LEU36       0.0270
    128  CG        96.7860  -10.0790   -5.9140 C.3    36  LEU36       0.0019
    129  CD1       96.5170   -9.2010   -4.7550 C.3    36  LEU36       0.0001
    130  CD2       97.7200  -11.2070   -5.5250 C.3    36  LEU36       0.0001
    131  N         82.4270  -21.4030    5.0260 N.3    66  HIS66      -0.1226
    132  CA        83.5180  -20.5290    4.6320 C.3    66  HIS66       0.1752
    133  C         84.8340  -21.2270    4.9100 C.2    66  HIS66       0.2595
    134  O         85.6840  -21.3210    4.0350 O.2    66  HIS66      -0.2718
    135  CB        83.4580  -19.1990    5.3750 C.3    66  HIS66       0.0759
    136  CG        84.4540  -18.1980    4.8890 C.ar   66  HIS66       0.0818
    137  ND1       84.1840  -17.3590    3.8360 N.ar   66  HIS66      -0.2268
    138  CD2       85.7340  -17.9390    5.2670 C.ar   66  HIS66       0.1154
    139  CE1       85.2430  -16.6010    3.6020 C.ar   66  HIS66       0.1986
    140  NE2       86.2010  -16.9390    4.4500 N.ar   66  HIS66      -0.2212
    141  N         84.9860  -21.7460    6.1130 N.am   67  GLU67      -0.1979
    142  CA        86.2330  -22.4070    6.4790 C.3    67  GLU67       0.1602
    143  C         86.4920  -23.6310    5.6060 C.2    67  GLU67       0.2287
    144  O         87.6210  -23.8200    5.1440 O.2    67  GLU67      -0.2864
    145  CB        86.2260  -22.7840    7.9660 C.3    67  GLU67       0.0415
    146  CG        87.4950  -23.5560    8.3920 C.3    67  GLU67       0.1163
    147  CD        87.4150  -24.2190    9.7670 C.2    67  GLU67       0.3649
    148  OE1       86.9730  -23.5780   10.7430 O.co2  67  GLU67      -0.2457
    149  OE2       87.8290  -25.4020    9.8720 O.co2  67  GLU67      -0.2457
    150  N         87.7560  -22.4490    2.2620 N.3    70  ALA70      -0.1245
    151  CA        89.1270  -21.9340    2.3530 C.3    70  ALA70       0.1562
    152  C         90.1610  -23.0620    2.3930 C.2    70  ALA70       0.2260
    153  O         91.0830  -23.0820    1.5850 O.2    70  ALA70      -0.2867
    154  CB        89.2690  -21.1040    3.5510 C.3    70  ALA70       0.0290
    155  N         90.5010  -24.8300   -0.9770 N.3    73  LEU73      -0.1231
    156  CA        91.2740  -24.0610   -1.9310 C.3    73  LEU73       0.1693
    157  C         92.7340  -24.0180   -1.5500 C.2    73  LEU73       0.2591
    158  O         93.5720  -24.1590   -2.4070 O.2    73  LEU73      -0.2718
    159  CB        90.7240  -22.6200   -2.0350 C.3    73  LEU73       0.0284
    160  CG        89.4410  -22.5490   -2.8490 C.3    73  LEU73       0.0019
    161  CD1       88.6400  -21.3230   -2.5200 C.3    73  LEU73       0.0001
    162  CD2       89.8010  -22.5700   -4.3150 C.3    73  LEU73       0.0001
    163  N         93.0370  -23.8430   -0.2710 N.am   74  LYS74      -0.1980
    164  CA        94.4030  -23.6880    0.1530 C.3    74  LYS74       0.1596
    165  C         95.1520  -25.0000    0.0150 C.2    74  LYS74       0.2287
    166  O         96.3410  -25.0050   -0.1090 O.2    74  LYS74      -0.2864
    167  CB        94.4890  -23.2340    1.5980 C.3    74  LYS74       0.0298
    168  CG        94.1860  -21.7620    1.8120 C.3    74  LYS74       0.0038
    169  CD        94.4670  -21.3410    3.2430 C.3    74  LYS74       0.0206
    170  CE        94.1750  -19.8270    3.4290 C.3    74  LYS74       0.1093
    171  NZ        94.1050  -19.4610    4.8600 N.3    74  LYS74      -0.1314
    172  N         75.4580  -11.9810   -5.8900 N.3    91  TYR91      -0.1241
    173  CA        76.5690  -11.3630   -5.2120 C.3    91  TYR91       0.1605
    174  C         76.2200   -9.9420   -4.8100 C.2    91  TYR91       0.2264
    175  O         76.3360   -9.5410   -3.6420 O.2    91  TYR91      -0.2867
    176  CB        77.7940  -11.3410   -6.1240 C.3    91  TYR91       0.0534
    177  CG        78.9960  -10.7590   -5.4610 C.ar   91  TYR91      -0.0201
    178  CD1       79.8670  -11.5440   -4.7220 C.ar   91  TYR91      -0.0009
    179  CD2       79.2650   -9.4070   -5.5600 C.ar   91  TYR91      -0.0009
    180  CE1       80.9800  -10.9730   -4.1050 C.ar   91  TYR91       0.0417
    181  CE2       80.3630   -8.8500   -4.9630 C.ar   91  TYR91       0.0417
    182  CZ        81.2080   -9.6220   -4.2380 C.ar   91  TYR91       0.1957
    183  OH        82.2880   -9.0590   -3.6360 O.3    91  TYR91      -0.2866
    184  N         74.1870   -9.1400   -1.6380 N.3    94  PHE94      -0.1227
    185  CA        74.9370   -9.1180   -0.3860 C.3    94  PHE94       0.1736
    186  C         75.7320   -7.8270   -0.2770 C.2    94  PHE94       0.2595
    187  O         75.6460   -7.1250    0.7360 O.2    94  PHE94      -0.2718
    188  CB        75.8460  -10.3300   -0.3300 C.3    94  PHE94       0.0547
    189  CG        75.1080  -11.6160   -0.5860 C.ar   94  PHE94      -0.0202
    190  CD1       74.1350  -12.0660    0.2840 C.ar   94  PHE94      -0.0042
    191  CD2       75.3750  -12.3540   -1.7290 C.ar   94  PHE94      -0.0042
    192  CE1       73.4470  -13.2430    0.0160 C.ar   94  PHE94      -0.0003
    193  CE2       74.7000  -13.5150   -1.9960 C.ar   94  PHE94      -0.0003
    194  CZ        73.7320  -13.9570   -1.1340 C.ar   94  PHE94      -0.0000
    195  N         76.4740   -7.5010   -1.3380 N.am   95  GLU95      -0.1979
    196  CA        77.2480   -6.2630   -1.3990 C.3    95  GLU95       0.1602
    197  C         76.3850   -5.0250   -1.0640 C.2    95  GLU95       0.2287
    198  O         76.7750   -4.2140   -0.2310 O.2    95  GLU95      -0.2864
    199  CB        77.8860   -6.0950   -2.7790 C.3    95  GLU95       0.0415
    200  CG        78.8180   -4.8800   -2.8630 C.3    95  GLU95       0.1163
    201  CD        79.5230   -4.6870   -4.2070 C.2    95  GLU95       0.3649
    202  OE1       79.3310   -5.4830   -5.1450 O.co2  95  GLU95      -0.2457
    203  OE2       80.2770   -3.6990   -4.3240 O.co2  95  GLU95      -0.2457
    204  N         75.7020   -5.1160    2.4920 N.3    98  SER98      -0.1217
    205  CA        76.8760   -4.8470    3.3310 C.3    98  SER98       0.1889
    206  C         77.1920   -3.3590    3.4310 C.2    98  SER98       0.2288
    207  O         77.8030   -2.9270    4.4050 O.2    98  SER98      -0.2866
    208  CB        78.1060   -5.5780    2.8030 C.3    98  SER98       0.2089
    209  OG        78.7300   -4.8460    1.7650 O.3    98  SER98      -0.2183
@<TRIPOS>BOND
     1     1     2    1
     2   126   125    2
     3     4     3    2
     4   125   124    1
     5     3     2    1
     6     2     5    1
     7    26    25    2
     8   123   124    1
     9     5     6    1
    10   124   127    1
    11    34    33    2
    12    43    41   ar
    13    43    45   ar
    14    41    40   ar
    15    30    28    1
    16    25    24    1
    17    25    31   am
    18    24    27    1
    19    24    23    1
    20   127   128    1
    21    33    32    1
    22    33    35   am
    23    39    40    1
    24    39    36    1
    25    22    21    2
    26    32    31    1
    27    40    42   ar
    28    45    44   ar
    29    27    28    1
    30   176   177    1
    31   176   173    1
    32   114   115    2
    33   114   113    1
    34   128   130    1
    35   128   129    1
    36   172   173    1
    37     6     7    1
    38    28    29    1
    39   104   102   ar
    40   104   105   ar
    41   179   177   ar
    42   179   181   ar
    43    42    44   ar
    44   177   178   ar
    45   102   100   ar
    46    35    36    1
    47   173   174    1
    48    21    23   am
    49    21    20    1
    50    36    37    1
    51   113   112    1
    52   113   116    1
    53   202   201   ar
    54   122   120   ar
    55   122   121   ar
    56   181   182   ar
    57   120   118   ar
    58    18    16    1
    59   174   175    2
    60   121   119   ar
    61     7     8    1
    62   112   108   am
    63     8     9    2
    64   178   180   ar
    65   118   117   ar
    66   105   103   ar
    67   109   108    2
    68   119   117   ar
    69   108   107    1
    70   203   201   ar
    71   117   116    1
    72   162   160    1
    73   182   180   ar
    74   182   183    1
    75   201   200    1
    76   100    99    1
    77   100   101   ar
    78    12    13    1
    79   106   107    1
    80    96    99    1
    81    96    97    1
    82    96    95    1
    83    11     9    1
    84     9    10    1
    85    19    20    1
    86    19    14   am
    87    97    98    2
    88    37    46   am
    89    37    38    2
    90   107   110    1
    91    16    13    1
    92    16    17    1
    93    46    47    1
    94    49    48    2
    95   103   101   ar
    96    13    14    1
    97    14    15    2
    98   200   199    1
    99   160   161    1
   100   160   159    1
   101   199   196    1
   102   158   157    2
   103    60    58    1
   104   110   111    1
   105    48    47    1
   106    48    54   am
   107    47    50    1
   108   159   156    1
   109   193   191   ar
   110   193   194   ar
   111   156   157    1
   112   156   155    1
   113   191   189   ar
   114   184   185    1
   115   157   163   am
   116    50    51    1
   117   196   195    1
   118   196   197    1
   119    52    51    2
   120   195   186   am
   121    54    55    1
   122    55    58    1
   123    55    56    1
   124    51    53   am
   125   194   192   ar
   126   197   198    2
   127    58    59    1
   128    68    66    1
   129    94    92   ar
   130   189   188    1
   131   189   190   ar
   132   185   188    1
   133   185   186    1
   134   186   187    2
   135   163   164    1
   136    65    64    2
   137    62    56   am
   138    62    63    1
   139   166   165    2
   140    56    57    2
   141   165   164    1
   142   192   190   ar
   143   164   167    1
   144    59    61    1
   145    92    91    1
   146    92    93   ar
   147    91    90    1
   148    66    63    1
   149    66    67    1
   150    88    87    1
   151    88    89    2
   152    64    63    1
   153    64    69   am
   154    87    90    1
   155    87    86    1
   156   153   152    2
   157   167   168    1
   158    69    70    1
   159    70    71    1
   160   209   208    1
   161   168   169    1
   162   150   151    1
   163    73    71   am
   164    73    74    1
   165   151   152    1
   166   151   154    1
   167   204   205    1
   168    71    72    2
   169   208   205    1
   170    74    75    1
   171   169   170    1
   172   205   206    1
   173   170   171    1
   174   206   207    2
   175   139   137   ar
   176   139   140   ar
   177   137   136   ar
   178   134   133    2
   179   140   138   ar
   180    75    77   am
   181    75    76    2
   182    80    79    2
   183    77    78    1
   184   132   133    1
   185   132   131    1
   186   132   135    1
   187   136   138   ar
   188   136   135    1
   189   133   141   am
   190   144   143    2
   191   143   142    1
   192    79    78    1
   193    78    81    1
   194   141   142    1
   195    81    82    1
   196    84    83   ar
   197   142   145    1
   198    83    85   ar
   199    83    82    1
   200   145   146    1
   201   146   147    1
   202   147   149   ar
   203   147   148   ar
