@<TRIPOS>MOLECULE
tmp/5d18A00.pdb
 111 105 0 0 0
SMALL
GASTEIGER

@<TRIPOS>ATOM
      1  N         52.6070   17.2160   46.7250 N.3    16  MET16      -0.1245
      2  CA        52.3440   18.6120   47.0660 C.3    16  MET16       0.1570
      3  C         52.7260   19.5100   45.8830 C.2    16  MET16       0.2261
      4  O         51.9800   20.4330   45.4940 O.2    16  MET16      -0.2867
      5  CB        53.1270   18.9780   48.3330 C.3    16  MET16       0.0387
      6  CG        52.8270   18.0450   49.4860 C.3    16  MET16       0.0595
      7  SD        52.1940   18.8960   50.9220 S.3    16  MET16      -0.1393
      8  CE        51.3330   17.6040   51.8150 C.3    16  MET16       0.0692
      9  N         49.3180   20.6570   45.4040 N.3    20  GLY20      -0.1210
     10  CA        49.2620   21.5650   46.5180 C.3    20  GLY20       0.1956
     11  C         48.9640   20.7980   47.7880 C.2    20  GLY20       0.2611
     12  O         48.5840   19.6260   47.7630 O.2    20  GLY20      -0.2717
     13  N         49.1250   21.4920   48.8980 N.am   21  TYR21      -0.1976
     14  CA        48.9480   20.9270   50.2140 C.3    21  TYR21       0.1639
     15  C         47.5010   20.5210   50.4610 C.2    21  TYR21       0.2290
     16  O         47.2370   19.4360   50.9770 O.2    21  TYR21      -0.2864
     17  CB        49.3740   21.9500   51.2510 C.3    21  TYR21       0.0560
     18  CG        49.1970   21.4990   52.6750 C.ar   21  TYR21      -0.0198
     19  CD1       50.2280   20.8580   53.3380 C.ar   21  TYR21      -0.0009
     20  CD2       48.0170   21.7270   53.3600 C.ar   21  TYR21      -0.0009
     21  CE1       50.0960   20.4400   54.6040 C.ar   21  TYR21       0.0417
     22  CE2       47.8750   21.3230   54.6690 C.ar   21  TYR21       0.0417
     23  CZ        48.9340   20.6790   55.2850 C.ar   21  TYR21       0.1957
     24  OH        48.8550   20.2370   56.5710 O.3    21  TYR21      -0.2866
     25  N         50.3190   18.0150   58.7060 N.3    48  GLU48      -0.1245
     26  CA        51.2450   19.1010   58.9980 C.3    48  GLU48       0.1567
     27  C         52.5850   18.5540   59.4620 C.2    48  GLU48       0.2260
     28  O         53.6140   19.0600   59.0800 O.2    48  GLU48      -0.2867
     29  CB        50.6900   20.0030   60.1010 C.3    48  GLU48       0.0388
     30  CG        50.0630   21.2720   59.5880 C.3    48  GLU48       0.1160
     31  CD        49.7630   22.2440   60.7100 C.2    48  GLU48       0.3649
     32  OE1       50.5620   23.1790   60.9210 O.co2  48  GLU48      -0.2457
     33  OE2       48.7300   22.0560   61.3850 O.co2  48  GLU48      -0.2457
     34  N         54.6120   17.6300   56.5470 N.3    51  LEU51      -0.1245
     35  CA        55.2070   18.7660   55.8580 C.3    51  LEU51       0.1561
     36  C         56.4410   19.2460   56.5960 C.2    51  LEU51       0.2260
     37  O         57.4650   19.5320   55.9820 O.2    51  LEU51      -0.2867
     38  CB        54.2060   19.9180   55.7300 C.3    51  LEU51       0.0270
     39  CG        54.5700   21.0000   54.7140 C.3    51  LEU51       0.0019
     40  CD1       54.5410   20.4390   53.2740 C.3    51  LEU51       0.0001
     41  CD2       53.6490   22.2030   54.8370 C.3    51  LEU51       0.0001
     42  N         61.6380   27.5310   51.3300 N.3    99  ARG99      -0.1231
     43  CA        60.3090   28.0920   51.1680 C.3    99  ARG99       0.1694
     44  C         59.4370   27.5540   52.2840 C.2    99  ARG99       0.2591
     45  O         58.7190   28.3140   52.9490 O.2    99  ARG99      -0.2718
     46  CB        59.7210   27.7160   49.8090 C.3    99  ARG99       0.0321
     47  CG        58.2440   28.0110   49.6970 C.3    99  ARG99       0.0489
     48  CD        57.6640   27.5220   48.3870 C.3    99  ARG99       0.2205
     49  NE        56.2270   27.3140   48.5100 N.pl3  99  ARG99      -0.0865
     50  CZ        55.6600   26.1790   48.9070 C.cat  99  ARG99       0.5346
     51  NH1       56.3960   25.1180   49.2080 N.pl3  99  ARG99       0.1354
     52  NH2       54.3430   26.1030   48.9940 N.pl3  99  ARG99       0.1354
     53  N         59.5500   26.2540   52.5170 N.am  100  LEU100     -0.1980
     54  CA        58.8030   25.6000   53.5740 C.3   100  LEU100      0.1596
     55  C         59.2140   26.1330   54.9480 C.2   100  LEU100      0.2287
     56  O         58.3660   26.3830   55.8050 O.2   100  LEU100     -0.2864
     57  CB        59.0290   24.0880   53.5100 C.3   100  LEU100      0.0297
     58  CG        57.9380   23.1330   53.0260 C.3   100  LEU100      0.0022
     59  CD1       57.0070   23.7050   52.0390 C.3   100  LEU100      0.0001
     60  CD2       58.5730   21.8770   52.4540 C.3   100  LEU100      0.0001
     61  N         57.8010   29.6460   55.4050 N.3   103  LEU103     -0.1231
     62  CA        56.3550   29.5340   55.5290 C.3   103  LEU103      0.1693
     63  C         55.8800   29.0140   56.8910 C.2   103  LEU103      0.2591
     64  O         55.0110   29.6300   57.5500 O.2   103  LEU103     -0.2718
     65  CB        55.8680   28.6740   54.3610 C.3   103  LEU103      0.0284
     66  CG        54.4220   28.2460   54.2980 C.3   103  LEU103      0.0019
     67  CD1       53.5310   29.3640   54.6380 C.3   103  LEU103      0.0001
     68  CD2       54.1550   27.7670   52.8500 C.3   103  LEU103      0.0001
     69  N         56.4790   27.9120   57.3340 N.am  104  LEU104     -0.1980
     70  CA        56.1620   27.3370   58.6300 C.3   104  LEU104      0.1596
     71  C         56.5560   28.2940   59.7490 C.2   104  LEU104      0.2287
     72  O         55.8990   28.3520   60.7540 O.2   104  LEU104     -0.2864
     73  CB        56.8670   25.9910   58.8210 C.3   104  LEU104      0.0297
     74  CG        56.4130   24.8880   57.8330 C.3   104  LEU104      0.0022
     75  CD1       57.1620   23.5680   58.0500 C.3   104  LEU104      0.0001
     76  CD2       54.9520   24.6610   57.9840 C.3   104  LEU104      0.0001
     77  N         53.6840   30.9470   59.7820 N.3   107  GLU107     -0.1231
     78  CA        52.3610   30.4230   60.0830 C.3   107  GLU107      0.1699
     79  C         52.2010   30.3300   61.5740 C.2   107  GLU107      0.2592
     80  O         53.1720   30.1190   62.2960 O.2   107  GLU107     -0.2718
     81  CB        52.1460   29.0220   59.4770 C.3   107  GLU107      0.0402
     82  CG        51.4850   29.0580   58.1520 C.3   107  GLU107      0.1161
     83  CD        51.2270   27.6720   57.5500 C.2   107  GLU107      0.3649
     84  OE1       51.6640   26.6480   58.1220 O.co2 107  GLU107     -0.2457
     85  OE2       50.5830   27.6270   56.4790 O.co2 107  GLU107     -0.2457
     86  N         50.9730   30.5150   62.0350 N.am  108  ARG108     -0.1966
     87  CA        50.6430   30.2040   63.4300 C.3   108  ARG108      0.1729
     88  C         50.1400   28.7850   63.4220 C.2   108  ARG108      0.2617
     89  O         48.9680   28.5210   63.1290 O.2   108  ARG108     -0.2715
     90  CB        49.6180   31.1570   63.9490 C.3   108  ARG108      0.0348
     91  CG        50.0990   32.5840   63.9200 C.3   108  ARG108      0.0492
     92  CD        48.9130   33.4850   64.0110 C.3   108  ARG108      0.2205
     93  NE        49.2640   34.8660   64.3010 N.pl3 108  ARG108     -0.0865
     94  CZ        48.3730   35.8540   64.3320 C.cat 108  ARG108      0.5346
     95  NH1       47.0930   35.5900   64.0700 N.pl3 108  ARG108      0.1354
     96  NH2       48.7570   37.1040   64.5830 N.pl3 108  ARG108      0.1354
     97  N         51.0720   27.8730   63.7000 N.am  109  SER109     -0.1936
     98  CA        50.9540   26.4750   63.3050 C.3   109  SER109      0.2055
     99  C         50.0220   25.7400   64.2420 C.2   109  SER109      0.2642
    100  O         50.0870   25.9030   65.4720 O.2   109  SER109     -0.2714
    101  CB        52.3400   25.8010   63.2210 C.3   109  SER109      0.2130
    102  OG        53.2210   26.4920   62.3070 O.3   109  SER109     -0.2179
    103  N         49.1360   24.9570   63.6220 N.am  110  GLN110     -0.1976
    104  CA        48.0560   24.2500   64.3140 C.3   110  GLN110      0.1601
    105  C         48.6020   23.0300   65.0440 C.2   110  GLN110      0.2287
    106  O         48.2390   22.7610   66.1930 O.2   110  GLN110     -0.2864
    107  CB        46.9630   23.8120   63.3180 C.3   110  GLN110      0.0394
    108  CG        46.1570   24.9500   62.6960 C.3   110  GLN110      0.0908
    109  CD        45.6930   25.9570   63.7340 C.2   110  GLN110      0.2608
    110  OE1       45.2290   25.5810   64.8120 O.2   110  GLN110     -0.2717
    111  NE2       45.8370   27.2450   63.4230 N.am  110  GLN110     -0.0878
@<TRIPOS>BOND
     1     9    10    1
     2     4     3    2
     3     3     2    1
     4    10    11    1
     5     1     2    1
     6     2     5    1
     7    12    11    2
     8    11    13   am
     9     5     6    1
    10    48    49    1
    11    48    47    1
    12    49    50    2
    13    13    14    1
    14    50    52    1
    15    50    51    1
    16     6     7    1
    17    47    46    1
    18    46    43    1
    19    14    15    1
    20    14    17    1
    21    15    16    2
    22     7     8    1
    23    43    42    1
    24    43    44    1
    25    17    18    1
    26    59    58    1
    27    44    53   am
    28    44    45    2
    29    60    58    1
    30    53    54    1
    31    18    19   ar
    32    18    20   ar
    33    68    66    1
    34    58    57    1
    35    40    39    1
    36    19    21   ar
    37    20    22   ar
    38    57    54    1
    39    54    55    1
    40    66    65    1
    41    66    67    1
    42    65    62    1
    43    21    23   ar
    44    22    23   ar
    45    39    41    1
    46    39    38    1
    47    55    56    2
    48    23    24    1
    49    61    62    1
    50    62    63    1
    51    38    35    1
    52    35    34    1
    53    35    36    1
    54    37    36    2
    55    85    83   ar
    56    63    69   am
    57    63    64    2
    58    69    70    1
    59    83    84   ar
    60    83    82    1
    61    74    76    1
    62    74    75    1
    63    74    73    1
    64    82    81    1
    65    70    73    1
    66    70    71    1
    67    25    26    1
    68    26    27    1
    69    26    29    1
    70    28    27    2
    71    81    78    1
    72    30    29    1
    73    30    31    1
    74    71    72    2
    75    77    78    1
    76    78    79    1
    77    31    32   ar
    78    31    33   ar
    79    79    86   am
    80    79    80    2
    81    86    87    1
    82   102   101    1
    83   108   107    1
    84   108   109    1
    85    89    88    2
    86   101    98    1
    87    98    97    1
    88    98    99    1
    89   107   104    1
    90    88    87    1
    91    88    97   am
    92   111   109   am
    93    87    90    1
    94   103    99   am
    95   103   104    1
    96   109   110    2
    97    91    90    1
    98    91    92    1
    99    92    93    1
   100    95    94    1
   101    99   100    2
   102    93    94    2
   103   104   105    1
   104    94    96    1
   105   105   106    2
