@<TRIPOS>MOLECULE
tmp/5d1jA00.pdb
 162 155 0 0 0
SMALL
GASTEIGER

@<TRIPOS>ATOM
      1  N         27.9690   24.2390   31.9930 N.3    10  ILE10      -0.1231
      2  CA        26.8140   24.5590   31.1450 C.3    10  ILE10       0.1692
      3  C         27.0790   24.1800   29.6540 C.2    10  ILE10       0.2593
      4  O         26.2080   24.3850   28.7990 O.2    10  ILE10      -0.2718
      5  CB        26.2740   26.0060   31.3470 C.3    10  ILE10       0.0266
      6  CG1       27.3570   27.0920   31.1390 C.3    10  ILE10       0.0019
      7  CG2       25.5910   26.1230   32.7170 C.3    10  ILE10       0.0020
      8  CD1       26.8820   28.6050   31.2530 C.3    10  ILE10       0.0001
      9  N         28.2410   23.5670   29.3960 N.am   11  GLY11      -0.1942
     10  CA        28.6040   23.0270   28.0890 C.3    11  GLY11       0.2014
     11  C         29.7960   23.6370   27.3940 C.2    11  GLY11       0.2638
     12  O         30.7250   24.1140   28.0480 O.2    11  GLY11      -0.2714
     13  N         29.7650   23.5530   26.0350 N.am   12  GLU12      -0.1977
     14  CA        30.6680   24.0660   24.9900 C.3    12  GLU12       0.1602
     15  C         30.5700   23.2100   23.7400 C.2    12  GLU12       0.2287
     16  O         30.3110   23.7400   22.6650 O.2    12  GLU12      -0.2864
     17  CB        32.1330   24.2140   25.4240 C.3    12  GLU12       0.0415
     18  CG        32.7980   25.4840   24.9060 C.3    12  GLU12       0.1163
     19  CD        32.9940   25.6280   23.4070 C.2    12  GLU12       0.3649
     20  OE1       32.8620   26.7680   22.9070 O.co2  12  GLU12      -0.2457
     21  OE2       33.2900   24.6150   22.7320 O.co2  12  GLU12      -0.2457
     22  N         32.5070   25.7210   29.4520 N.3    16  VAL16      -0.1245
     23  CA        31.7670   26.8740   30.0020 C.3    16  VAL16       0.1561
     24  C         31.0570   26.4770   31.2860 C.2    16  VAL16       0.2260
     25  O         30.3850   25.4470   31.3220 O.2    16  VAL16      -0.2867
     26  CB        30.7790   27.5260   28.9800 C.3    16  VAL16       0.0252
     27  CG1       30.3030   28.8860   29.4700 C.3    16  VAL16       0.0019
     28  CG2       31.4140   27.6700   27.6070 C.3    16  VAL16       0.0019
     29  N         29.0210   33.6760   33.0830 N.3    29  ALA29      -0.1245
     30  CA        29.3720   32.4210   32.4090 C.3    29  ALA29       0.1562
     31  C         30.9090   32.5420   32.2620 C.2    29  ALA29       0.2260
     32  O         31.4140   33.5880   31.8320 O.2    29  ALA29      -0.2867
     33  CB        28.7240   32.3630   31.0420 C.3    29  ALA29       0.0290
     34  N         34.2670   30.8650   30.6590 N.3    31  LYS31      -0.1245
     35  CA        34.7640   29.9330   29.6460 C.3    31  LYS31       0.1561
     36  C         36.2670   29.7060   29.8950 C.2    31  LYS31       0.2260
     37  O         37.0070   30.6770   29.9540 O.2    31  LYS31      -0.2867
     38  CB        34.5200   30.4980   28.2340 C.3    31  LYS31       0.0271
     39  CG        34.8610   29.5230   27.1090 C.3    31  LYS31       0.0035
     40  CD        34.6170   30.1080   25.7380 C.3    31  LYS31       0.0206
     41  CE        34.7140   29.0240   24.6920 C.3    31  LYS31       0.1093
     42  NZ        34.6260   29.5740   23.3160 N.3    31  LYS31      -0.1314
     43  N         26.3700   38.6380   23.1050 N.3    48  VAL48      -0.1245
     44  CA        26.6060   38.3560   24.5320 C.3    48  VAL48       0.1561
     45  C         27.8520   39.1410   24.9710 C.2    48  VAL48       0.2260
     46  O         28.9210   39.0110   24.3610 O.2    48  VAL48      -0.2867
     47  CB        26.7610   36.8360   24.8230 C.3    48  VAL48       0.0252
     48  CG1       27.2430   36.5980   26.2530 C.3    48  VAL48       0.0019
     49  CG2       25.4450   36.1190   24.6140 C.3    48  VAL48       0.0019
     50  N         31.7410   36.1220   30.6530 N.3    64  PHE64      -0.1227
     51  CA        30.6430   36.7210   29.8880 C.3    64  PHE64       0.1736
     52  C         29.4440   36.9560   30.7830 C.2    64  PHE64       0.2595
     53  O         29.2890   36.3040   31.8290 O.2    64  PHE64      -0.2718
     54  CB        30.1690   35.7550   28.7630 C.3    64  PHE64       0.0547
     55  CG        31.1660   35.4410   27.6800 C.ar   64  PHE64      -0.0202
     56  CD1       31.2460   36.2300   26.5380 C.ar   64  PHE64      -0.0042
     57  CD2       32.0000   34.3330   27.7810 C.ar   64  PHE64      -0.0042
     58  CE1       32.1460   35.9230   25.5180 C.ar   64  PHE64      -0.0003
     59  CE2       32.9070   34.0260   26.7530 C.ar   64  PHE64      -0.0003
     60  CZ        32.9670   34.8210   25.6320 C.ar   64  PHE64      -0.0000
     61  N         28.5490   37.8340   30.3270 N.am   65  GLU65      -0.1965
     62  CA        27.2670   38.0010   30.9950 C.3    65  GLU65       0.1733
     63  C         26.5280   36.6660   30.8100 C.2    65  GLU65       0.2616
     64  O         26.7250   35.9820   29.8010 O.2    65  GLU65      -0.2715
     65  CB        26.4500   39.1370   30.3920 C.3    65  GLU65       0.0429
     66  CG        25.9430   38.8650   28.9950 C.3    65  GLU65       0.1163
     67  CD        24.9630   39.8890   28.4730 C.2    65  GLU65       0.3649
     68  OE1       24.1550   40.4170   29.2680 O.co2  65  GLU65      -0.2457
     69  OE2       25.0370   40.1950   27.2680 O.co2  65  GLU65      -0.2457
     70  N         25.7190   36.2860   31.7790 N.am   66  PHE66      -0.1960
     71  CA        25.0320   34.9940   31.7480 C.3    66  PHE66       0.1771
     72  C         23.5970   35.1600   31.1970 C.2    66  PHE66       0.2619
     73  O         22.8930   36.0760   31.6120 O.2    66  PHE66      -0.2715
     74  CB        25.0000   34.4060   33.1960 C.3    66  PHE66       0.0574
     75  CG        24.2720   33.1010   33.3360 C.ar   66  PHE66      -0.0200
     76  CD1       24.8930   31.9010   33.0040 C.ar   66  PHE66      -0.0042
     77  CD2       22.9560   33.0630   33.7920 C.ar   66  PHE66      -0.0042
     78  CE1       24.2020   30.6940   33.0860 C.ar   66  PHE66      -0.0003
     79  CE2       22.2510   31.8580   33.8320 C.ar   66  PHE66      -0.0003
     80  CZ        22.8830   30.6770   33.4990 C.ar   66  PHE66      -0.0000
     81  N         23.1680   34.2550   30.2820 N.am   67  LEU67      -0.1963
     82  CA        21.7910   34.2050   29.7690 C.3    67  LEU67       0.1728
     83  C         21.1880   32.8740   30.1530 C.2    67  LEU67       0.2616
     84  O         21.8780   31.8600   30.1430 O.2    67  LEU67      -0.2715
     85  CB        21.6700   34.5130   28.2590 C.3    67  LEU67       0.0311
     86  CG        21.7330   36.0200   27.9530 C.3    67  LEU67       0.0022
     87  CD1       23.1690   36.4820   27.7830 C.3    67  LEU67       0.0001
     88  CD2       20.9200   36.3700   26.7270 C.3    67  LEU67       0.0001
     89  N         19.8980   32.8650   30.5440 N.am   68  HIS68      -0.1959
     90  CA        19.3120   31.6570   31.1180 C.3    68  HIS68       0.1787
     91  C         18.8990   30.5460   30.1720 C.2    68  HIS68       0.2620
     92  O         18.7410   29.4130   30.6190 O.2    68  HIS68      -0.2715
     93  CB        18.1240   32.0430   31.9980 C.3    68  HIS68       0.0785
     94  CG        18.5780   32.6260   33.2960 C.ar   68  HIS68       0.0821
     95  ND1       18.9450   33.9610   33.4030 N.ar   68  HIS68      -0.2267
     96  CD2       18.7480   32.0230   34.4930 C.ar   68  HIS68       0.1154
     97  CE1       19.3140   34.1270   34.6610 C.ar   68  HIS68       0.1986
     98  NE2       19.2120   32.9860   35.3510 N.ar   68  HIS68      -0.2212
     99  N         18.7240   30.8430   28.8830 N.am   69  GLN69      -0.1963
    100  CA        18.2690   29.8040   27.9620 C.3    69  GLN69       0.1733
    101  C         18.9520   29.9220   26.5980 C.2    69  GLN69       0.2616
    102  O         19.4440   30.9930   26.2450 O.2    69  GLN69      -0.2715
    103  CB        16.7150   29.9130   27.8260 C.3    69  GLN69       0.0408
    104  CG        16.0430   28.8970   26.9040 C.3    69  GLN69       0.0908
    105  CD        16.1540   27.4730   27.3820 C.2    69  GLN69       0.2608
    106  OE1       17.2520   26.9180   27.6060 O.2    69  GLN69      -0.2717
    107  NE2       15.0040   26.8370   27.5180 N.am   69  GLN69      -0.0878
    108  N         18.9790   28.8100   25.8400 N.am   70  ASP70      -0.1971
    109  CA        19.4580   28.8400   24.4510 C.3    70  ASP70       0.1709
    110  C         18.3050   28.5430   23.4890 C.2    70  ASP70       0.2293
    111  O         17.2760   27.9940   23.9000 O.2    70  ASP70      -0.2864
    112  CB        20.6660   27.9400   24.2190 C.3    70  ASP70       0.1436
    113  CG        20.4060   26.4640   24.4460 C.2    70  ASP70       0.3671
    114  OD1       19.6110   25.8800   23.6880 O.co2  70  ASP70      -0.2456
    115  OD2       21.0720   25.8800   25.3060 O.co2  70  ASP70      -0.2456
    116  N         17.1050   24.6370   23.1150 N.3    73  LYS73      -0.1245
    117  CA        16.2100   24.1510   24.1670 C.3    73  LYS73       0.1561
    118  C         14.8360   24.7940   24.0850 C.2    73  LYS73       0.2260
    119  O         13.8490   24.1270   24.3420 O.2    73  LYS73      -0.2867
    120  CB        16.8480   24.2900   25.5660 C.3    73  LYS73       0.0271
    121  CG        18.1020   23.4400   25.6810 C.3    73  LYS73       0.0035
    122  CD        18.7980   23.5960   27.0260 C.3    73  LYS73       0.0206
    123  CE        20.1190   22.8610   27.0730 C.3    73  LYS73       0.1093
    124  NZ        19.9320   21.3880   27.1500 N.3    73  LYS73      -0.1314
    125  N         22.1630   26.1580   19.3520 N.3   115  GLN115     -0.1231
    126  CA        22.8570   25.9350   20.6460 C.3   115  GLN115      0.1698
    127  C         23.6580   27.1620   21.1100 C.2   115  GLN115      0.2592
    128  O         23.8580   27.3390   22.3300 O.2   115  GLN115     -0.2718
    129  CB        23.8200   24.7430   20.5480 C.3   115  GLN115      0.0381
    130  CG        23.1420   23.4280   20.2320 C.3   115  GLN115      0.0905
    131  CD        23.2400   23.1020   18.7630 C.2   115  GLN115      0.2608
    132  OE1       22.5080   23.6540   17.9200 O.2   115  GLN115     -0.2717
    133  NE2       24.1750   22.2110   18.4250 N.am  115  GLN115     -0.0878
    134  N         24.0860   28.0280   20.1710 N.am  116  ASN116     -0.1974
    135  CA        24.8570   29.1930   20.6080 C.3   116  ASN116      0.1688
    136  C         24.0940   30.5190   20.4400 C.2   116  ASN116      0.2292
    137  O         24.7130   31.5780   20.4390 O.2   116  ASN116     -0.2864
    138  CB        26.2790   29.2270   19.9820 C.3   116  ASN116      0.1181
    139  CG        26.3630   29.2340   18.4940 C.2   116  ASN116      0.2629
    140  OD1       25.5840   29.9040   17.8020 O.2   116  ASN116     -0.2716
    141  ND2       27.3940   28.5700   17.9790 N.am  116  ASN116     -0.0877
    142  N         21.4930   32.7210   22.4560 N.3   118  LEU118     -0.1245
    143  CA        21.0180   32.8030   23.8350 C.3   118  LEU118      0.1561
    144  C         19.8950   33.7800   24.0000 C.2   118  LEU118      0.2260
    145  O         19.8970   34.8460   23.3840 O.2   118  LEU118     -0.2867
    146  CB        22.2160   33.1100   24.7820 C.3   118  LEU118      0.0270
    147  CG        23.4290   32.1770   24.6390 C.3   118  LEU118      0.0019
    148  CD1       24.5930   32.6480   25.4830 C.3   118  LEU118      0.0001
    149  CD2       23.0750   30.7290   25.0030 C.3   118  LEU118      0.0001
    150  N         26.4670   34.2770   20.4850 N.3   128  ALA128     -0.1231
    151  CA        27.5080   33.8290   21.4240 C.3   128  ALA128      0.1694
    152  C         28.4690   32.8420   20.7360 C.2   128  ALA128      0.2592
    153  O         28.2000   32.3990   19.6100 O.2   128  ALA128     -0.2718
    154  CB        26.8620   33.1690   22.6360 C.3   128  ALA128      0.0304
    155  N         29.5890   32.4910   21.4040 N.am  129  ASP129     -0.1974
    156  CA        30.5680   31.5010   20.9160 C.3   129  ASP129      0.1709
    157  C         31.0900   31.7810   19.5080 C.2   129  ASP129      0.2293
    158  O         30.9750   30.9400   18.6110 O.2   129  ASP129     -0.2864
    159  CB        29.9990   30.0670   21.0280 C.3   129  ASP129      0.1436
    160  CG        31.0690   28.9750   21.0470 C.2   129  ASP129      0.3671
    161  OD1       32.2600   29.3090   21.2070 O.co2 129  ASP129     -0.2456
    162  OD2       30.7070   27.8000   20.9810 O.co2 129  ASP129     -0.2456
@<TRIPOS>BOND
     1   140   139    2
     2   132   131    2
     3   141   139   am
     4   133   131   am
     5   139   138    1
     6   158   157    2
     7   131   130    1
     8   125   126    1
     9   157   156    1
    10   153   152    2
    11   138   135    1
    12   134   135    1
    13   134   127   am
    14   130   129    1
    15   137   136    2
    16   136   135    1
    17   150   151    1
    18   129   126    1
    19   126   127    1
    20   152   155   am
    21   152   151    1
    22   156   159    1
    23   156   155    1
    24   162   160   ar
    25   159   160    1
    26   160   161   ar
    27   127   128    2
    28   151   154    1
    29   142   143    1
    30    16    15    2
    31    21    19   ar
    32    20    19   ar
    33    43    44    1
    34   116   117    1
    35    42    41    1
    36   145   144    2
    37    19    18    1
    38   110   111    2
    39   110   109    1
    40   114   113   ar
    41    15    14    1
    42   143   144    1
    43   143   146    1
    44   118   117    1
    45   118   119    2
    46   117   120    1
    47   112   113    1
    48   112   109    1
    49    46    45    2
    50   113   115   ar
    51   109   108    1
    52    44    47    1
    53    44    45    1
    54    49    47    1
    55   147   146    1
    56   147   149    1
    57   147   148    1
    58    41    40    1
    59    47    48    1
    60    18    17    1
    61    14    17    1
    62    14    13    1
    63    58    60   ar
    64    58    56   ar
    65   120   121    1
    66    60    59   ar
    67   121   122    1
    68    40    39    1
    69   108   101   am
    70    13    11   am
    71   102   101    2
    72    56    55   ar
    73   101   100    1
    74    88    86    1
    75    59    57   ar
    76   104   105    1
    77   104   103    1
    78   122   123    1
    79   123   124    1
    80    39    38    1
    81    69    67   ar
    82   105   107   am
    83   105   106    2
    84    11    12    2
    85    11    10    1
    86    28    26    1
    87    55    57   ar
    88    55    54    1
    89    87    86    1
    90   103   100    1
    91    86    85    1
    92   100    99    1
    93    10     9    1
    94    38    35    1
    95    85    82    1
    96    67    66    1
    97    67    68   ar
    98    54    51    1
    99     4     3    2
   100    99    91   am
   101    26    27    1
   102    26    23    1
   103    66    65    1
   104     9     3   am
   105    22    23    1
   106    35    36    1
   107    35    34    1
   108     3     2    1
   109    82    83    1
   110    82    81    1
   111    64    63    2
   112    51    50    1
   113    51    52    1
   114    36    37    2
   115    23    24    1
   116    84    83    2
   117    83    89   am
   118    91    92    2
   119    91    90    1
   120    81    72   am
   121    61    52   am
   122    61    62    1
   123    65    62    1
   124    89    90    1
   125    52    53    2
   126    63    62    1
   127    63    70   am
   128    33    30    1
   129    90    93    1
   130     6     8    1
   131     6     5    1
   132     2     5    1
   133     2     1    1
   134    72    73    2
   135    72    71    1
   136    24    25    2
   137     5     7    1
   138    71    70    1
   139    71    74    1
   140    32    31    2
   141    93    94    1
   142    31    30    1
   143    30    29    1
   144    76    78   ar
   145    76    75   ar
   146    78    80   ar
   147    74    75    1
   148    94    95   ar
   149    94    96   ar
   150    75    77   ar
   151    95    97   ar
   152    80    79   ar
   153    77    79   ar
   154    96    98   ar
   155    97    98   ar
