@<TRIPOS>MOLECULE
tmp/5d1oA00.pdb
 163 151 0 0 0
SMALL
GASTEIGER

@<TRIPOS>ATOM
      1  N          3.8010   -0.7980   44.8180 N.3    65  PHE65      -0.1241
      2  CA         4.7130    0.2640   45.1730 C.3    65  PHE65       0.1605
      3  C          4.7100    1.3020   44.0740 C.2    65  PHE65       0.2264
      4  O          4.8930    0.9630   42.9060 O.2    65  PHE65      -0.2867
      5  CB         6.1230   -0.2540   45.4180 C.3    65  PHE65       0.0534
      6  CG         6.9870    0.7320   46.1410 C.ar   65  PHE65      -0.0203
      7  CD1        6.7960    0.9730   47.4930 C.ar   65  PHE65      -0.0042
      8  CD2        7.9550    1.4610   45.4680 C.ar   65  PHE65      -0.0042
      9  CE1        7.5740    1.9000   48.1550 C.ar   65  PHE65      -0.0003
     10  CE2        8.7380    2.4020   46.1400 C.ar   65  PHE65      -0.0003
     11  CZ         8.5460    2.6200   47.4670 C.ar   65  PHE65      -0.0000
     12  N          5.4900    4.4790   41.5790 N.3    67  LYS67      -0.1231
     13  CA         6.5900    4.9520   40.7540 C.3    67  LYS67       0.1693
     14  C          7.2160    6.1800   41.3960 C.2    67  LYS67       0.2591
     15  O          6.5150    7.1150   41.7400 O.2    67  LYS67      -0.2718
     16  CB         6.1030    5.2640   39.3320 C.3    67  LYS67       0.0285
     17  CG         5.7390    4.0110   38.5290 C.3    67  LYS67       0.0035
     18  CD         5.6940    4.2580   37.0180 C.3    67  LYS67       0.0206
     19  CE         5.5830    2.9340   36.2580 C.3    67  LYS67       0.1093
     20  NZ         5.8500    3.0640   34.7880 N.3    67  LYS67      -0.1314
     21  N          8.5280    6.1540   41.5960 N.am   68  ILE68      -0.1980
     22  CA         9.2420    7.3020   42.1480 C.3    68  ILE68       0.1595
     23  C          9.7670    8.0790   40.9740 C.2    68  ILE68       0.2287
     24  O         10.4160    7.5020   40.0930 O.2    68  ILE68      -0.2864
     25  CB        10.4100    6.9070   43.0730 C.3    68  ILE68       0.0276
     26  CG1        9.8960    6.1900   44.3210 C.3    68  ILE68       0.0022
     27  CG2       11.1690    8.1210   43.5100 C.3    68  ILE68       0.0022
     28  CD1       11.0110    5.7600   45.2790 C.3    68  ILE68       0.0001
     29  N         11.9470   10.8270   38.7330 N.3    70  ARG70      -0.1245
     30  CA        13.3780   11.0530   38.5970 C.3    70  ARG70       0.1563
     31  C         13.6580   12.5210   38.3330 C.2    70  ARG70       0.2260
     32  O         12.8550   13.2100   37.7020 O.2    70  ARG70      -0.2867
     33  CB        13.9400   10.1900   37.4600 C.3    70  ARG70       0.0307
     34  CG        15.4260   10.3110   37.2560 C.3    70  ARG70       0.0489
     35  CD        15.9400    9.2910   36.2640 C.3    70  ARG70       0.2205
     36  NE        15.8890    7.9210   36.7560 N.pl3  70  ARG70      -0.0865
     37  CZ        16.8820    7.3140   37.3890 C.cat  70  ARG70       0.5346
     38  NH1       18.0100    7.9540   37.6120 N.pl3  70  ARG70       0.1354
     39  NH2       16.7450    6.0640   37.8000 N.pl3  70  ARG70       0.1354
     40  N         17.9910    9.4030   51.6830 N.3    89  GLU89      -0.1231
     41  CA        18.3690    8.0110   51.9680 C.3    89  GLU89       0.1699
     42  C         19.2160    7.4530   50.8370 C.2    89  GLU89       0.2592
     43  O         19.2990    8.0460   49.7740 O.2    89  GLU89      -0.2718
     44  CB        17.1360    7.1180   52.1650 C.3    89  GLU89       0.0402
     45  CG        16.0060    7.7700   52.9200 C.3    89  GLU89       0.1161
     46  CD        14.8230    6.8490   53.1060 C.2    89  GLU89       0.3649
     47  OE1       14.3580    6.2850   52.0920 O.co2  89  GLU89      -0.2457
     48  OE2       14.3780    6.6730   54.2670 O.co2  89  GLU89      -0.2457
     49  N         19.8270    6.2990   51.0590 N.am   90  GLU90      -0.1966
     50  CA        20.5910    5.6520   50.0030 C.3    90  GLU90       0.1733
     51  C         19.7140    4.8010   49.1050 C.2    90  GLU90       0.2616
     52  O         18.9110    3.9950   49.5680 O.2    90  GLU90      -0.2715
     53  CB        21.7020    4.7840   50.5770 C.3    90  GLU90       0.0429
     54  CG        22.3450    3.9060   49.5370 C.3    90  GLU90       0.1163
     55  CD        23.5910    3.2640   50.0540 C.2    90  GLU90       0.3649
     56  OE1       24.1950    2.4500   49.3270 O.co2  90  GLU90      -0.2457
     57  OE2       23.9660    3.5840   51.2000 O.co2  90  GLU90      -0.2457
     58  N         19.8890    4.9870   47.8060 N.am   91  LYS91      -0.1963
     59  CA        19.2420    4.1500   46.8160 C.3    91  LYS91       0.1728
     60  C         19.9370    2.8060   46.7570 C.2    91  LYS91       0.2616
     61  O         21.1080    2.7240   46.3850 O.2    91  LYS91      -0.2715
     62  CB        19.2710    4.8220   45.4550 C.3    91  LYS91       0.0311
     63  CG        18.2030    4.3660   44.5430 C.3    91  LYS91       0.0038
     64  CD        18.0800    5.3360   43.4100 C.3    91  LYS91       0.0206
     65  CE        16.9640    4.9340   42.5130 C.3    91  LYS91       0.1093
     66  NZ        17.1930    3.5410   42.0530 N.3    91  LYS91      -0.1314
     67  N         19.2150    1.7600   47.1420 N.am   92  MET92      -0.1977
     68  CA        19.7530    0.4000   47.1350 C.3    92  MET92       0.1605
     69  C         19.4760   -0.3050   45.8140 C.2    92  MET92       0.2287
     70  O         18.3280   -0.4800   45.4140 O.2    92  MET92      -0.2864
     71  CB        19.1690   -0.4210   48.2950 C.3    92  MET92       0.0413
     72  CG        19.5020    0.1360   49.6830 C.3    92  MET92       0.0598
     73  SD        21.2700    0.4130   49.9240 S.3    92  MET92      -0.1393
     74  CE        21.8730   -1.2450   50.2500 C.3    92  MET92       0.0692
     75  N         12.7530   -4.6200   44.5380 N.3    96  ASN96      -0.1240
     76  CA        11.6140   -4.1880   45.3210 C.3    96  ASN96       0.1653
     77  C         10.8300   -5.3340   45.9220 C.2    96  ASN96       0.2266
     78  O         10.4420   -6.2550   45.2260 O.2    96  ASN96      -0.2867
     79  CB        10.6910   -3.3370   44.4490 C.3    96  ASN96       0.1155
     80  CG         9.7540   -2.4800   45.2690 C.2    96  ASN96       0.2627
     81  OD1        9.2360   -2.9130   46.3050 O.2    96  ASN96      -0.2716
     82  ND2        9.5420   -1.2520   44.8230 N.am   96  ASN96      -0.0877
     83  N          7.7270   -6.7980   42.4340 N.3   112  ARG112     -0.1245
     84  CA         7.0790   -5.5570   42.0330 C.3   112  ARG112      0.1563
     85  C          5.7820   -5.7720   41.2620 C.2   112  ARG112      0.2260
     86  O          4.8510   -4.9700   41.3720 O.2   112  ARG112     -0.2867
     87  CB         8.0200   -4.7050   41.1960 C.3   112  ARG112      0.0307
     88  CG         7.5450   -3.2710   41.0160 C.3   112  ARG112      0.0489
     89  CD         7.5590   -2.4750   42.3440 C.3   112  ARG112      0.2205
     90  NE         7.0280   -1.1140   42.1930 N.pl3 112  ARG112     -0.0865
     91  CZ         7.6740   -0.1310   41.5690 C.cat 112  ARG112      0.5346
     92  NH1        8.8700   -0.3560   41.0330 N.pl3 112  ARG112      0.1354
     93  NH2        7.1410    1.0760   41.4900 N.pl3 112  ARG112      0.1354
     94  N         14.3720   -3.2420   49.8650 N.3   145  GLU145     -0.1245
     95  CA        15.1930   -3.6780   48.7720 C.3   145  GLU145      0.1567
     96  C         15.9970   -4.9100   49.1700 C.2   145  GLU145      0.2260
     97  O         16.8390   -4.8460   50.0550 O.2   145  GLU145     -0.2867
     98  CB        16.1190   -2.5590   48.3310 C.3   145  GLU145      0.0388
     99  CG        16.5650   -2.6810   46.8840 C.3   145  GLU145      0.1160
    100  CD        15.5030   -2.2130   45.8900 C.2   145  GLU145      0.3649
    101  OE1       14.3840   -1.8350   46.3020 O.co2 145  GLU145     -0.2457
    102  OE2       15.7960   -2.2200   44.6770 O.co2 145  GLU145     -0.2457
    103  N         12.6680    0.6380   53.2540 N.3   169  PHE169     -0.1241
    104  CA        12.6200    2.0580   52.9760 C.3   169  PHE169      0.1605
    105  C         11.2140    2.5970   53.1190 C.2   169  PHE169      0.2264
    106  O         10.9800    3.7690   52.8560 O.2   169  PHE169     -0.2867
    107  CB        13.1600    2.3730   51.5730 C.3   169  PHE169      0.0534
    108  CG        12.6160    1.4910   50.4810 C.ar  169  PHE169     -0.0203
    109  CD1       11.3030    1.5940   50.0670 C.ar  169  PHE169     -0.0042
    110  CD2       13.4400    0.5870   49.8390 C.ar  169  PHE169     -0.0042
    111  CE1       10.8060    0.7800   49.0560 C.ar  169  PHE169     -0.0003
    112  CE2       12.9570   -0.2270   48.8060 C.ar  169  PHE169     -0.0003
    113  CZ        11.6370   -0.1400   48.4220 C.ar  169  PHE169     -0.0000
    114  N         17.1610    1.2250   55.4870 N.3   197  VAL197     -0.1245
    115  CA        18.0940    1.7760   54.4950 C.3   197  VAL197      0.1561
    116  C         18.8540    2.9200   55.1200 C.2   197  VAL197      0.2260
    117  O         18.2720    3.6770   55.8810 O.2   197  VAL197     -0.2867
    118  CB        17.3890    2.3240   53.2330 C.3   197  VAL197      0.0252
    119  CG1       17.1010    1.2220   52.2200 C.3   197  VAL197      0.0019
    120  CG2       16.1380    3.1020   53.6110 C.3   197  VAL197      0.0019
    121  N         24.6930    3.0330   43.9790 N.3   225  GLU225     -0.1245
    122  CA        23.7610    3.4250   42.9340 C.3   225  GLU225      0.1567
    123  C         23.3460    4.8740   43.0470 C.2   225  GLU225      0.2260
    124  O         23.3030    5.5830   42.0470 O.2   225  GLU225     -0.2867
    125  CB        22.5140    2.5430   42.9320 C.3   225  GLU225      0.0388
    126  CG        21.6810    2.7160   41.6560 C.3   225  GLU225      0.1160
    127  CD        20.2500    2.2090   41.7910 C.2   225  GLU225      0.3649
    128  OE1       19.8660    1.8380   42.9160 O.co2 225  GLU225     -0.2457
    129  OE2       19.5020    2.1870   40.7820 O.co2 225  GLU225     -0.2457
    130  N         17.7730    8.4800   47.2420 N.3   228  VAL228     -0.1245
    131  CA        16.3290    8.7080   47.1630 C.3   228  VAL228      0.1561
    132  C         15.9670    9.8230   48.1350 C.2   228  VAL228      0.2260
    133  O         16.2060    9.7120   49.3250 O.2   228  VAL228     -0.2867
    134  CB        15.5030    7.4540   47.5220 C.3   228  VAL228      0.0252
    135  CG1       14.0530    7.8290   47.8410 C.3   228  VAL228      0.0019
    136  CG2       15.5860    6.4040   46.4280 C.3   228  VAL228      0.0019
    137  N         13.3370   12.4010   50.1230 N.3   230  LYS230     -0.1245
    138  CA        11.9710   12.2690   50.6470 C.3   230  LYS230      0.1561
    139  C         11.4950   13.4730   51.4620 C.2   230  LYS230      0.2260
    140  O         12.2460   14.0950   52.2250 O.2   230  LYS230     -0.2867
    141  CB        11.8420   10.9850   51.4870 C.3   230  LYS230      0.0271
    142  CG        12.1960    9.7030   50.7230 C.3   230  LYS230      0.0035
    143  CD        11.8930    8.4250   51.5170 C.3   230  LYS230      0.0206
    144  CE        11.8480    7.1820   50.6110 C.3   230  LYS230      0.1093
    145  NZ        10.8210    6.1680   50.9610 N.3   230  LYS230     -0.1314
    146  N         14.1020   10.3170   42.8950 N.3   240  LYS240     -0.1245
    147  CA        15.3370    9.5380   42.8160 C.3   240  LYS240      0.1561
    148  C         16.3500   10.2200   41.8980 C.2   240  LYS240      0.2260
    149  O         15.9890   10.9060   40.9550 O.2   240  LYS240     -0.2867
    150  CB        15.0500    8.1130   42.3360 C.3   240  LYS240      0.0271
    151  CG        14.1760    8.0500   41.0990 C.3   240  LYS240      0.0035
    152  CD        14.0240    6.6410   40.5680 C.3   240  LYS240      0.0206
    153  CE        13.2860    6.6710   39.2330 C.3   240  LYS240      0.1093
    154  NZ        12.9050    5.3070   38.7510 N.3   240  LYS240     -0.1314
    155  N         24.8250    0.1730   34.7190 N.3   250  GLU250     -0.1245
    156  CA        23.6550   -0.2870   33.9880 C.3   250  GLU250      0.1567
    157  C         23.9520   -0.3910   32.5200 C.2   250  GLU250      0.2260
    158  O         23.6070   -1.3850   31.8710 O.2   250  GLU250     -0.2867
    159  CB        22.4790    0.6560   34.1860 C.3   250  GLU250      0.0388
    160  CG        21.8640    0.5860   35.5370 C.3   250  GLU250      0.1160
    161  CD        20.7410    1.5710   35.6740 C.2   250  GLU250      0.3649
    162  OE1       20.5690    2.3660   34.7200 O.co2 250  GLU250     -0.2457
    163  OE2       20.0480    1.5490   36.7260 O.co2 250  GLU250     -0.2457
@<TRIPOS>BOND
     1   158   157    2
     2   157   156    1
     3   156   159    1
     4   156   155    1
     5   159   160    1
     6   162   161   ar
     7    20    19    1
     8   160   161    1
     9   161   163   ar
    10    19    18    1
    11    35    36    1
    12    35    34    1
    13    36    37    2
    14    18    17    1
    15    34    33    1
    16    37    38    1
    17    37    39    1
    18    33    30    1
    19    32    31    2
    20    31    30    1
    21    17    16    1
    22    30    29    1
    23   154   153    1
    24   153   152    1
    25    16    13    1
    26    24    23    2
    27   152   151    1
    28    13    14    1
    29    13    12    1
    30   129   127   ar
    31   149   148    2
    32    23    22    1
    33    88    87    1
    34    88    89    1
    35    92    91    1
    36   151   150    1
    37    87    84    1
    38    85    86    2
    39    85    84    1
    40    14    21   am
    41    14    15    2
    42    93    91    1
    43    91    90    2
    44    21    22    1
    45   126   127    1
    46   126   125    1
    47   127   128   ar
    48   148   147    1
    49    84    83    1
    50   124   123    2
    51    66    65    1
    52    22    25    1
    53    90    89    1
    54   150   147    1
    55    65    64    1
    56   147   146    1
    57     4     3    2
    58   125   122    1
    59   122   123    1
    60   122   121    1
    61    25    27    1
    62    25    26    1
    63    64    63    1
    64     3     2    1
    65    26    28    1
    66    79    80    1
    67    79    76    1
    68    75    76    1
    69    63    62    1
    70   102   100   ar
    71     1     2    1
    72    82    80   am
    73     2     5    1
    74    78    77    2
    75    80    81    2
    76    76    77    1
    77    70    69    2
    78     5     6    1
    79    62    59    1
    80     8    10   ar
    81     8     6   ar
    82    69    68    1
    83   100   101   ar
    84   100    99    1
    85    10    11   ar
    86     6     7   ar
    87    61    60    2
    88   136   134    1
    89    60    59    1
    90    60    67   am
    91    59    58    1
    92    99    98    1
    93    68    67    1
    94    68    71    1
    95   131   130    1
    96   131   134    1
    97   131   132    1
    98    11     9   ar
    99     7     9   ar
   100   134   135    1
   101    58    51   am
   102   132   133    2
   103    71    72    1
   104    98    95    1
   105   113   112   ar
   106   113   111   ar
   107    95    96    1
   108    95    94    1
   109   112   110   ar
   110   111   109   ar
   111    51    52    2
   112    51    50    1
   113    96    97    2
   114    56    55   ar
   115    54    55    1
   116    54    53    1
   117    72    73    1
   118    43    42    2
   119   110   108   ar
   120    73    74    1
   121    50    53    1
   122    50    49    1
   123    55    57   ar
   124   109   108   ar
   125   137   138    1
   126   108   107    1
   127   144   145    1
   128   144   143    1
   129   138   139    1
   130   138   141    1
   131   142   141    1
   132   142   143    1
   133    42    49   am
   134    42    41    1
   135   139   140    2
   136   107   104    1
   137    40    41    1
   138    41    44    1
   139    47    46   ar
   140    44    45    1
   141   119   118    1
   142   106   105    2
   143    45    46    1
   144   104   105    1
   145   104   103    1
   146    46    48   ar
   147   118   120    1
   148   118   115    1
   149   115   116    1
   150   115   114    1
   151   116   117    2
