@<TRIPOS>MOLECULE
tmp/5d1rA00.pdb
 135 132 0 0 0
SMALL
GASTEIGER

@<TRIPOS>ATOM
      1  N        -28.9030   -5.4130  164.1950 N.3    60  TYR60      -0.1241
      2  CA       -27.9840   -6.4800  163.8900 C.3    60  TYR60       0.1605
      3  C        -28.5360   -7.8220  164.4140 C.2    60  TYR60       0.2264
      4  O        -28.4220   -8.8480  163.7550 O.2    60  TYR60      -0.2867
      5  CB       -26.6310   -6.2190  164.5340 C.3    60  TYR60       0.0534
      6  CG       -25.7010   -5.2540  163.8560 C.ar   60  TYR60      -0.0201
      7  CD1      -25.2640   -5.4560  162.5400 C.ar   60  TYR60      -0.0009
      8  CD2      -25.1820   -4.1750  164.5550 C.ar   60  TYR60      -0.0009
      9  CE1      -24.3990   -4.5860  161.9420 C.ar   60  TYR60       0.0417
     10  CE2      -24.2700   -3.3000  163.9700 C.ar   60  TYR60       0.0417
     11  CZ       -23.8860   -3.5110  162.6740 C.ar   60  TYR60       0.1957
     12  OH       -23.0020   -2.6380  162.1280 O.3    60  TYR60      -0.2866
     13  N        -20.0140    3.5590  166.8900 N.3   114  ALA114     -0.1245
     14  CA       -20.5830    2.4990  167.7040 C.3   114  ALA114      0.1562
     15  C        -19.5220    1.9110  168.6110 C.2   114  ALA114      0.2260
     16  O        -18.4080    1.6530  168.1600 O.2   114  ALA114     -0.2867
     17  CB       -21.1740    1.4110  166.8120 C.3   114  ALA114      0.0290
     18  N        -17.4960   -0.8370  170.0410 N.3   116  PRO116     -0.2116
     19  CA       -17.2770   -2.1880  169.5230 C.3   116  PRO116      0.1372
     20  C        -17.6070   -3.2740  170.5280 C.2   116  PRO116      0.2244
     21  O        -17.9730   -4.3810  170.1300 O.2   116  PRO116     -0.2868
     22  CB       -15.7950   -2.1890  169.1630 C.3   116  PRO116      0.0268
     23  CG       -15.4610   -0.7700  168.9670 C.3   116  PRO116      0.0207
     24  CD       -16.2720   -0.0260  169.9580 C.3   116  PRO116      0.0892
     25  N        -21.4270   -3.9100  169.8390 N.3   119  THR119     -0.1203
     26  CA       -21.8780   -4.0040  168.4820 C.3   119  THR119      0.1994
     27  C        -21.0670   -5.0130  167.6400 C.2   119  THR119      0.2617
     28  O        -21.6170   -5.6340  166.7390 O.2   119  THR119     -0.2717
     29  CB       -21.7880   -2.5910  167.9380 C.3   119  THR119      0.1784
     30  OG1      -23.1010   -2.1390  167.5850 O.3   119  THR119     -0.2211
     31  CG2      -20.8100   -2.4710  166.7980 C.3   119  THR119      0.0376
     32  N        -19.7930   -5.2200  167.9660 N.am  120  ALA120     -0.1979
     33  CA       -18.8780   -5.9930  167.1010 C.3   120  ALA120      0.1597
     34  C        -19.2900   -7.4490  166.9340 C.2   120  ALA120      0.2287
     35  O        -19.3100   -7.9860  165.8110 O.2   120  ALA120     -0.2864
     36  CB       -17.4220   -5.9010  167.6180 C.3   120  ALA120      0.0319
     37  N        -22.5000   -7.8970  164.8680 N.3   123  ALA123     -0.1231
     38  CA       -22.2650   -7.3810  163.5400 C.3   123  ALA123      0.1694
     39  C        -21.5180   -8.3890  162.6640 C.2   123  ALA123      0.2592
     40  O        -21.3850   -8.1840  161.4530 O.2   123  ALA123     -0.2718
     41  CB       -21.4600   -6.1150  163.6220 C.3   123  ALA123      0.0304
     42  N        -21.0240   -9.4560  163.2770 N.am  124  THR124     -0.1953
     43  CA       -20.3130  -10.4770  162.5320 C.3   124  THR124      0.1897
     44  C        -21.1330  -11.7640  162.3760 C.2   124  THR124      0.2313
     45  O        -20.6480  -12.7510  161.7840 O.2   124  THR124     -0.2863
     46  CB       -18.9230  -10.8140  163.1840 C.3   124  THR124      0.1794
     47  OG1      -19.0990  -11.2570  164.5320 O.3   124  THR124     -0.2208
     48  CG2      -17.9950   -9.6050  163.1570 C.3   124  THR124      0.0378
     49  N        -22.0520  -12.5030  158.3880 N.3   127  VAL127     -0.1245
     50  CA       -20.7830  -12.7940  157.7490 C.3   127  VAL127      0.1561
     51  C        -20.3460  -14.1830  158.1760 C.2   127  VAL127      0.2260
     52  O        -19.9380  -15.0160  157.3490 O.2   127  VAL127     -0.2867
     53  CB       -19.7430  -11.7360  158.1290 C.3   127  VAL127      0.0252
     54  CG1      -18.3830  -12.3060  157.9430 C.3   127  VAL127      0.0019
     55  CG2      -19.9770  -10.4760  157.2780 C.3   127  VAL127      0.0019
     56  N        -22.2980  -16.9660  156.4580 N.3   130  PHE130     -0.1227
     57  CA       -21.8510  -17.1680  155.0890 C.3   130  PHE130      0.1736
     58  C        -20.5840  -18.0280  155.0900 C.2   130  PHE130      0.2595
     59  O        -20.4770  -18.9370  154.2830 O.2   130  PHE130     -0.2718
     60  CB       -21.5610  -15.8150  154.3800 C.3   130  PHE130      0.0547
     61  CG       -22.7670  -15.2060  153.6710 C.ar  130  PHE130     -0.0202
     62  CD1      -23.5030  -15.9460  152.7410 C.ar  130  PHE130     -0.0042
     63  CD2      -23.1450  -13.8920  153.9000 C.ar  130  PHE130     -0.0042
     64  CE1      -24.5810  -15.3960  152.0430 C.ar  130  PHE130     -0.0003
     65  CE2      -24.2420  -13.3310  153.2170 C.ar  130  PHE130     -0.0003
     66  CZ       -24.9650  -14.1100  152.2710 C.ar  130  PHE130     -0.0000
     67  N        -19.6460  -17.7480  156.0060 N.am  131  PHE131     -0.1976
     68  CA       -18.4010  -18.5110  156.0860 C.3   131  PHE131      0.1639
     69  C        -18.6960  -19.9770  156.4220 C.2   131  PHE131      0.2290
     70  O        -18.0950  -20.8680  155.8310 O.2   131  PHE131     -0.2864
     71  CB       -17.4600  -17.9520  157.1400 C.3   131  PHE131      0.0560
     72  CG       -16.6160  -16.7900  156.6890 C.ar  131  PHE131     -0.0200
     73  CD1      -15.9120  -16.8320  155.4880 C.ar  131  PHE131     -0.0042
     74  CD2      -16.4750  -15.6710  157.5100 C.ar  131  PHE131     -0.0042
     75  CE1      -15.1350  -15.7780  155.0970 C.ar  131  PHE131     -0.0003
     76  CE2      -15.6780  -14.6210  157.1240 C.ar  131  PHE131     -0.0003
     77  CZ       -15.0020  -14.6780  155.9120 C.ar  131  PHE131     -0.0000
     78  N         -8.4230  -13.1050  159.3250 N.3   161  ILE161     -0.1245
     79  CA        -9.8690  -13.3510  159.1380 C.3   161  ILE161      0.1561
     80  C        -10.2480  -14.8510  159.2690 C.2   161  ILE161      0.2260
     81  O        -11.1880  -15.2060  159.9800 O.2   161  ILE161     -0.2867
     82  CB       -10.3280  -12.7330  157.7970 C.3   161  ILE161      0.0252
     83  CG1      -10.3710  -11.2130  157.9630 C.3   161  ILE161      0.0019
     84  CG2      -11.6920  -13.2680  157.3400 C.3   161  ILE161      0.0019
     85  CD1      -10.3660  -10.4500  156.6830 C.3   161  ILE161      0.0001
     86  N        -12.7840  -16.4380  162.1890 N.3   165  PHE165     -0.1241
     87  CA       -14.0510  -17.0430  161.8410 C.3   165  PHE165      0.1605
     88  C        -13.9740  -18.5510  161.7580 C.2   165  PHE165      0.2264
     89  O        -14.9440  -19.1940  161.3810 O.2   165  PHE165     -0.2867
     90  CB       -14.5270  -16.4360  160.5300 C.3   165  PHE165      0.0534
     91  CG       -15.0690  -15.0470  160.6930 C.ar  165  PHE165     -0.0203
     92  CD1      -16.3940  -14.8530  161.0670 C.ar  165  PHE165     -0.0042
     93  CD2      -14.2630  -13.9220  160.4890 C.ar  165  PHE165     -0.0042
     94  CE1      -16.9020  -13.5260  161.2220 C.ar  165  PHE165     -0.0003
     95  CE2      -14.7640  -12.6140  160.6630 C.ar  165  PHE165     -0.0003
     96  CZ       -16.0740  -12.4310  161.0260 C.ar  165  PHE165     -0.0000
     97  N        -15.2990  -14.4190  149.1070 N.3   177  CYS177     -0.1221
     98  CA       -16.2140  -14.1410  150.2090 C.3   177  CYS177      0.1808
     99  C        -16.4050  -12.6300  150.3290 C.2   177  CYS177      0.2601
    100  O        -17.5330  -12.1570  150.4780 O.2   177  CYS177     -0.2717
    101  CB       -15.7590  -14.7390  151.5250 C.3   177  CYS177      0.0970
    102  SG       -15.8400  -16.5140  151.5620 S.3   177  CYS177     -0.0800
    103  N        -15.3370  -11.8570  150.1880 N.am  178  PHE178     -0.1976
    104  CA       -15.4990  -10.4170  150.1920 C.3   178  PHE178      0.1639
    105  C        -16.3780   -9.9420  149.0490 C.2   178  PHE178      0.2290
    106  O        -17.2290   -9.0440  149.2370 O.2   178  PHE178     -0.2864
    107  CB       -14.1390   -9.7120  150.1930 C.3   178  PHE178      0.0560
    108  CG       -13.6040   -9.5190  151.5630 C.ar  178  PHE178     -0.0200
    109  CD1      -13.7820   -8.3130  152.2260 C.ar  178  PHE178     -0.0042
    110  CD2      -12.9650  -10.5520  152.2120 C.ar  178  PHE178     -0.0042
    111  CE1      -13.2880   -8.1290  153.5050 C.ar  178  PHE178     -0.0003
    112  CE2      -12.4540  -10.3810  153.4960 C.ar  178  PHE178     -0.0003
    113  CZ       -12.6490   -9.1640  154.1650 C.ar  178  PHE178     -0.0000
    114  N        -18.8190  -11.6230  147.5850 N.3   180  LEU180     -0.1231
    115  CA       -20.2010  -11.9860  147.8820 C.3   180  LEU180      0.1693
    116  C        -20.8320  -10.9830  148.8410 C.2   180  LEU180      0.2592
    117  O        -21.9620  -10.5450  148.6360 O.2   180  LEU180     -0.2718
    118  CB       -20.2560  -13.3820  148.4660 C.3   180  LEU180      0.0284
    119  CG       -21.5500  -13.9150  149.0970 C.3   180  LEU180      0.0019
    120  CD1      -22.5700  -14.1970  148.0470 C.3   180  LEU180      0.0001
    121  CD2      -21.2490  -15.2240  149.8530 C.3   180  LEU180      0.0001
    122  N        -20.1190  -10.6180  149.8990 N.am  181  TRP181     -0.1976
    123  CA       -20.6590   -9.6790  150.8710 C.3   181  TRP181      0.1640
    124  C        -20.9130   -8.3320  150.2060 C.2   181  TRP181      0.2290
    125  O        -21.9860   -7.7480  150.3520 O.2   181  TRP181     -0.2864
    126  CB       -19.7460   -9.5840  152.1250 C.3   181  TRP181      0.0576
    127  CG       -20.2930   -8.7980  153.2860 C.ar  181  TRP181      0.0006
    128  CD1      -19.6490   -7.8170  153.9820 C.ar  181  TRP181      0.0946
    129  CD2      -21.5800   -8.9490  153.9110 C.ar  181  TRP181      0.0152
    130  NE1      -20.4590   -7.3420  155.0010 N.ar  181  TRP181     -0.2442
    131  CE2      -21.6510   -8.0110  154.9630 C.ar  181  TRP181      0.0810
    132  CE3      -22.6830   -9.7840  153.6770 C.ar  181  TRP181      0.0012
    133  CZ2      -22.7670   -7.9020  155.7890 C.ar  181  TRP181      0.0191
    134  CZ3      -23.8080   -9.6420  154.4760 C.ar  181  TRP181      0.0001
    135  CH2      -23.8360   -8.7160  155.5240 C.ar  181  TRP181      0.0015
@<TRIPOS>BOND
     1   114   115    1
     2   115   118    1
     3   115   116    1
     4   120   119    1
     5   118   119    1
     6   117   116    2
     7   116   122   am
     8   105   106    2
     9   105   104    1
    10   119   121    1
    11    97    98    1
    12   122   123    1
    13   103   104    1
    14   103    99   am
    15   104   107    1
    16   107   108    1
    17   124   125    2
    18   124   123    1
    19    98    99    1
    20    98   101    1
    21    99   100    2
    22   123   126    1
    23   101   102    1
    24   108   110   ar
    25   108   109   ar
    26    64    66   ar
    27    64    62   ar
    28   126   127    1
    29   110   112   ar
    30   109   111   ar
    31    66    65   ar
    32    62    61   ar
    33    65    63   ar
    34   127   129   ar
    35   127   128   ar
    36   112   113   ar
    37   111   113   ar
    38    61    63   ar
    39    61    60    1
    40   132   129   ar
    41   132   134   ar
    42   129   131   ar
    43   128   130   ar
    44    59    58    2
    45    60    57    1
    46   134   135   ar
    47   131   130   ar
    48   131   133   ar
    49    57    58    1
    50    57    56    1
    51    58    67   am
    52    75    73   ar
    53    75    77   ar
    54    73    72   ar
    55   135   133   ar
    56    70    69    2
    57    77    76   ar
    58    67    68    1
    59    68    69    1
    60    68    71    1
    61    85    83    1
    62    72    71    1
    63    72    74   ar
    64    76    74   ar
    65    55    53    1
    66    84    82    1
    67    52    51    2
    68    50    53    1
    69    50    51    1
    70    50    49    1
    71    82    83    1
    72    82    79    1
    73    54    53    1
    74    79    80    1
    75    79    78    1
    76    80    81    2
    77    93    95   ar
    78    93    91   ar
    79    90    91    1
    80    90    87    1
    81    95    96   ar
    82    91    92   ar
    83    96    94   ar
    84    92    94   ar
    85    89    88    2
    86    40    39    2
    87    88    87    1
    88    45    44    2
    89    87    86    1
    90     9     7   ar
    91     9    11   ar
    92    12    11    1
    93    44    43    1
    94    43    46    1
    95    43    42    1
    96     7     6   ar
    97    39    42   am
    98    39    38    1
    99    11    10   ar
   100    48    46    1
   101    46    47    1
   102    38    41    1
   103    38    37    1
   104     4     3    2
   105     6     5    1
   106     6     8   ar
   107     2     1    1
   108     2     3    1
   109     2     5    1
   110    10     8   ar
   111    35    34    2
   112    28    27    2
   113    31    29    1
   114    17    14    1
   115    13    14    1
   116    34    33    1
   117    33    36    1
   118    33    32    1
   119    30    29    1
   120    27    32   am
   121    27    26    1
   122    14    15    1
   123    29    26    1
   124    16    15    2
   125    26    25    1
   126    23    22    1
   127    23    24    1
   128    22    19    1
   129    19    18    1
   130    19    20    1
   131    24    18    1
   132    21    20    2
