@<TRIPOS>MOLECULE
tmp/5d1tA00.pdb
 177 173 0 0 0
SMALL
GASTEIGER

@<TRIPOS>ATOM
      1  N          5.9720   10.6350   23.0350 N.3    62  ASP62      -0.1225
      2  CA         6.3070   12.0450   23.2020 C.3    62  ASP62       0.1805
      3  C          6.6710   12.6710   21.8580 C.2    62  ASP62       0.2597
      4  O          6.1760   13.7460   21.5040 O.2    62  ASP62      -0.2718
      5  CB         7.4750   12.2150   24.1830 C.3    62  ASP62       0.1424
      6  CG         7.0260   12.2550   25.6340 C.2    62  ASP62       0.3668
      7  OD1        5.7980   12.2820   25.8810 O.co2  62  ASP62      -0.2456
      8  OD2        7.9030   12.2530   26.5280 O.co2  62  ASP62      -0.2456
      9  N          7.5290   11.9780   21.1090 N.am   63  PHE63      -0.1976
     10  CA         8.1510   12.5280   19.9020 C.3    63  PHE63       0.1639
     11  C          7.2210   12.6620   18.7040 C.2    63  PHE63       0.2290
     12  O          7.5050   13.4190   17.7760 O.2    63  PHE63      -0.2864
     13  CB         9.3500   11.6700   19.4980 C.3    63  PHE63       0.0560
     14  CG        10.6640   12.2050   19.9820 C.ar   63  PHE63      -0.0200
     15  CD1       10.7090   13.1350   21.0120 C.ar   63  PHE63      -0.0042
     16  CD2       11.8530   11.7880   19.4080 C.ar   63  PHE63      -0.0042
     17  CE1       11.9170   13.6360   21.4650 C.ar   63  PHE63      -0.0003
     18  CE2       13.0640   12.2850   19.8540 C.ar   63  PHE63      -0.0003
     19  CZ        13.0960   13.2090   20.8860 C.ar   63  PHE63      -0.0000
     20  N         16.7740   16.7600   19.3360 N.3   365  VAL365     -0.1231
     21  CA        15.4700   16.9700   19.9310 C.3   365  VAL365      0.1692
     22  C         14.9110   18.3200   19.5060 C.2   365  VAL365      0.2592
     23  O         15.6120   19.3380   19.5740 O.2   365  VAL365     -0.2718
     24  CB        15.5520   16.9170   21.4930 C.3   365  VAL365      0.0266
     25  CG1       14.2490   17.3780   22.1220 C.3   365  VAL365      0.0020
     26  CG2       15.9300   15.5210   21.9690 C.3   365  VAL365      0.0020
     27  N         13.6590   18.3260   19.0610 N.am  366  HIS366     -0.1962
     28  CA        12.9030   19.5670   18.9540 C.3   366  HIS366      0.1787
     29  C         11.8180   19.5630   20.0320 C.2   366  HIS366      0.2621
     30  O         11.2270   18.5320   20.3120 O.2   366  HIS366     -0.2715
     31  CB        12.2800   19.7450   17.5700 C.3   366  HIS366      0.0785
     32  CG        11.3760   20.9400   17.4770 C.ar  366  HIS366      0.0821
     33  ND1       11.7550   22.1880   17.9180 N.ar  366  HIS366     -0.2267
     34  CD2       10.1080   21.0680   17.0130 C.ar  366  HIS366      0.1154
     35  CE1       10.7580   23.0410   17.7220 C.ar  366  HIS366      0.1986
     36  NE2        9.7500   22.3880   17.1760 N.ar  366  HIS366     -0.2212
     37  N         11.5740   20.7200   20.6300 N.am  367  SER367     -0.1936
     38  CA        10.6250   20.8620   21.7310 C.3   367  SER367      0.2055
     39  C         10.5310   22.3230   22.1110 C.2   367  SER367      0.2643
     40  O         11.2270   23.1690   21.5440 O.2   367  SER367     -0.2714
     41  CB        11.0370   20.0310   22.9580 C.3   367  SER367      0.2130
     42  OG        12.3410   20.3730   23.3930 O.3   367  SER367     -0.2179
     43  N          9.6560   22.6190   23.0620 N.am  368  LYS368     -0.1963
     44  CA         9.4710   23.9770   23.5440 C.3   368  LYS368      0.1728
     45  C         10.7600   24.5040   24.1400 C.2   368  LYS368      0.2617
     46  O         11.1290   25.6570   23.9320 O.2   368  LYS368     -0.2715
     47  CB         8.3360   24.0200   24.5870 C.3   368  LYS368      0.0311
     48  CG         8.3610   25.2160   25.5400 C.3   368  LYS368      0.0038
     49  CD         8.1450   26.5620   24.8360 C.3   368  LYS368      0.0206
     50  CE         6.8350   26.6160   24.0910 C.3   368  LYS368      0.1093
     51  NZ         6.6600   27.9130   23.3460 N.3   368  LYS368     -0.1314
     52  N         11.4480   23.6550   24.8960 N.am  369  GLY369     -0.1940
     53  CA        12.6100   24.1000   25.6330 C.3   369  GLY369      0.2014
     54  C         13.6310   23.0070   25.7880 C.2   369  GLY369      0.2639
     55  O         13.2990   21.8300   25.8010 O.2   369  GLY369     -0.2714
     56  N         14.8890   23.4070   25.9050 N.am  370  LEU370     -0.1963
     57  CA        15.9750   22.4650   26.0940 C.3   370  LEU370      0.1728
     58  C         17.0800   23.0620   26.9630 C.2   370  LEU370      0.2616
     59  O         17.3430   24.2660   26.9030 O.2   370  LEU370     -0.2715
     60  CB        16.5480   22.0490   24.7220 C.3   370  LEU370      0.0311
     61  CG        17.1970   20.6800   24.5230 C.3   370  LEU370      0.0022
     62  CD1       16.2240   19.5550   24.9120 C.3   370  LEU370      0.0001
     63  CD2       17.6920   20.5070   23.0330 C.3   370  LEU370      0.0001
     64  N         17.7320   22.2140   27.7500 N.am  371  TYR371     -0.1974
     65  CA        19.0120   22.5670   28.3470 C.3   371  TYR371      0.1639
     66  C         20.0910   21.6260   27.8180 C.2   371  TYR371      0.2290
     67  O         19.9480   20.4090   27.9040 O.2   371  TYR371     -0.2864
     68  CB        18.9760   22.4970   29.8840 C.3   371  TYR371      0.0560
     69  CG        20.3470   22.7680   30.4860 C.ar  371  TYR371     -0.0198
     70  CD1       20.9090   24.0420   30.4290 C.ar  371  TYR371     -0.0009
     71  CD2       21.0990   21.7480   31.0650 C.ar  371  TYR371     -0.0009
     72  CE1       22.1750   24.2990   30.9370 C.ar  371  TYR371      0.0417
     73  CE2       22.3680   21.9990   31.5960 C.ar  371  TYR371      0.0417
     74  CZ        22.8950   23.2740   31.5240 C.ar  371  TYR371      0.1957
     75  OH        24.1410   23.5360   32.0340 O.3   371  TYR371     -0.2866
     76  N          4.2340   23.6740   24.8570 N.3   386  GLY386     -0.1210
     77  CA         4.6760   22.5660   25.6840 C.3   386  GLY386      0.1956
     78  C          3.5070   21.8630   26.3520 C.2   386  GLY386      0.2612
     79  O          2.6010   22.5140   26.8800 O.2   386  GLY386     -0.2717
     80  N          3.5160   20.5340   26.3270 N.am  387  VAL387     -0.1965
     81  CA         2.4530   19.7730   26.9720 C.3   387  VAL387      0.1727
     82  C          2.5160   19.9970   28.4820 C.2   387  VAL387      0.2616
     83  O          3.5470   19.7540   29.1110 O.2   387  VAL387     -0.2715
     84  CB         2.5420   18.2600   26.6580 C.3   387  VAL387      0.0290
     85  CG1        1.5450   17.4750   27.5080 C.3   387  VAL387      0.0023
     86  CG2        2.3150   18.0060   25.1610 C.3   387  VAL387      0.0023
     87  N          1.4090   20.4980   29.0320 N.am  388  GLU388     -0.1963
     88  CA         1.2450   20.7610   30.4660 C.3   388  GLU388      0.1733
     89  C          2.0110   22.0010   30.9220 C.2   388  GLU388      0.2616
     90  O          2.2820   22.1740   32.1090 O.2   388  GLU388     -0.2715
     91  CB         1.6720   19.5510   31.3010 C.3   388  GLU388      0.0429
     92  CG         0.8850   18.2840   31.0240 C.3   388  GLU388      0.1163
     93  CD        -0.5860   18.4460   31.3230 C.2   388  GLU388      0.3649
     94  OE1       -0.9130   19.2330   32.2340 O.co2 388  GLU388     -0.2457
     95  OE2       -1.4110   17.7820   30.6590 O.co2 388  GLU388     -0.2457
     96  N          2.3650   22.8580   29.9730 N.am  389  LEU389     -0.1977
     97  CA         2.9000   24.1750   30.2930 C.3   389  LEU389      0.1596
     98  C          1.8350   25.2020   29.9780 C.2   389  LEU389      0.2287
     99  O          1.1370   25.0680   28.9790 O.2   389  LEU389     -0.2864
    100  CB         4.1650   24.4730   29.4900 C.3   389  LEU389      0.0297
    101  CG         5.4650   23.7710   29.8600 C.3   389  LEU389      0.0022
    102  CD1        6.5450   24.1330   28.8470 C.3   389  LEU389      0.0001
    103  CD2        5.8880   24.1590   31.2750 C.3   389  LEU389      0.0001
    104  N          8.2230   27.2980   31.0020 N.3   395  GLY395     -0.1225
    105  CA         9.1400   26.4580   30.2590 C.3   395  GLY395      0.1811
    106  C         10.5620   26.8250   30.5890 C.2   395  GLY395      0.2280
    107  O         11.3820   25.9570   30.8970 O.2   395  GLY395     -0.2866
    108  N         11.7530   25.6210   34.0330 N.3   398  HIS398     -0.1226
    109  CA        12.0540   24.1960   33.9380 C.3   398  HIS398      0.1752
    110  C         13.4730   23.9630   33.4080 C.2   398  HIS398      0.2595
    111  O         14.2330   23.1650   33.9700 O.2   398  HIS398     -0.2718
    112  CB        11.0200   23.5040   33.0240 C.3   398  HIS398      0.0759
    113  CG        11.3620   22.0870   32.6520 C.ar  398  HIS398      0.0818
    114  ND1       10.7440   20.9930   33.2220 N.ar  398  HIS398     -0.2268
    115  CD2       12.2560   21.5900   31.7600 C.ar  398  HIS398      0.1154
    116  CE1       11.2370   19.8840   32.6900 C.ar  398  HIS398      0.1986
    117  NE2       12.1570   20.2190   31.8030 N.ar  398  HIS398     -0.2212
    118  N         13.8240   24.6400   32.3130 N.am  399  GLU399     -0.1979
    119  CA        15.1410   24.4300   31.7170 C.3   399  GLU399      0.1602
    120  C         16.2170   24.9430   32.6580 C.2   399  GLU399      0.2287
    121  O         17.2960   24.3690   32.7340 O.2   399  GLU399     -0.2864
    122  CB        15.2800   25.1120   30.3490 C.3   399  GLU399      0.0415
    123  CG        14.1780   24.7760   29.2990 C.3   399  GLU399      0.1163
    124  CD        13.9540   23.2820   29.0810 C.2   399  GLU399      0.3649
    125  OE1       12.8230   22.9030   28.7220 O.co2 399  GLU399     -0.2457
    126  OE2       14.8820   22.4760   29.2840 O.co2 399  GLU399     -0.2457
    127  N         17.1650   22.3730   34.9880 N.3   402  HIS402     -0.1241
    128  CA        18.2180   21.4990   34.4560 C.3   402  HIS402      0.1621
    129  C         19.6070   22.0930   34.6710 C.2   402  HIS402      0.2264
    130  O         20.5480   21.3770   35.0230 O.2   402  HIS402     -0.2867
    131  CB        18.0250   21.2260   32.9530 C.3   402  HIS402      0.0745
    132  CG        16.9070   20.2840   32.6340 C.ar  402  HIS402      0.0817
    133  ND1       16.8210   19.0170   33.1760 N.ar  402  HIS402     -0.2268
    134  CD2       15.8580   20.3980   31.7840 C.ar  402  HIS402      0.1154
    135  CE1       15.7480   18.4110   32.7080 C.ar  402  HIS402      0.1986
    136  NE2       15.1450   19.2280   31.8580 N.ar  402  HIS402     -0.2212
    137  N          4.8350   13.9680   33.1280 N.3   440  TYR440     -0.1241
    138  CA         6.1550   14.0010   32.4940 C.3   440  TYR440      0.1605
    139  C          7.2810   13.8900   33.5370 C.2   440  TYR440      0.2264
    140  O          8.3870   13.4530   33.2220 O.2   440  TYR440     -0.2867
    141  CB         6.3180   15.2780   31.6620 C.3   440  TYR440      0.0534
    142  CG         7.6640   15.3950   30.9620 C.ar  440  TYR440     -0.0201
    143  CD1        8.0590   14.4640   30.0080 C.ar  440  TYR440     -0.0009
    144  CD2        8.5320   16.4350   31.2520 C.ar  440  TYR440     -0.0009
    145  CE1        9.2880   14.5590   29.3660 C.ar  440  TYR440      0.0417
    146  CE2        9.7590   16.5440   30.6080 C.ar  440  TYR440      0.0417
    147  CZ        10.1320   15.6050   29.6680 C.ar  440  TYR440      0.1957
    148  OH        11.3530   15.7150   29.0340 O.3   440  TYR440     -0.2866
    149  N         14.2720   14.9320   34.6610 N.3   447  GLU447     -0.1245
    150  CA        13.0280   15.6340   34.3760 C.3   447  GLU447      0.1567
    151  C         12.2120   15.8340   35.6390 C.2   447  GLU447      0.2260
    152  O         11.5530   16.8610   35.8060 O.2   447  GLU447     -0.2867
    153  CB        12.1880   14.8790   33.3400 C.3   447  GLU447      0.0388
    154  CG        12.9210   14.5470   32.0360 C.3   447  GLU447      0.1160
    155  CD        13.5180   15.7570   31.3450 C.2   447  GLU447      0.3649
    156  OE1       13.0030   16.8810   31.5310 O.co2 447  GLU447     -0.2457
    157  OE2       14.5180   15.5760   30.6110 O.co2 447  GLU447     -0.2457
    158  N         11.0160   19.4290   36.7360 N.3   451  GLU451     -0.1245
    159  CA         9.5930   19.6460   36.9700 C.3   451  GLU451      0.1567
    160  C          9.3040   20.1070   38.4050 C.2   451  GLU451      0.2260
    161  O          8.5640   21.0800   38.6230 O.2   451  GLU451     -0.2867
    162  CB         8.8080   18.3690   36.6690 C.3   451  GLU451      0.0388
    163  CG         8.5630   18.1210   35.1940 C.3   451  GLU451      0.1160
    164  CD         7.6890   19.1970   34.5760 C.2   451  GLU451      0.3649
    165  OE1        6.4990   18.9150   34.3380 O.co2 451  GLU451     -0.2457
    166  OE2        8.1840   20.3180   34.3130 O.co2 451  GLU451     -0.2457
    167  N         10.3940   23.5850   38.6890 N.3   454  ARG454     -0.1245
    168  CA         9.4340   24.4890   38.0700 C.3   454  ARG454      0.1563
    169  C          8.2380   24.7410   38.9910 C.2   454  ARG454      0.2260
    170  O          7.9020   25.8840   39.2890 O.2   454  ARG454     -0.2867
    171  CB         8.9440   23.9270   36.7390 C.3   454  ARG454      0.0307
    172  CG         7.7940   24.7080   36.1530 C.3   454  ARG454      0.0489
    173  CD         7.3690   24.1850   34.7830 C.3   454  ARG454      0.2205
    174  NE         6.7920   22.8370   34.8290 N.pl3 454  ARG454     -0.0865
    175  CZ         5.5020   22.5760   35.0430 C.cat 454  ARG454      0.5346
    176  NH1        4.6430   23.5700   35.2490 N.pl3 454  ARG454      0.1354
    177  NH2        5.0660   21.3190   35.0530 N.pl3 454  ARG454      0.1354
@<TRIPOS>BOND
     1    34    36   ar
     2    34    32   ar
     3    36    35   ar
     4    32    31    1
     5    32    33   ar
     6    31    28    1
     7    35    33   ar
     8    12    11    2
     9    11    10    1
    10    28    27    1
    11    28    29    1
    12    27    22   am
    13    20    21    1
    14    16    18   ar
    15    16    14   ar
    16    13    10    1
    17    13    14    1
    18    22    23    2
    19    22    21    1
    20    18    19   ar
    21    10     9    1
    22    21    24    1
    23    14    15   ar
    24    29    30    2
    25    29    37   am
    26    37    38    1
    27    19    17   ar
    28    15    17   ar
    29     9     3   am
    30    24    26    1
    31    24    25    1
    32     4     3    2
    33    40    39    2
    34    38    39    1
    35    38    41    1
    36     3     2    1
    37    39    43   am
    38    41    42    1
    39    63    61    1
    40     1     2    1
    41    43    44    1
    42     2     5    1
    43    51    50    1
    44    44    45    1
    45    44    47    1
    46    46    45    2
    47    50    49    1
    48    45    52   am
    49     5     6    1
    50    61    60    1
    51    61    62    1
    52    47    48    1
    53    60    57    1
    54    49    48    1
    55    76    77    1
    56    52    53    1
    57    86    84    1
    58    53    54    1
    59     6     7   ar
    60     6     8   ar
    61    77    78    1
    62    54    55    2
    63    54    56   am
    64    56    57    1
    65    57    58    1
    66    80    78   am
    67    80    81    1
    68    78    79    2
    69    84    81    1
    70    84    85    1
    71    59    58    2
    72    58    64   am
    73    81    82    1
    74    64    65    1
    75    66    67    2
    76    66    65    1
    77    65    68    1
    78    82    87   am
    79    82    83    2
    80   125   124   ar
    81   102   101    1
    82    99    98    2
    83    87    88    1
    84   148   147    1
    85   124   126   ar
    86   124   123    1
    87   123   122    1
    88   145   147   ar
    89   145   143   ar
    90   100   101    1
    91   100    97    1
    92   147   146   ar
    93   101   103    1
    94    68    69    1
    95    96    97    1
    96    96    89   am
    97    98    97    1
    98   143   142   ar
    99   105   106    1
   100   105   104    1
   101   122   119    1
   102    70    69   ar
   103    70    72   ar
   104    88    89    1
   105    88    91    1
   106    69    71   ar
   107   106   107    2
   108   146   144   ar
   109   157   155   ar
   110    95    93   ar
   111    89    90    2
   112    72    74   ar
   113   142   144   ar
   114   142   141    1
   115    92    91    1
   116    92    93    1
   117    71    73   ar
   118    93    94   ar
   119   155   156   ar
   120   155   154    1
   121    74    73   ar
   122    74    75    1
   123   141   138    1
   124   119   118    1
   125   119   120    1
   126   115   117   ar
   127   115   113   ar
   128   134   136   ar
   129   134   132   ar
   130   117   116   ar
   131   136   135   ar
   132   154   153    1
   133   118   110   am
   134   138   137    1
   135   138   139    1
   136   132   131    1
   137   132   133   ar
   138   113   112    1
   139   113   114   ar
   140   120   121    2
   141   116   114   ar
   142   135   133   ar
   143   131   128    1
   144   112   109    1
   145   140   139    2
   146   153   150    1
   147   110   109    1
   148   110   111    2
   149   109   108    1
   150   166   164   ar
   151   165   164   ar
   152   150   149    1
   153   150   151    1
   154   128   129    1
   155   128   127    1
   156   164   163    1
   157   129   130    2
   158   173   174    1
   159   173   172    1
   160   174   175    2
   161   175   177    1
   162   175   176    1
   163   163   162    1
   164   151   152    2
   165   172   171    1
   166   162   159    1
   167   158   159    1
   168   171   168    1
   169   159   160    1
   170   168   167    1
   171   168   169    1
   172   160   161    2
   173   169   170    2
