@<TRIPOS>MOLECULE
tmp/5d1uA00.pdb
 167 161 0 0 0
SMALL
GASTEIGER

@<TRIPOS>ATOM
      1  N          5.9010   10.4270   23.5040 N.3    62  ASP62      -0.1225
      2  CA         6.5670   11.6780   23.8560 C.3    62  ASP62       0.1805
      3  C          6.8710   12.5380   22.6300 C.2    62  ASP62       0.2597
      4  O          6.4760   13.7030   22.5760 O.2    62  ASP62      -0.2718
      5  CB         7.8640   11.4010   24.6180 C.3    62  ASP62       0.1424
      6  CG         8.2830   12.4900   25.5860 C.2    62  ASP62       0.3668
      7  OD1        7.7000   13.5670   25.6250 O.co2  62  ASP62      -0.2456
      8  OD2        9.2940   12.2290   26.2660 O.co2  62  ASP62      -0.2456
      9  N          7.5670   11.9610   21.6490 N.am   63  PHE63      -0.1976
     10  CA         8.0630   12.7210   20.4960 C.3    63  PHE63       0.1639
     11  C          7.1770   12.6270   19.2480 C.2    63  PHE63       0.2290
     12  O          7.4030   13.3420   18.2730 O.2    63  PHE63      -0.2864
     13  CB         9.4850   12.2660   20.1380 C.3    63  PHE63       0.0560
     14  CG        10.5720   12.7120   21.0660 C.ar   63  PHE63      -0.0200
     15  CD1       10.5390   13.9520   21.7140 C.ar   63  PHE63      -0.0042
     16  CD2       11.6760   11.8640   21.2710 C.ar   63  PHE63      -0.0042
     17  CE1       11.5900   14.3540   22.5170 C.ar   63  PHE63      -0.0003
     18  CE2       12.7240   12.2590   22.0940 C.ar   63  PHE63      -0.0003
     19  CZ        12.6770   13.5190   22.7100 C.ar   63  PHE63      -0.0000
     20  N         16.9550   16.9040   19.4310 N.3   365  VAL365     -0.1245
     21  CA        15.6150   17.0890   19.9550 C.3   365  VAL365      0.1561
     22  C         15.0340   18.4370   19.5790 C.2   365  VAL365      0.2260
     23  O         15.7640   19.4280   19.5760 O.2   365  VAL365     -0.2867
     24  CB        15.6350   16.9460   21.4880 C.3   365  VAL365      0.0252
     25  CG1       14.4100   17.5650   22.1290 C.3   365  VAL365      0.0019
     26  CG2       15.7620   15.5070   21.8440 C.3   365  VAL365      0.0019
     27  N         11.5230   20.8590   20.7990 N.3   367  SER367     -0.1202
     28  CA        10.5170   21.0020   21.8770 C.3   367  SER367      0.2020
     29  C         10.4940   22.4440   22.4180 C.2   367  SER367      0.2619
     30  O         11.2990   23.2570   21.9760 O.2   367  SER367     -0.2717
     31  CB        10.8050   20.0300   23.0190 C.3   367  SER367      0.2103
     32  OG        12.1200   20.2440   23.4970 O.3   367  SER367     -0.2182
     33  N          9.6090   22.7490   23.3780 N.am  368  LYS368     -0.1965
     34  CA         9.4070   24.1300   23.8600 C.3   368  LYS368      0.1728
     35  C         10.6920   24.7480   24.4120 C.2   368  LYS368      0.2617
     36  O         10.9330   25.9510   24.2680 O.2   368  LYS368     -0.2715
     37  CB         8.3060   24.1910   24.9320 C.3   368  LYS368      0.0311
     38  CG         8.1300   25.5450   25.5130 C.3   368  LYS368      0.0038
     39  CD         7.0390   25.5480   26.5240 C.3   368  LYS368      0.0206
     40  CE         6.6740   26.9760   26.7940 C.3   368  LYS368      0.1093
     41  NZ         5.1790   27.0980   26.9420 N.3   368  LYS368     -0.1314
     42  N         11.5240   23.9230   25.0360 N.am  369  GLY369     -0.1940
     43  CA        12.7630   24.4090   25.6050 C.3   369  GLY369      0.2014
     44  C         13.7710   23.3070   25.8560 C.2   369  GLY369      0.2639
     45  O         13.4400   22.1260   25.7870 O.2   369  GLY369     -0.2714
     46  N         15.0070   23.6900   26.1630 N.am  370  LEU370     -0.1963
     47  CA        16.0740   22.7050   26.3110 C.3   370  LEU370      0.1728
     48  C         17.2210   23.2270   27.1870 C.2   370  LEU370      0.2616
     49  O         17.4730   24.4350   27.2440 O.2   370  LEU370     -0.2715
     50  CB        16.6060   22.3040   24.9230 C.3   370  LEU370      0.0311
     51  CG        17.1900   20.9030   24.7320 C.3   370  LEU370      0.0022
     52  CD1       16.0820   19.8580   24.7530 C.3   370  LEU370      0.0001
     53  CD2       17.9630   20.8150   23.4460 C.3   370  LEU370      0.0001
     54  N         17.8990   22.3250   27.8860 N.am  371  TYR371     -0.1974
     55  CA        19.1950   22.6840   28.4350 C.3   371  TYR371      0.1639
     56  C         20.2810   21.7790   27.8600 C.2   371  TYR371      0.2290
     57  O         20.1770   20.5510   27.8660 O.2   371  TYR371     -0.2864
     58  CB        19.2050   22.6190   29.9730 C.3   371  TYR371      0.0560
     59  CG        20.5620   22.9860   30.5580 C.ar  371  TYR371     -0.0198
     60  CD1       21.0150   24.3030   30.5310 C.ar  371  TYR371     -0.0009
     61  CD2       21.4000   22.0190   31.0930 C.ar  371  TYR371     -0.0009
     62  CE1       22.2410   24.6420   31.0170 C.ar  371  TYR371      0.0417
     63  CE2       22.6280   22.3480   31.5910 C.ar  371  TYR371      0.0417
     64  CZ        23.0500   23.6650   31.5560 C.ar  371  TYR371      0.1957
     65  OH        24.2900   24.0150   32.0680 O.3   371  TYR371     -0.2866
     66  N          4.6580   23.6420   24.9740 N.3   386  GLY386     -0.1210
     67  CA         5.0210   22.4320   25.6910 C.3   386  GLY386      0.1956
     68  C          3.8330   21.8180   26.4100 C.2   386  GLY386      0.2612
     69  O          2.9460   22.5390   26.8690 O.2   386  GLY386     -0.2717
     70  N          3.7940   20.4930   26.5020 N.am  387  VAL387     -0.1965
     71  CA         2.6670   19.8470   27.1700 C.3   387  VAL387      0.1727
     72  C          2.7470   20.1180   28.6600 C.2   387  VAL387      0.2616
     73  O          3.7820   19.8560   29.2800 O.2   387  VAL387     -0.2715
     74  CB         2.6200   18.3180   26.9210 C.3   387  VAL387      0.0290
     75  CG1        1.6840   17.6300   27.9130 C.3   387  VAL387      0.0023
     76  CG2        2.1960   18.0190   25.4900 C.3   387  VAL387      0.0023
     77  N          1.6560   20.6890   29.1790 N.am  388  GLU388     -0.1963
     78  CA         1.4450   20.9590   30.5860 C.3   388  GLU388      0.1733
     79  C          2.1400   22.2670   31.0020 C.2   388  GLU388      0.2616
     80  O          2.4710   22.4610   32.1760 O.2   388  GLU388     -0.2715
     81  CB         1.9480   19.7960   31.4330 C.3   388  GLU388      0.0429
     82  CG         1.0480   18.5930   31.5300 C.3   388  GLU388      0.1163
     83  CD         1.7780   17.4090   32.1490 C.2   388  GLU388      0.3649
     84  OE1        3.0170   17.5120   32.3250 O.co2 388  GLU388     -0.2457
     85  OE2        1.1210   16.3860   32.4560 O.co2 388  GLU388     -0.2457
     86  N          2.3430   23.1830   30.0630 N.am  389  LEU389     -0.1977
     87  CA         2.9010   24.4700   30.4330 C.3   389  LEU389      0.1596
     88  C          1.8780   25.5500   30.1950 C.2   389  LEU389      0.2287
     89  O          1.3330   25.6090   29.1090 O.2   389  LEU389     -0.2864
     90  CB         4.1640   24.7500   29.6320 C.3   389  LEU389      0.0297
     91  CG         5.3970   23.9980   30.1190 C.3   389  LEU389      0.0022
     92  CD1        6.5970   24.2570   29.2420 C.3   389  LEU389      0.0001
     93  CD2        5.6770   24.3950   31.5470 C.3   389  LEU389      0.0001
     94  N          8.2280   27.4310   31.1280 N.3   395  GLY395     -0.1225
     95  CA         9.0910   26.4360   30.5200 C.3   395  GLY395      0.1811
     96  C         10.5430   26.7760   30.7130 C.2   395  GLY395      0.2280
     97  O         11.3940   25.8960   30.8720 O.2   395  GLY395     -0.2866
     98  N         11.6770   25.7420   34.1410 N.3   398  HIS398     -0.1226
     99  CA        12.0050   24.3260   34.0220 C.3   398  HIS398      0.1752
    100  C         13.4420   24.1060   33.5050 C.2   398  HIS398      0.2595
    101  O         14.1500   23.2380   34.0210 O.2   398  HIS398     -0.2718
    102  CB        11.0090   23.6050   33.1090 C.3   398  HIS398      0.0759
    103  CG        11.3820   22.1820   32.8190 C.ar  398  HIS398      0.0818
    104  ND1       10.7450   21.1120   33.4040 N.ar  398  HIS398     -0.2268
    105  CD2       12.3370   21.6510   32.0160 C.ar  398  HIS398      0.1154
    106  CE1       11.2820   19.9850   32.9670 C.ar  398  HIS398      0.1986
    107  NE2       12.2540   20.2850   32.1270 N.ar  398  HIS398     -0.2212
    108  N         13.8790   24.8710   32.4980 N.am  399  GLU399     -0.1979
    109  CA        15.2350   24.6770   31.9510 C.3   399  GLU399      0.1602
    110  C         16.3280   25.1730   32.8920 C.2   399  GLU399      0.2287
    111  O         17.3350   24.5130   33.0770 O.2   399  GLU399     -0.2864
    112  CB        15.4000   25.3730   30.5950 C.3   399  GLU399      0.0415
    113  CG        14.3520   25.0170   29.5500 C.3   399  GLU399      0.1163
    114  CD        14.3250   23.5450   29.2340 C.2   399  GLU399      0.3649
    115  OE1       13.2420   23.0500   28.8470 O.co2 399  GLU399     -0.2457
    116  OE2       15.3830   22.8860   29.3720 O.co2 399  GLU399     -0.2457
    117  N         17.2440   22.7250   35.1070 N.3   402  HIS402     -0.1241
    118  CA        18.3000   21.8330   34.6160 C.3   402  HIS402      0.1621
    119  C         19.7180   22.3970   34.8490 C.2   402  HIS402      0.2264
    120  O         20.6620   21.6380   35.1210 O.2   402  HIS402     -0.2867
    121  CB        18.1150   21.5500   33.1330 C.3   402  HIS402      0.0745
    122  CG        17.0170   20.5790   32.8150 C.ar  402  HIS402      0.0817
    123  ND1       16.9810   19.2990   33.3190 N.ar  402  HIS402     -0.2268
    124  CD2       15.9380   20.6930   32.0000 C.ar  402  HIS402      0.1154
    125  CE1       15.9200   18.6680   32.8410 C.ar  402  HIS402      0.1986
    126  NE2       15.2700   19.4910   32.0420 N.ar  402  HIS402     -0.2212
    127  N          4.7200   14.1650   33.5560 N.3   440  TYR440     -0.1241
    128  CA         5.9760   14.1950   32.8080 C.3   440  TYR440      0.1605
    129  C          7.1920   14.0780   33.7330 C.2   440  TYR440      0.2264
    130  O          8.2770   13.6790   33.2910 O.2   440  TYR440     -0.2867
    131  CB         6.0660   15.4780   31.9700 C.3   440  TYR440      0.0534
    132  CG         7.3460   15.5880   31.1720 C.ar  440  TYR440     -0.0201
    133  CD1        7.7430   14.5590   30.3320 C.ar  440  TYR440     -0.0009
    134  CD2        8.1620   16.7070   31.2680 C.ar  440  TYR440     -0.0009
    135  CE1        8.9100   14.6330   29.6120 C.ar  440  TYR440      0.0417
    136  CE2        9.3400   16.7920   30.5430 C.ar  440  TYR440      0.0417
    137  CZ         9.7090   15.7470   29.7180 C.ar  440  TYR440      0.1957
    138  OH        10.8800   15.8010   28.9850 O.3   440  TYR440     -0.2866
    139  N         14.5830   15.1400   34.8900 N.3   447  GLU447     -0.1245
    140  CA        13.3540   15.8430   34.5560 C.3   447  GLU447      0.1567
    141  C         12.5010   16.0120   35.7890 C.2   447  GLU447      0.2260
    142  O         11.8670   17.0520   35.9710 O.2   447  GLU447     -0.2867
    143  CB        12.5570   15.1050   33.4820 C.3   447  GLU447      0.0388
    144  CG        13.2540   14.9360   32.1430 C.3   447  GLU447      0.1160
    145  CD        13.4310   16.2480   31.4130 C.2   447  GLU447      0.3649
    146  OE1       12.4160   16.9140   31.1320 O.co2 447  GLU447     -0.2457
    147  OE2       14.5780   16.5960   31.0780 O.co2 447  GLU447     -0.2457
    148  N         11.0530   19.5950   36.7870 N.3   451  GLU451     -0.1245
    149  CA         9.6480   19.8830   37.0070 C.3   451  GLU451      0.1567
    150  C          9.3810   20.2920   38.4660 C.2   451  GLU451      0.2260
    151  O          8.6290   21.2430   38.7070 O.2   451  GLU451     -0.2867
    152  CB         8.7920   18.6810   36.6000 C.3   451  GLU451      0.0388
    153  CG         8.5060   18.6110   35.1090 C.3   451  GLU451      0.1160
    154  CD         7.4810   19.6510   34.6500 C.2   451  GLU451      0.3649
    155  OE1        6.4130   19.2590   34.1200 O.co2 451  GLU451     -0.2457
    156  OE2        7.7390   20.8660   34.8050 O.co2 451  GLU451     -0.2457
    157  N         10.4520   23.6540   38.8530 N.3   454  ARG454     -0.1245
    158  CA         9.5130   24.5380   38.1850 C.3   454  ARG454      0.1563
    159  C          8.3380   24.8660   39.0950 C.2   454  ARG454      0.2260
    160  O          8.0910   26.0360   39.4000 O.2   454  ARG454     -0.2867
    161  CB         9.0030   23.9070   36.8870 C.3   454  ARG454      0.0307
    162  CG         8.0180   24.7710   36.1390 C.3   454  ARG454      0.0489
    163  CD         7.6040   24.1480   34.8390 C.3   454  ARG454      0.2205
    164  NE         6.7620   22.9650   35.0210 N.pl3 454  ARG454     -0.0865
    165  CZ         5.4570   22.9950   35.2900 C.cat 454  ARG454      0.5346
    166  NH1        4.8170   24.1570   35.4450 N.pl3 454  ARG454      0.1354
    167  NH2        4.7920   21.8540   35.4160 N.pl3 454  ARG454      0.1354
@<TRIPOS>BOND
     1    12    11    2
     2    11    10    1
     3    20    21    1
     4    23    22    2
     5    22    21    1
     6    21    24    1
     7    13    10    1
     8    13    14    1
     9    10     9    1
    10    27    28    1
    11    14    16   ar
    12    14    15   ar
    13    16    18   ar
    14    24    26    1
    15    24    25    1
    16     9     3   am
    17    15    17   ar
    18    28    29    1
    19    28    31    1
    20    30    29    2
    21    18    19   ar
    22    29    33   am
    23    17    19   ar
    24     4     3    2
    25     3     2    1
    26    31    32    1
    27    33    34    1
    28    53    51    1
    29     1     2    1
    30     2     5    1
    31    34    35    1
    32    34    37    1
    33    36    35    2
    34    35    42   am
    35     5     6    1
    36    51    52    1
    37    51    50    1
    38    50    47    1
    39    37    38    1
    40    66    67    1
    41    42    43    1
    42    76    74    1
    43    38    39    1
    44     6     7   ar
    45     6     8   ar
    46    43    44    1
    47    67    68    1
    48    45    44    2
    49    44    46   am
    50    46    47    1
    51    47    48    1
    52    68    70   am
    53    68    69    2
    54    70    71    1
    55    39    40    1
    56    40    41    1
    57    74    71    1
    58    74    75    1
    59    71    72    1
    60    48    49    2
    61    48    54   am
    62    56    57    2
    63    56    55    1
    64    54    55    1
    65    55    58    1
    66    72    77   am
    67    72    73    2
    68   115   114   ar
    69   138   137    1
    70    89    88    2
    71    77    78    1
    72   114   116   ar
    73   114   113    1
    74    92    91    1
    75   113   112    1
    76   135   137   ar
    77   135   133   ar
    78    90    91    1
    79    90    87    1
    80   137   136   ar
    81    58    59    1
    82    86    87    1
    83    86    79   am
    84    91    93    1
    85    88    87    1
    86   133   132   ar
    87    95    96    1
    88    95    94    1
    89    60    59   ar
    90    60    62   ar
    91   136   134   ar
    92    59    61   ar
    93    78    79    1
    94    78    81    1
    95   112   109    1
    96    96    97    2
    97    79    80    2
    98    62    64   ar
    99   147   145   ar
   100    61    63   ar
   101   146   145   ar
   102   132   134   ar
   103   132   131    1
   104   145   144    1
   105    81    82    1
   106    82    83    1
   107    64    63   ar
   108    64    65    1
   109   109   108    1
   110   109   110    1
   111   131   128    1
   112   124   126   ar
   113   124   122   ar
   114   105   107   ar
   115   105   103   ar
   116   126   125   ar
   117   107   106   ar
   118   144   143    1
   119    83    84   ar
   120    83    85   ar
   121   108   100   am
   122   128   127    1
   123   128   129    1
   124   122   121    1
   125   122   123   ar
   126   103   102    1
   127   103   104   ar
   128   125   123   ar
   129   110   111    2
   130   106   104   ar
   131   102    99    1
   132   121   118    1
   133   130   129    2
   134   143   140    1
   135   100   101    2
   136   100    99    1
   137    99    98    1
   138   155   154   ar
   139   140   139    1
   140   140   141    1
   141   118   119    1
   142   118   117    1
   143   154   156   ar
   144   154   153    1
   145   163   164    1
   146   163   162    1
   147   119   120    2
   148   164   165    2
   149   153   152    1
   150   165   167    1
   151   165   166    1
   152   141   142    2
   153   162   161    1
   154   152   149    1
   155   148   149    1
   156   161   158    1
   157   149   150    1
   158   158   157    1
   159   158   159    1
   160   150   151    2
   161   159   160    2
