@<TRIPOS>MOLECULE
tmp/5d1vB00.pdb
 250 244 0 0 0
SMALL
GASTEIGER

@<TRIPOS>ATOM
      1  N          0.3940   13.7330   49.7920 N.3    22  TYR22      -0.1241
      2  CA         0.2110   12.4470   49.1130 C.3    22  TYR22       0.1605
      3  C          1.1280   12.2880   47.9040 C.2    22  TYR22       0.2264
      4  O          1.5350   11.1720   47.5870 O.2    22  TYR22      -0.2867
      5  CB        -1.2490   12.2550   48.6980 C.3    22  TYR22       0.0534
      6  CG        -1.9530   11.2950   49.6020 C.ar   22  TYR22      -0.0201
      7  CD1       -1.9500    9.9330   49.3190 C.ar   22  TYR22      -0.0009
      8  CD2       -2.5780   11.7270   50.7610 C.ar   22  TYR22      -0.0009
      9  CE1       -2.5650    9.0360   50.1770 C.ar   22  TYR22       0.0417
     10  CE2       -3.1930   10.8360   51.6140 C.ar   22  TYR22       0.0417
     11  CZ        -3.1920    9.4930   51.3010 C.ar   22  TYR22       0.1957
     12  OH        -3.7910    8.5800   52.1350 O.3    22  TYR22      -0.2866
     13  N          7.4290    4.4010   52.1210 N.3    31  LEU31      -0.1245
     14  CA         6.0370    4.4450   52.5730 C.3    31  LEU31       0.1561
     15  C          5.0120    3.8680   51.6270 C.2    31  LEU31       0.2260
     16  O          3.9790    3.4020   52.0820 O.2    31  LEU31      -0.2867
     17  CB         5.6290    5.8900   52.8650 C.3    31  LEU31       0.0270
     18  CG         6.2510    6.5900   54.0510 C.3    31  LEU31       0.0019
     19  CD1        5.7300    8.0260   54.1010 C.3    31  LEU31       0.0001
     20  CD2        5.9000    5.8630   55.3030 C.3    31  LEU31       0.0001
     21  N          2.8050    0.6920   52.1060 N.3    34  LEU34      -0.1231
     22  CA         1.8040    0.5980   53.1680 C.3    34  LEU34       0.1693
     23  C          0.4360    0.9940   52.6950 C.2    34  LEU34       0.2592
     24  O         -0.5450    0.6220   53.3140 O.2    34  LEU34      -0.2718
     25  CB         2.1840    1.4810   54.3530 C.3    34  LEU34       0.0284
     26  CG         3.4740    1.1180   55.0640 C.3    34  LEU34       0.0019
     27  CD1        3.8310    2.2180   56.0410 C.3    34  LEU34       0.0001
     28  CD2        3.3080   -0.2290   55.7810 C.3    34  LEU34       0.0001
     29  N          0.3830    1.7890   51.6240 N.am   35  PHE35      -0.1963
     30  CA        -0.8730    2.3670   51.1300 C.3    35  PHE35       0.1756
     31  C         -1.5240    1.5190   50.0370 C.2    35  PHE35       0.2461
     32  O         -0.8510    0.7540   49.3760 O.2    35  PHE35      -0.2730
     33  CB        -0.6230    3.7810   50.6010 C.3    35  PHE35       0.0574
     34  CG        -0.3190    4.7590   51.6700 C.ar   35  PHE35      -0.0200
     35  CD1        0.9350    4.7970   52.2570 C.ar   35  PHE35      -0.0042
     36  CD2       -1.2860    5.6450   52.1060 C.ar   35  PHE35      -0.0042
     37  CE1        1.2170    5.7120   53.2610 C.ar   35  PHE35      -0.0003
     38  CE2       -1.0070    6.5420   53.1210 C.ar   35  PHE35      -0.0003
     39  CZ         0.2610    6.5810   53.6820 C.ar   35  PHE35      -0.0000
     40  N         -2.8440    1.6480   49.8550 N.am   36  PRO36      -0.2727
     41  CA        -3.5450    0.8370   48.8450 C.3    36  PRO36       0.1402
     42  C         -3.1100    1.1330   47.4070 C.2    36  PRO36       0.2269
     43  O         -2.4500    2.1490   47.1520 O.2    36  PRO36      -0.2865
     44  CB        -5.0180    1.2220   49.0490 C.3    36  PRO36       0.0296
     45  CG        -5.0780    1.8730   50.3990 C.3    36  PRO36       0.0237
     46  CD        -3.7680    2.4940   50.6300 C.3    36  PRO36       0.0939
     47  N         -5.1600    1.9480   45.0890 N.3    38  ASP38      -0.1225
     48  CA        -5.9350    3.1620   44.8080 C.3    38  ASP38       0.1805
     49  C         -5.8230    4.1100   46.0090 C.2    38  ASP38       0.2597
     50  O         -6.3630    3.8170   47.0860 O.2    38  ASP38      -0.2718
     51  CB        -7.3940    2.7960   44.5160 C.3    38  ASP38       0.1424
     52  CG        -8.2810    4.0110   44.2720 C.2    38  ASP38       0.3668
     53  OD1       -7.7440    5.1360   44.1720 O.co2  38  ASP38      -0.2456
     54  OD2       -9.5350    3.8300   44.1650 O.co2  38  ASP38      -0.2456
     55  N         -5.1140    5.2240   45.8280 N.am   39  LEU39      -0.1979
     56  CA        -4.8540    6.1460   46.9290 C.3    39  LEU39       0.1596
     57  C         -6.0170    7.0990   47.1730 C.2    39  LEU39       0.2287
     58  O         -6.0700    7.7500   48.2030 O.2    39  LEU39      -0.2864
     59  CB        -3.5920    6.9790   46.6610 C.3    39  LEU39       0.0297
     60  CG        -2.3120    6.1690   46.5430 C.3    39  LEU39       0.0022
     61  CD1       -1.1440    7.0520   46.0950 C.3    39  LEU39       0.0001
     62  CD2       -2.0110    5.5240   47.8840 C.3    39  LEU39       0.0001
     63  N         -8.3410    7.1970   50.4900 N.3    42  GLY42      -0.1225
     64  CA        -7.6010    7.5840   51.6790 C.3    42  GLY42       0.1811
     65  C         -7.2350    9.0410   51.6780 C.2    42  GLY42       0.2280
     66  O         -7.2550    9.7100   52.7150 O.2    42  GLY42      -0.2866
     67  N        -10.2410   10.8040   52.7950 N.3    45  HIS45      -0.1226
     68  CA       -10.4520   10.6600   54.2360 C.3    45  HIS45       0.1752
     69  C         -9.5000   11.5660   55.0210 C.2    45  HIS45       0.2595
     70  O         -9.9020   12.1620   56.0270 O.2    45  HIS45      -0.2718
     71  CB       -10.2630    9.2150   54.6970 C.3    45  HIS45       0.0759
     72  CG       -11.1900    8.2300   54.0440 C.ar   45  HIS45       0.0818
     73  ND1      -10.9410    6.8740   54.0380 N.ar   45  HIS45      -0.2268
     74  CD2      -12.3630    8.3990   53.3910 C.ar   45  HIS45       0.1154
     75  CE1      -11.9170    6.2500   53.4000 C.ar   45  HIS45       0.1986
     76  NE2      -12.7900    7.1540   52.9890 N.ar   45  HIS45      -0.2212
     77  N         -8.2460   11.6370   54.5830 N.am   46  GLN46      -0.1979
     78  CA        -7.2520   12.4630   55.2510 C.3    46  GLN46       0.1601
     79  C         -7.6620   13.9340   55.1600 C.2    46  GLN46       0.2287
     80  O         -7.5930   14.6560   56.1540 O.2    46  GLN46      -0.2864
     81  CB        -5.8620   12.2620   54.6380 C.3    46  GLN46       0.0394
     82  CG        -4.7610   13.1520   55.1840 C.3    46  GLN46       0.0908
     83  CD        -4.3190   12.7320   56.5500 C.2    46  GLN46       0.2608
     84  OE1       -4.7600   13.2930   57.5470 O.2    46  GLN46      -0.2717
     85  NE2       -3.4280   11.7390   56.6110 N.am   46  GLN46      -0.0878
     86  N        -10.5890   14.4630   57.5120 N.3    49  PHE49      -0.1227
     87  CA       -10.1830   14.4180   58.9150 C.3    49  PHE49       0.1736
     88  C         -9.5230   15.7370   59.3400 C.2    49  PHE49       0.2595
     89  O         -9.8370   16.2980   60.4070 O.2    49  PHE49      -0.2718
     90  CB        -9.2080   13.2640   59.2200 C.3    49  PHE49       0.0547
     91  CG        -8.6560   13.3490   60.6220 C.ar   49  PHE49      -0.0202
     92  CD1       -9.4560   13.0890   61.7180 C.ar   49  PHE49      -0.0042
     93  CD2       -7.3580   13.7640   60.8360 C.ar   49  PHE49      -0.0042
     94  CE1       -8.9440   13.2210   62.9980 C.ar   49  PHE49      -0.0003
     95  CE2       -6.8670   13.9110   62.1030 C.ar   49  PHE49      -0.0003
     96  CZ        -7.6320   13.6360   63.1630 C.ar   49  PHE49      -0.0000
     97  N         -8.5780   16.2160   58.5320 N.am   50  LEU50      -0.1980
     98  CA        -7.8250   17.4060   58.8960 C.3    50  LEU50       0.1596
     99  C         -8.7690   18.6080   58.9880 C.2    50  LEU50       0.2287
    100  O         -8.6610   19.4170   59.9150 O.2    50  LEU50      -0.2864
    101  CB        -6.6990   17.6730   57.8970 C.3    50  LEU50       0.0297
    102  CG        -5.5610   16.6280   57.9020 C.3    50  LEU50       0.0022
    103  CD1       -4.5110   16.9650   56.8480 C.3    50  LEU50       0.0001
    104  CD2       -4.9020   16.5700   59.2520 C.3    50  LEU50       0.0001
    105  N        -16.0250   14.2700   58.0080 N.3    60  TYR60      -0.1241
    106  CA       -15.2670   13.0570   58.3100 C.3    60  TYR60       0.1605
    107  C        -16.0460   12.0970   59.2120 C.2    60  TYR60       0.2264
    108  O        -16.1800   10.9170   58.9010 O.2    60  TYR60      -0.2867
    109  CB       -13.9380   13.3940   58.9770 C.3    60  TYR60       0.0534
    110  CG       -13.1930   12.1240   59.3280 C.ar   60  TYR60      -0.0201
    111  CD1      -13.3960   11.4990   60.5550 C.ar   60  TYR60      -0.0009
    112  CD2      -12.3440   11.5140   58.4190 C.ar   60  TYR60      -0.0009
    113  CE1      -12.7640   10.3140   60.8740 C.ar   60  TYR60       0.0417
    114  CE2      -11.7030   10.3100   58.7380 C.ar   60  TYR60       0.0417
    115  CZ       -11.9190    9.7300   59.9740 C.ar   60  TYR60       0.1957
    116  OH       -11.3030    8.5430   60.3130 O.3    60  TYR60      -0.2866
    117  N        -17.0130    8.3580   58.3230 N.3    64  ARG64      -0.1245
    118  CA       -16.0790    7.3820   58.8880 C.3    64  ARG64       0.1563
    119  C        -16.2770    7.0820   60.3660 C.2    64  ARG64       0.2260
    120  O        -15.6290    6.1780   60.8990 O.2    64  ARG64      -0.2867
    121  CB       -14.6450    7.8790   58.6820 C.3    64  ARG64       0.0307
    122  CG       -14.2570    8.1220   57.2360 C.3    64  ARG64       0.0489
    123  CD       -14.2550    6.8330   56.4290 C.3    64  ARG64       0.2205
    124  NE       -13.1040    5.9870   56.7380 N.pl3  64  ARG64      -0.0865
    125  CZ       -12.9430    4.7490   56.2780 C.cat  64  ARG64       0.5346
    126  NH1      -13.8720    4.2030   55.5060 N.pl3  64  ARG64       0.1354
    127  NH2      -11.8600    4.0480   56.5950 N.pl3  64  ARG64       0.1354
    128  N         -7.5480    7.0300   65.4290 N.3    69  LEU69      -0.1245
    129  CA        -6.4420    6.8860   64.4770 C.3    69  LEU69       0.1561
    130  C         -5.4400    5.8260   64.9140 C.2    69  LEU69       0.2260
    131  O         -4.9660    5.0380   64.0770 O.2    69  LEU69      -0.2867
    132  CB        -5.7410    8.2240   64.2490 C.3    69  LEU69       0.0270
    133  CG        -6.5940    9.2770   63.5140 C.3    69  LEU69       0.0019
    134  CD1       -5.7660   10.5150   63.2940 C.3    69  LEU69       0.0001
    135  CD2       -7.1970    8.7690   62.1710 C.3    69  LEU69       0.0001
    136  N         -6.6630    2.5730   63.9160 N.3    72  ARG72      -0.1231
    137  CA        -6.7340    2.4400   62.4590 C.3    72  ARG72       0.1694
    138  C         -5.3690    2.2050   61.8430 C.2    72  ARG72       0.2592
    139  O         -5.2580    1.6530   60.7440 O.2    72  ARG72      -0.2718
    140  CB        -7.3460    3.6890   61.8170 C.3    72  ARG72       0.0321
    141  CG        -8.8390    3.8820   62.0660 C.3    72  ARG72       0.0489
    142  CD        -9.3260    4.9320   61.0970 C.3    72  ARG72       0.2205
    143  NE       -10.6360    5.4670   61.4310 N.pl3  72  ARG72      -0.0865
    144  CZ       -11.7810    5.1380   60.8410 C.cat  72  ARG72       0.5346
    145  NH1      -11.8150    4.2460   59.8550 N.pl3  72  ARG72       0.1354
    146  NH2      -12.9020    5.7290   61.2440 N.pl3  72  ARG72       0.1354
    147  N         -4.3220    2.6330   62.5400 N.am   73  HIS73      -0.1976
    148  CA        -2.9690    2.4970   62.0200 C.3    73  HIS73       0.1656
    149  C         -2.3120    1.1920   62.4790 C.2    73  HIS73       0.2291
    150  O         -1.2010    0.8690   62.0530 O.2    73  HIS73      -0.2864
    151  CB        -2.1270    3.6940   62.4410 C.3    73  HIS73       0.0771
    152  CG        -2.4240    4.9240   61.6550 C.ar   73  HIS73       0.0820
    153  ND1       -3.5390    5.6990   61.8900 N.ar   73  HIS73      -0.2267
    154  CD2       -1.7780    5.4900   60.6150 C.ar   73  HIS73       0.1154
    155  CE1       -3.5610    6.7000   61.0260 C.ar   73  HIS73       0.1986
    156  NE2       -2.4990    6.5960   60.2520 N.ar   73  HIS73      -0.2212
    157  N         -0.5310   -1.3230   60.1330 N.3    76  PHE76      -0.1241
    158  CA         0.6910   -0.8990   59.4400 C.3    76  PHE76       0.1605
    159  C          1.8560   -0.9100   60.3970 C.2    76  PHE76       0.2264
    160  O          1.7870   -0.2930   61.4570 O.2    76  PHE76      -0.2867
    161  CB         0.5140    0.4940   58.8440 C.3    76  PHE76       0.0534
    162  CG        -0.8160    0.6860   58.2200 C.ar   76  PHE76      -0.0203
    163  CD1       -1.2080   -0.1320   57.1870 C.ar   76  PHE76      -0.0042
    164  CD2       -1.6830    1.6690   58.6700 C.ar   76  PHE76      -0.0042
    165  CE1       -2.4410    0.0060   56.6160 C.ar   76  PHE76      -0.0003
    166  CE2       -2.9300    1.8150   58.0900 C.ar   76  PHE76      -0.0003
    167  CZ        -3.2980    0.9880   57.0680 C.ar   76  PHE76      -0.0000
    168  N          4.7080    0.5530   61.9650 N.3    78  ILE78      -0.1245
    169  CA         5.1350    1.9540   62.0150 C.3    78  ILE78       0.1561
    170  C          6.1640    2.0960   63.1130 C.2    78  ILE78       0.2260
    171  O          5.8240    2.0330   64.3130 O.2    78  ILE78      -0.2867
    172  CB         3.9640    2.8900   62.2620 C.3    78  ILE78       0.0252
    173  CG1        2.9930    2.8440   61.1020 C.3    78  ILE78       0.0019
    174  CG2        4.4690    4.3220   62.4120 C.3    78  ILE78       0.0019
    175  CD1        1.7560    3.6990   61.3050 C.3    78  ILE78       0.0001
    176  N          9.1780    5.0170   59.5190 N.3    82  GLU82      -0.1231
    177  CA         7.9130    5.4470   58.9420 C.3    82  GLU82       0.1699
    178  C          7.4000    6.7720   59.5230 C.2    82  GLU82       0.2592
    179  O          6.8900    7.6460   58.8020 O.2    82  GLU82      -0.2718
    180  CB         6.9000    4.3370   59.1490 C.3    82  GLU82       0.0402
    181  CG         7.1880    3.0800   58.3830 C.3    82  GLU82       0.1161
    182  CD         8.2790    2.1960   58.9860 C.2    82  GLU82       0.3649
    183  OE1        8.5720    2.2490   60.2150 O.co2  82  GLU82      -0.2457
    184  OE2        8.8670    1.4100   58.2080 O.co2  82  GLU82      -0.2457
    185  N          7.5420    6.9360   60.8300 N.am   83  ARG83      -0.1980
    186  CA         7.1830    8.1730   61.4790 C.3    83  ARG83       0.1597
    187  C          7.9270    9.3550   60.8700 C.2    83  ARG83       0.2287
    188  O          7.3260   10.3520   60.5310 O.2    83  ARG83      -0.2864
    189  CB         7.5000    8.0900   62.9640 C.3    83  ARG83       0.0334
    190  CG         7.3100    9.3990   63.7280 C.3    83  ARG83       0.0492
    191  CD         8.0810    9.3350   65.0460 C.3    83  ARG83       0.2205
    192  NE         9.5180    9.3750   64.7950 N.pl3  83  ARG83      -0.0865
    193  CZ        10.4580    8.9950   65.6530 C.cat  83  ARG83       0.5346
    194  NH1       10.1310    8.5220   66.8480 N.pl3  83  ARG83       0.1354
    195  NH2       11.7330    9.0740   65.3030 N.pl3  83  ARG83       0.1354
    196  N          6.8380   10.1760   57.3060 N.3    86  TRP86      -0.1241
    197  CA         5.4990   10.7500   57.2780 C.3    86  TRP86       0.1605
    198  C          5.5790   12.2240   57.6540 C.2    86  TRP86       0.2264
    199  O          5.0060   13.0870   56.9830 O.2    86  TRP86      -0.2867
    200  CB         4.5570    9.9740   58.2220 C.3    86  TRP86       0.0550
    201  CG         3.0800   10.3900   58.1500 C.ar   86  TRP86       0.0003
    202  CD1        2.0840    9.7590   57.4760 C.ar   86  TRP86       0.0946
    203  CD2        2.4710   11.5240   58.7850 C.ar   86  TRP86       0.0152
    204  NE1        0.8930   10.4170   57.6510 N.ar   86  TRP86      -0.2442
    205  CE2        1.1110   11.5230   58.4340 C.ar   86  TRP86       0.0810
    206  CE3        2.9490   12.5420   59.6110 C.ar   86  TRP86       0.0012
    207  CZ2        0.2150   12.4960   58.8860 C.ar   86  TRP86       0.0191
    208  CZ3        2.0590   13.5220   60.0510 C.ar   86  TRP86       0.0001
    209  CH2        0.7110   13.4800   59.6860 C.ar   86  TRP86       0.0015
    210  N          0.8270   19.7830   66.4630 N.3   110  TYR110     -0.1227
    211  CA        -0.0650   18.6590   66.4540 C.3   110  TYR110      0.1736
    212  C          0.5590   17.4820   65.7120 C.2   110  TYR110      0.2595
    213  O          0.6100   16.3560   66.2420 O.2   110  TYR110     -0.2718
    214  CB        -1.4110   19.0380   65.8170 C.3   110  TYR110      0.0548
    215  CG        -2.2240   17.8030   65.5320 C.ar  110  TYR110     -0.0200
    216  CD1       -2.7720   17.0580   66.5630 C.ar  110  TYR110     -0.0009
    217  CD2       -2.4150   17.3730   64.2370 C.ar  110  TYR110     -0.0009
    218  CE1       -3.4810   15.9160   66.3070 C.ar  110  TYR110      0.0417
    219  CE2       -3.1210   16.2370   63.9690 C.ar  110  TYR110      0.0417
    220  CZ        -3.6550   15.5180   64.9940 C.ar  110  TYR110      0.1957
    221  OH        -4.3550   14.3760   64.7310 O.3   110  TYR110     -0.2866
    222  N          1.0560   17.7330   64.5070 N.am  111  PHE111     -0.1976
    223  CA         1.5750   16.6420   63.6890 C.3   111  PHE111      0.1639
    224  C          2.7610   15.9630   64.3640 C.2   111  PHE111      0.2290
    225  O          2.8720   14.7250   64.3480 O.2   111  PHE111     -0.2864
    226  CB         1.9820   17.1420   62.3070 C.3   111  PHE111      0.0560
    227  CG         0.8220   17.4580   61.4030 C.ar  111  PHE111     -0.0200
    228  CD1       -0.2770   16.6160   61.3290 C.ar  111  PHE111     -0.0042
    229  CD2        0.8410   18.6100   60.6330 C.ar  111  PHE111     -0.0042
    230  CE1       -1.3370   16.9070   60.4670 C.ar  111  PHE111     -0.0003
    231  CE2       -0.2180   18.9170   59.7830 C.ar  111  PHE111     -0.0003
    232  CZ        -1.3060   18.0630   59.7110 C.ar  111  PHE111     -0.0000
    233  N          1.2370   13.7630   67.0550 N.3   114  ALA114     -0.1231
    234  CA         0.3970   12.7020   66.5320 C.3   114  ALA114      0.1694
    235  C          1.2170   11.6400   65.7990 C.2   114  ALA114      0.2591
    236  O          0.9060   10.4440   65.8960 O.2   114  ALA114     -0.2718
    237  CB        -0.6710   13.2980   65.6180 C.3   114  ALA114      0.0304
    238  N          2.2600   12.0500   65.0740 N.am  115  ALA115     -0.1980
    239  CA         3.1120   11.1090   64.3470 C.3   115  ALA115      0.1597
    240  C          3.8260   10.1920   65.3410 C.2   115  ALA115      0.2287
    241  O          3.9530    8.9810   65.1160 O.2   115  ALA115     -0.2864
    242  CB         4.1250   11.8420   63.4740 C.3   115  ALA115      0.0319
    243  N          1.4750    7.5790   66.8800 N.3   118  MET118     -0.1245
    244  CA         0.9870    6.5430   65.9770 C.3   118  MET118      0.1570
    245  C          1.9180    5.3510   65.8840 C.2   118  MET118      0.2261
    246  O          1.5210    4.3190   65.3750 O.2   118  MET118     -0.2867
    247  CB         0.7970    7.0990   64.5670 C.3   118  MET118      0.0387
    248  CG        -0.3990    6.5540   63.8690 C.3   118  MET118      0.0595
    249  SD        -1.9580    7.1270   64.6270 S.3   118  MET118     -0.1393
    250  CE        -2.0760    8.7730   63.9270 C.3   118  MET118      0.0692
@<TRIPOS>BOND
     1    54    52   ar
     2    53    52   ar
     3    52    51    1
     4    51    48    1
     5    48    47    1
     6    48    49    1
     7    55    49   am
     8    55    56    1
     9    49    50    2
    10    61    60    1
    11    60    59    1
    12    60    62    1
    13    59    56    1
    14    56    57    1
    15    43    42    2
    16    57    58    2
    17    42    41    1
    18     4     3    2
    19     3     2    1
    20     5     2    1
    21     5     6    1
    22    41    44    1
    23    41    40    1
    24    44    45    1
    25     2     1    1
    26     7     6   ar
    27     7     9   ar
    28    32    31    2
    29     6     8   ar
    30    40    31   am
    31    40    46    1
    32    31    30    1
    33     9    11   ar
    34    45    46    1
    35    63    64    1
    36    33    30    1
    37    33    34    1
    38     8    10   ar
    39    30    29    1
    40    11    10   ar
    41    11    12    1
    42    29    23   am
    43    15    16    2
    44    15    14    1
    45    34    36   ar
    46    34    35   ar
    47    65    64    1
    48    65    66    2
    49    36    38   ar
    50    21    22    1
    51    13    14    1
    52    35    37   ar
    53    14    17    1
    54    23    22    1
    55    23    24    2
    56    67    68    1
    57    17    18    1
    58    76    74   ar
    59    76    75   ar
    60    38    39   ar
    61    22    25    1
    62    37    39   ar
    63    74    72   ar
    64    75    73   ar
    65    73    72   ar
    66    72    71    1
    67    18    19    1
    68    18    20    1
    69    68    71    1
    70    68    69    1
    71    25    26    1
    72    77    69   am
    73    77    78    1
    74    81    82    1
    75    81    78    1
    76    69    70    2
    77    26    28    1
    78    26    27    1
    79    79    78    1
    80    79    80    2
    81    82    83    1
    82   126   125    1
    83   125   127    1
    84   125   124    2
    85   123   124    1
    86   123   122    1
    87    83    85   am
    88    83    84    2
    89   165   167   ar
    90   165   163   ar
    91   103   102    1
    92   199   198    2
    93   167   166   ar
    94   163   162   ar
    95   122   121    1
    96   197   196    1
    97   197   198    1
    98   197   200    1
    99   202   204   ar
   100   202   201   ar
   101    86    87    1
   102   204   205   ar
   103   101   102    1
   104   101    98    1
   105   102   104    1
   106   105   106    1
   107   166   164   ar
   108   201   200    1
   109   201   203   ar
   110   184   182   ar
   111   162   164   ar
   112   162   161    1
   113   106   109    1
   114   106   107    1
   115   117   118    1
   116   181   182    1
   117   181   180    1
   118   112   114   ar
   119   112   110   ar
   120   205   203   ar
   121   205   207   ar
   122    97    98    1
   123    97    88   am
   124   121   118    1
   125   114   115   ar
   126   203   206   ar
   127   179   178    2
   128   161   158    1
   129   207   209   ar
   130   118   119    1
   131    98    99    1
   132   108   107    2
   133    87    90    1
   134    87    88    1
   135   177   180    1
   136   177   176    1
   137   177   178    1
   138   109   110    1
   139   182   183   ar
   140    99   100    2
   141    90    91    1
   142   110   111   ar
   143    88    89    2
   144   158   157    1
   145   158   159    1
   146   178   185   am
   147   206   208   ar
   148   209   208   ar
   149   232   231   ar
   150   232   230   ar
   151   231   229   ar
   152   145   144    1
   153   115   116    1
   154   115   113   ar
   155   156   154   ar
   156   156   155   ar
   157   119   120    2
   158   159   160    2
   159   230   228   ar
   160   188   187    2
   161   111   113   ar
   162   154   152   ar
   163    91    93   ar
   164    91    92   ar
   165   229   227   ar
   166   139   138    2
   167   185   186    1
   168    93    95   ar
   169   144   146    1
   170   144   143    2
   171   187   186    1
   172   155   153   ar
   173   142   143    1
   174   142   141    1
   175   173   175    1
   176   173   172    1
   177   228   227   ar
   178   227   226    1
   179   186   189    1
   180   152   153   ar
   181   152   151    1
   182    92    94   ar
   183   140   141    1
   184   140   137    1
   185   138   137    1
   186   138   147   am
   187   168   169    1
   188   169   172    1
   189   169   170    1
   190   148   151    1
   191   148   149    1
   192   148   147    1
   193   150   149    2
   194    95    96   ar
   195   135   133    1
   196   172   174    1
   197   226   223    1
   198   137   136    1
   199   189   190    1
   200    94    96   ar
   201   170   171    2
   202   134   133    1
   203   242   239    1
   204   133   132    1
   205   223   224    1
   206   223   222    1
   207   190   191    1
   208   248   247    1
   209   248   249    1
   210   250   249    1
   211   219   217   ar
   212   219   220   ar
   213   131   130    2
   214   217   215   ar
   215   132   129    1
   216   239   238    1
   217   239   240    1
   218   225   224    2
   219   129   130    1
   220   129   128    1
   221   222   212   am
   222   247   244    1
   223   221   220    1
   224   192   191    1
   225   192   193    2
   226   220   218   ar
   227   238   235   am
   228   241   240    2
   229   195   193    1
   230   246   245    2
   231   215   214    1
   232   215   216   ar
   233   237   234    1
   234   193   194    1
   235   212   213    2
   236   212   211    1
   237   235   236    2
   238   235   234    1
   239   214   211    1
   240   245   244    1
   241   244   243    1
   242   218   216   ar
   243   211   210    1
   244   234   233    1
