@<TRIPOS>MOLECULE
tmp/5d1wD00.pdb
 192 178 0 0 0
SMALL
GASTEIGER

@<TRIPOS>ATOM
      1  N         26.5200  -64.8770  -10.0390 N.3    62  ALA62      -0.1245
      2  CA        25.9390  -65.0800  -11.3770 C.3    62  ALA62       0.1562
      3  C         26.7790  -64.2990  -12.3490 C.2    62  ALA62       0.2260
      4  O         26.9720  -64.7140  -13.4900 O.2    62  ALA62      -0.2867
      5  CB        24.4420  -64.6400  -11.4620 C.3    62  ALA62       0.0290
      6  N         29.8410  -66.1790  -13.2370 N.3    65  LEU65      -0.1231
      7  CA        29.3020  -67.2630  -14.0890 C.3    65  LEU65       0.1693
      8  C         28.8800  -66.7190  -15.4460 C.2    65  LEU65       0.2591
      9  O         29.0890  -67.3560  -16.4840 O.2    65  LEU65      -0.2718
     10  CB        28.1300  -67.9930  -13.4160 C.3    65  LEU65       0.0284
     11  CG        27.9130  -69.4380  -13.8800 C.3    65  LEU65       0.0019
     12  CD1       26.8440  -70.0810  -13.0620 C.3    65  LEU65       0.0001
     13  CD2       27.5460  -69.5030  -15.3340 C.3    65  LEU65       0.0001
     14  N         28.3010  -65.5260  -15.4040 N.am   66  ALA66      -0.1980
     15  CA        28.0270  -64.7370  -16.5870 C.3    66  ALA66       0.1597
     16  C         29.2540  -64.7660  -17.4740 C.2    66  ALA66       0.2287
     17  O         29.2440  -65.3640  -18.5560 O.2    66  ALA66      -0.2864
     18  CB        27.7260  -63.3010  -16.1790 C.3    66  ALA66       0.0319
     19  N         30.7980  -68.1990  -18.8930 N.3    69  LEU69      -0.1231
     20  CA        30.0810  -68.8630  -19.9630 C.3    69  LEU69       0.1693
     21  C         30.1680  -68.0960  -21.2800 C.2    69  LEU69       0.2591
     22  O         30.1410  -68.7010  -22.3540 O.2    69  LEU69      -0.2718
     23  CB        28.6300  -69.1090  -19.5590 C.3    69  LEU69       0.0284
     24  CG        28.3480  -70.2070  -18.5280 C.3    69  LEU69       0.0019
     25  CD1       26.8650  -70.4820  -18.4920 C.3    69  LEU69       0.0001
     26  CD2       29.1180  -71.4740  -18.8510 C.3    69  LEU69       0.0001
     27  N         30.2670  -66.7690  -21.1980 N.am   70  VAL70      -0.1980
     28  CA        30.4590  -65.9430  -22.3990 C.3    70  VAL70       0.1595
     29  C         31.8880  -66.0860  -22.9270 C.2    70  VAL70       0.2287
     30  O         32.1530  -65.9200  -24.1150 O.2    70  VAL70      -0.2864
     31  CB        30.0350  -64.4350  -22.2030 C.3    70  VAL70       0.0276
     32  CG1       30.6050  -63.8430  -20.9270 C.3    70  VAL70       0.0022
     33  CG2       30.4250  -63.6050  -23.4000 C.3    70  VAL70       0.0022
     34  N         33.0530  -69.3060  -25.2750 N.3    73  VAL73      -0.1245
     35  CA        32.7010  -69.2560  -26.6880 C.3    73  VAL73       0.1561
     36  C         33.9120  -69.5080  -27.5670 C.2    73  VAL73       0.2260
     37  O         33.7960  -70.2530  -28.5430 O.2    73  VAL73      -0.2867
     38  CB        32.0850  -67.8980  -27.1000 C.3    73  VAL73       0.0252
     39  CG1       32.0480  -67.7660  -28.6170 C.3    73  VAL73       0.0019
     40  CG2       30.7080  -67.7380  -26.5110 C.3    73  VAL73       0.0019
     41  N         28.7800  -72.2660  -33.8700 N.3    88  PHE88      -0.1241
     42  CA        27.8220  -72.0240  -32.8010 C.3    88  PHE88       0.1605
     43  C         27.3630  -73.3190  -32.1300 C.2    88  PHE88       0.2264
     44  O         27.3290  -73.4010  -30.8920 O.2    88  PHE88      -0.2867
     45  CB        26.6440  -71.2410  -33.3460 C.3    88  PHE88       0.0534
     46  CG        27.0430  -69.9730  -34.0150 C.ar   88  PHE88      -0.0203
     47  CD1       27.2380  -68.8230  -33.2800 C.ar   88  PHE88      -0.0042
     48  CD2       27.2440  -69.9280  -35.3830 C.ar   88  PHE88      -0.0042
     49  CE1       27.6100  -67.6330  -33.9080 C.ar   88  PHE88      -0.0003
     50  CE2       27.6150  -68.7350  -36.0180 C.ar   88  PHE88      -0.0003
     51  CZ        27.7970  -67.5900  -35.2790 C.ar   88  PHE88      -0.0000
     52  N         29.6660  -74.1430  -29.6590 N.3    91  GLY91      -0.1210
     53  CA        29.5470  -73.1410  -28.6130 C.3    91  GLY91       0.1956
     54  C         28.2760  -73.2870  -27.7870 C.2    91  GLY91       0.2611
     55  O         28.3380  -73.4410  -26.5570 O.2    91  GLY91      -0.2717
     56  N         27.1250  -73.2500  -28.4600 N.am   92  PHE92      -0.1976
     57  CA        25.8470  -73.4530  -27.7770 C.3    92  PHE92       0.1639
     58  C         25.8610  -74.7670  -26.9910 C.2    92  PHE92       0.2290
     59  O         25.4860  -74.7870  -25.8190 O.2    92  PHE92      -0.2864
     60  CB        24.6490  -73.4130  -28.7470 C.3    92  PHE92       0.0560
     61  CG        24.1240  -72.0180  -29.0270 C.ar   92  PHE92      -0.0200
     62  CD1       23.9150  -71.1140  -28.0010 C.ar   92  PHE92      -0.0042
     63  CD2       23.8390  -71.6210  -30.3240 C.ar   92  PHE92      -0.0042
     64  CE1       23.4410  -69.8520  -28.2680 C.ar   92  PHE92      -0.0003
     65  CE2       23.3680  -70.3600  -30.5890 C.ar   92  PHE92      -0.0003
     66  CZ        23.1710  -69.4750  -29.5660 C.ar   92  PHE92      -0.0000
     67  N         27.6740  -74.3020  -23.8150 N.3    95  PHE95      -0.1241
     68  CA        26.8660  -73.4570  -22.9440 C.3    95  PHE95       0.1605
     69  C         25.7360  -74.1670  -22.2100 C.2    95  PHE95       0.2264
     70  O         25.4020  -73.7850  -21.0910 O.2    95  PHE95      -0.2867
     71  CB        26.2420  -72.2780  -23.6720 C.3    95  PHE95       0.0534
     72  CG        25.1200  -71.6730  -22.8990 C.ar   95  PHE95      -0.0203
     73  CD1       23.8180  -72.1260  -23.0650 C.ar   95  PHE95      -0.0042
     74  CD2       25.3690  -70.7180  -21.9430 C.ar   95  PHE95      -0.0042
     75  CE1       22.7770  -71.6080  -22.3340 C.ar   95  PHE95      -0.0003
     76  CE2       24.3350  -70.1870  -21.2100 C.ar   95  PHE95      -0.0003
     77  CZ        23.0260  -70.6440  -21.4050 C.ar   95  PHE95      -0.0000
     78  N         24.4880  -72.8420   -8.4450 N.3   104  LEU104     -0.1231
     79  CA        23.3110  -71.9520   -8.3290 C.3   104  LEU104      0.1693
     80  C         22.1810  -72.4150   -9.2520 C.2   104  LEU104      0.2591
     81  O         21.0740  -72.7110   -8.7990 O.2   104  LEU104     -0.2718
     82  CB        23.6360  -70.4960   -8.6380 C.3   104  LEU104      0.0284
     83  CG        23.5820  -69.6480   -7.3860 C.3   104  LEU104      0.0019
     84  CD1       22.9780  -68.3050   -7.7220 C.3   104  LEU104      0.0001
     85  CD2       22.8160  -70.3700   -6.3090 C.3   104  LEU104      0.0001
     86  N         22.4720  -72.5100  -10.5430 N.am  105  VAL105     -0.1980
     87  CA        21.4550  -72.9000  -11.4890 C.3   105  VAL105      0.1595
     88  C         20.7410  -74.1530  -11.0210 C.2   105  VAL105      0.2287
     89  O         19.5540  -74.3000  -11.2380 O.2   105  VAL105     -0.2864
     90  CB        22.0150  -73.0570  -12.8820 C.3   105  VAL105      0.0276
     91  CG1       21.2730  -74.1180  -13.6300 C.3   105  VAL105      0.0022
     92  CG2       21.8970  -71.7360  -13.5870 C.3   105  VAL105      0.0022
     93  N         18.5860  -72.7210   -8.2080 N.3   108  LEU108     -0.1245
     94  CA        17.4380  -72.1610   -8.9090 C.3   108  LEU108      0.1561
     95  C         16.4660  -73.2940   -9.2070 C.2   108  LEU108      0.2260
     96  O         15.4270  -73.4330   -8.5500 O.2   108  LEU108     -0.2867
     97  CB        17.8930  -71.5710  -10.2370 C.3   108  LEU108      0.0270
     98  CG        17.2970  -70.2420  -10.6160 C.3   108  LEU108      0.0019
     99  CD1       17.3580  -70.1250  -12.1110 C.3   108  LEU108      0.0001
    100  CD2       15.9150  -70.2400  -10.0770 C.3   108  LEU108      0.0001
    101  N         16.8110  -65.0480   -5.6570 N.3   117  LEU117     -0.1245
    102  CA        17.3280  -65.5850   -6.9060 C.3   117  LEU117      0.1561
    103  C         16.4070  -65.2690   -8.0790 C.2   117  LEU117      0.2260
    104  O         16.8400  -65.1160   -9.2120 O.2   117  LEU117     -0.2867
    105  CB        17.5050  -67.0910   -6.7900 C.3   117  LEU117      0.0270
    106  CG        18.8780  -67.6150   -6.3960 C.3   117  LEU117      0.0019
    107  CD1       18.9480  -69.1000   -6.7530 C.3   117  LEU117      0.0001
    108  CD2       19.9760  -66.8310   -7.0890 C.3   117  LEU117      0.0001
    109  N         16.9710  -61.5440   -8.8750 N.3   120  LEU120     -0.1231
    110  CA        18.2580  -61.4860   -9.5480 C.3   120  LEU120      0.1693
    111  C         18.2220  -61.9210  -11.0300 C.2   120  LEU120      0.2591
    112  O         18.9600  -61.3740  -11.8520 O.2   120  LEU120     -0.2718
    113  CB        19.2950  -62.2560   -8.7280 C.3   120  LEU120      0.0284
    114  CG        20.3620  -63.0080   -9.5130 C.3   120  LEU120      0.0019
    115  CD1       21.2190  -62.0380  -10.2880 C.3   120  LEU120      0.0001
    116  CD2       21.2200  -63.8900   -8.5940 C.3   120  LEU120      0.0001
    117  N         17.3530  -62.8640  -11.3890 N.am  121  ILE121     -0.1980
    118  CA        17.2340  -63.2590  -12.8090 C.3   121  ILE121      0.1595
    119  C         16.2040  -62.4290  -13.6180 C.2   121  ILE121      0.2287
    120  O         16.1080  -62.5740  -14.8510 O.2   121  ILE121     -0.2864
    121  CB        17.0140  -64.8190  -13.0260 C.3   121  ILE121      0.0276
    122  CG1       17.2300  -65.2190  -14.4980 C.3   121  ILE121      0.0022
    123  CG2       15.6520  -65.2790  -12.5110 C.3   121  ILE121      0.0022
    124  CD1       15.9900  -65.6370  -15.2430 C.3   121  ILE121      0.0001
    125  N         23.7700  -58.2650  -15.2800 N.3   128  ILE128     -0.1245
    126  CA        24.0850  -59.5570  -15.8980 C.3   128  ILE128      0.1561
    127  C         23.7630  -59.5720  -17.3900 C.2   128  ILE128      0.2260
    128  O         24.3850  -60.2790  -18.1510 O.2   128  ILE128     -0.2867
    129  CB        23.3100  -60.6980  -15.2440 C.3   128  ILE128      0.0252
    130  CG1       23.7310  -60.8390  -13.7900 C.3   128  ILE128      0.0019
    131  CG2       23.5390  -61.9820  -15.9960 C.3   128  ILE128      0.0019
    132  CD1       22.6210  -60.6340  -12.8200 C.3   128  ILE128      0.0001
    133  N         27.2100  -59.3050  -19.6480 N.3   132  ALA132     -0.1245
    134  CA        27.4730  -60.4160  -20.5610 C.3   132  ALA132      0.1562
    135  C         27.1640  -60.1040  -22.0490 C.2   132  ALA132      0.2260
    136  O         27.6420  -60.7730  -22.9550 O.2   132  ALA132     -0.2867
    137  CB        26.7070  -61.6290  -20.1160 C.3   132  ALA132      0.0290
    138  N         30.4140  -60.4640  -24.7470 N.3   136  LEU136     -0.1245
    139  CA        30.2690  -61.4660  -25.8010 C.3   136  LEU136      0.1561
    140  C         30.3000  -60.9170  -27.2190 C.2   136  LEU136      0.2260
    141  O         30.4270  -61.6690  -28.1710 O.2   136  LEU136     -0.2867
    142  CB        28.9370  -62.1790  -25.6180 C.3   136  LEU136      0.0270
    143  CG        28.6210  -63.1830  -26.7020 C.3   136  LEU136      0.0019
    144  CD1       29.2680  -64.4900  -26.3330 C.3   136  LEU136      0.0001
    145  CD2       27.1250  -63.2870  -26.8340 C.3   136  LEU136      0.0001
    146  N         32.3640  -61.6890  -31.9050 N.3   140  PHE140     -0.1241
    147  CA        31.9160  -61.5100  -33.2790 C.3   140  PHE140      0.1605
    148  C         32.7670  -60.4120  -33.9350 C.2   140  PHE140      0.2264
    149  O         33.4630  -60.6550  -34.9060 O.2   140  PHE140     -0.2867
    150  CB        30.3860  -61.2570  -33.3630 C.3   140  PHE140      0.0534
    151  CG        29.5630  -62.2470  -32.5610 C.ar  140  PHE140     -0.0203
    152  CD1       29.5170  -63.5810  -32.9150 C.ar  140  PHE140     -0.0042
    153  CD2       28.8640  -61.8480  -31.4370 C.ar  140  PHE140     -0.0042
    154  CE1       28.7860  -64.4980  -32.1670 C.ar  140  PHE140     -0.0003
    155  CE2       28.1270  -62.7680  -30.6940 C.ar  140  PHE140     -0.0003
    156  CZ        28.0940  -64.0910  -31.0650 C.ar  140  PHE140     -0.0000
    157  N         21.4410  -63.2730  -28.2240 N.3   159  ILE159     -0.1231
    158  CA        21.9580  -64.5560  -27.7490 C.3   159  ILE159      0.1692
    159  C         22.0570  -64.5930  -26.2250 C.2   159  ILE159      0.2591
    160  O         21.9630  -65.6670  -25.6050 O.2   159  ILE159     -0.2718
    161  CB        23.3140  -64.9140  -28.3630 C.3   159  ILE159      0.0266
    162  CG1       23.2220  -64.9330  -29.8770 C.3   159  ILE159      0.0019
    163  CG2       23.7330  -66.2880  -27.9040 C.3   159  ILE159      0.0020
    164  CD1       24.5180  -64.7270  -30.5490 C.3   159  ILE159      0.0001
    165  N         22.2200  -63.4140  -25.6210 N.am  160  VAL160     -0.1980
    166  CA        22.2920  -63.3190  -24.1630 C.3   160  VAL160      0.1595
    167  C         20.9410  -63.5770  -23.5050 C.2   160  VAL160      0.2287
    168  O         20.8750  -64.2420  -22.4550 O.2   160  VAL160     -0.2864
    169  CB        22.8290  -61.9610  -23.6660 C.3   160  VAL160      0.0276
    170  CG1       22.6880  -61.8740  -22.1430 C.3   160  VAL160      0.0022
    171  CG2       24.2750  -61.7800  -24.0680 C.3   160  VAL160      0.0022
    172  N         19.9540  -67.3510  -24.0100 N.3   163  CYS163     -0.1221
    173  CA        20.7920  -68.2480  -23.2220 C.3   163  CYS163      0.1808
    174  C         20.4410  -68.1390  -21.7390 C.2   163  CYS163      0.2601
    175  O         20.6360  -69.0780  -20.9450 O.2   163  CYS163     -0.2717
    176  CB        22.2770  -67.9550  -23.4840 C.3   163  CYS163      0.0970
    177  SG        23.0530  -69.0420  -24.7570 S.3   163  CYS163     -0.0800
    178  N         19.9340  -66.9580  -21.3970 N.am  164  LEU164     -0.1979
    179  CA        19.4700  -66.6050  -20.0570 C.3   164  LEU164      0.1596
    180  C         18.0010  -67.0750  -19.7890 C.2   164  LEU164      0.2287
    181  O         17.6000  -67.3830  -18.6390 O.2   164  LEU164     -0.2864
    182  CB        19.6900  -65.0970  -19.8890 C.3   164  LEU164      0.0297
    183  CG        19.4220  -64.3630  -18.6020 C.3   164  LEU164      0.0022
    184  CD1       20.0670  -65.0830  -17.4620 C.3   164  LEU164      0.0001
    185  CD2       19.9840  -62.9930  -18.8140 C.3   164  LEU164      0.0001
    186  N         18.3320  -70.6680  -18.7620 N.3   167  VAL167     -0.1245
    187  CA        18.8720  -70.9790  -17.4620 C.3   167  VAL167      0.1561
    188  C         17.7660  -71.3960  -16.4940 C.2   167  VAL167      0.2260
    189  O         17.8720  -72.4130  -15.8030 O.2   167  VAL167     -0.2867
    190  CB        19.7550  -69.8380  -16.9360 C.3   167  VAL167      0.0252
    191  CG1       20.6610  -70.3420  -15.8220 C.3   167  VAL167      0.0019
    192  CG2       20.6120  -69.3010  -18.0640 C.3   167  VAL167      0.0019
@<TRIPOS>BOND
     1    50    48   ar
     2    50    51   ar
     3    48    46   ar
     4    51    49   ar
     5   149   148    2
     6    46    45    1
     7    46    47   ar
     8   148   147    1
     9    49    47   ar
    10    41    42    1
    11   150   147    1
    12   150   151    1
    13    45    42    1
    14   147   146    1
    15   152   151   ar
    16   152   154   ar
    17    42    43    1
    18   151   153   ar
    19   154   156   ar
    20    43    44    2
    21   153   155   ar
    22   156   155   ar
    23    65    63   ar
    24    65    66   ar
    25   164   162    1
    26    63    61   ar
    27   162   161    1
    28    52    53    1
    29    66    64   ar
    30    61    60    1
    31    61    62   ar
    32    60    57    1
    33    39    38    1
    34    53    54    1
    35    37    36    2
    36    56    54   am
    37    56    57    1
    38   161   163    1
    39   161   158    1
    40    64    62   ar
    41   157   158    1
    42   141   140    2
    43    54    55    2
    44    57    58    1
    45   158   159    1
    46    36    35    1
    47   140   139    1
    48    38    35    1
    49    38    40    1
    50    58    59    2
    51   145   143    1
    52   143   144    1
    53   143   142    1
    54    35    34    1
    55   159   165   am
    56   159   160    2
    57   139   142    1
    58   139   138    1
    59   165   166    1
    60   177   176    1
    61   166   169    1
    62   166   167    1
    63    30    29    2
    64   171   169    1
    65   172   173    1
    66    67    68    1
    67    71    68    1
    68    71    72    1
    69   169   170    1
    70   167   168    2
    71   176   173    1
    72    33    31    1
    73   173   174    1
    74    73    72   ar
    75    73    75   ar
    76   136   135    2
    77    68    69    1
    78    29    28    1
    79    72    74   ar
    80    28    31    1
    81    28    27    1
    82    22    21    2
    83    75    77   ar
    84    69    70    2
    85    31    32    1
    86   135   134    1
    87    74    76   ar
    88   174   178   am
    89   174   175    2
    90    77    76   ar
    91   178   179    1
    92    21    27   am
    93    21    20    1
    94   134   137    1
    95   134   133    1
    96   179   182    1
    97   179   180    1
    98    20    23    1
    99    20    19    1
   100   182   183    1
   101   180   181    2
   102    23    24    1
   103    26    24    1
   104   185   183    1
   105   186   187    1
   106   183   184    1
   107    17    16    2
   108    24    25    1
   109   128   127    2
   110   192   190    1
   111    16    15    1
   112   187   190    1
   113   187   188    1
   114   127   126    1
   115   190   191    1
   116    15    18    1
   117    15    14    1
   118   188   189    2
   119     9     8    2
   120   131   129    1
   121   126   125    1
   122   126   129    1
   123     8    14   am
   124     8     7    1
   125    13    11    1
   126   129   130    1
   127   124   122    1
   128   120   119    2
   129   122   121    1
   130     7    10    1
   131     7     6    1
   132    11    10    1
   133    11    12    1
   134   130   132    1
   135    91    90    1
   136   119   118    1
   137    92    90    1
   138     4     3    2
   139   121   118    1
   140   121   123    1
   141    90    87    1
   142   118   117    1
   143     3     2    1
   144    99    98    1
   145   112   111    2
   146    87    88    1
   147    87    86    1
   148     5     2    1
   149   117   111   am
   150     2     1    1
   151    89    88    2
   152   111   110    1
   153    98    97    1
   154    98   100    1
   155    86    80   am
   156   115   114    1
   157    97    94    1
   158   110   109    1
   159   110   113    1
   160   114   113    1
   161   114   116    1
   162    80    81    2
   163    80    79    1
   164   104   103    2
   165    95    94    1
   166    95    96    2
   167    94    93    1
   168    82    79    1
   169    82    83    1
   170    78    79    1
   171   103   102    1
   172    84    83    1
   173    83    85    1
   174   108   106    1
   175   102   105    1
   176   102   101    1
   177   105   106    1
   178   107   106    1
