@<TRIPOS>MOLECULE
tmp/5d21D00.pdb
 93 89 0 0 0
SMALL
GASTEIGER

@<TRIPOS>ATOM
      1  N          3.0380    8.0090   21.6510 N.3    36  TYR36      -0.1227
      2  CA         2.7510    9.4290   21.8110 C.3    36  TYR36       0.1736
      3  C          3.2420    9.9230   23.1680 C.2    36  TYR36       0.2596
      4  O          2.9660   11.0550   23.5640 O.2    36  TYR36      -0.2718
      5  CB         1.2490    9.6890   21.6720 C.3    36  TYR36       0.0548
      6  CG         0.4040    8.8140   22.5790 C.ar   36  TYR36      -0.0200
      7  CD1       -0.0180    7.5550   22.1640 C.ar   36  TYR36      -0.0009
      8  CD2        0.0390    9.2400   23.8510 C.ar   36  TYR36      -0.0009
      9  CE1       -0.7820    6.7450   22.9860 C.ar   36  TYR36       0.0417
     10  CE2       -0.7290    8.4350   24.6850 C.ar   36  TYR36       0.0417
     11  CZ        -1.1340    7.1880   24.2470 C.ar   36  TYR36       0.1957
     12  OH        -1.8950    6.3820   25.0630 O.3    36  TYR36      -0.2866
     13  N          3.9660    9.0690   23.8840 N.am   37  GLY37      -0.1943
     14  CA         4.4370    9.4150   25.2160 C.3    37  GLY37       0.1998
     15  C          4.7370    8.2430   26.1360 C.2    37  GLY37       0.2480
     16  O          5.8480    8.1360   26.6560 O.2    37  GLY37      -0.2729
     17  N          3.7440    7.3660   26.3630 N.am   38  PRO38      -0.2726
     18  CA         3.9390    6.2040   27.2390 C.3    38  PRO38       0.1402
     19  C          5.0560    5.2690   26.7830 C.2    38  PRO38       0.2269
     20  O          5.4590    5.2910   25.6200 O.2    38  PRO38      -0.2865
     21  CB         2.5860    5.4910   27.1760 C.3    38  PRO38       0.0296
     22  CG         1.6140    6.5630   26.8560 C.3    38  PRO38       0.0237
     23  CD         2.3410    7.4900   25.9310 C.3    38  PRO38       0.0939
     24  N         -7.0960    5.5110   24.3640 N.3    50  HIS50      -0.1227
     25  CA        -6.7000    6.8590   24.7520 C.3    50  HIS50       0.1737
     26  C         -7.6990    7.9050   24.2700 C.2    50  HIS50       0.2438
     27  O         -8.0540    7.9380   23.0920 O.2    50  HIS50      -0.2733
     28  CB        -5.3100    7.1760   24.2070 C.3    50  HIS50       0.0758
     29  CG        -4.6960    8.4080   24.7940 C.ar   50  HIS50       0.0818
     30  ND1       -4.3540    8.5070   26.1260 N.ar   50  HIS50      -0.2268
     31  CD2       -4.3620    9.5950   24.2310 C.ar   50  HIS50       0.1154
     32  CE1       -3.8360    9.6990   26.3580 C.ar   50  HIS50       0.1986
     33  NE2       -3.8280   10.3780   25.2260 N.ar   50  HIS50      -0.2212
     34  N         -8.1560    8.7720   25.1840 N.am   51  PRO51      -0.2729
     35  CA        -9.1360    9.7990   24.8120 C.3    51  PRO51       0.1401
     36  C         -8.5560   10.8870   23.9070 C.2    51  PRO51       0.2269
     37  O         -7.3870   11.2540   24.0370 O.2    51  PRO51      -0.2865
     38  CB        -9.5550   10.3880   26.1650 C.3    51  PRO51       0.0296
     39  CG        -8.3960   10.1210   27.0640 C.3    51  PRO51       0.0237
     40  CD        -7.8390    8.8020   26.6230 C.3    51  PRO51       0.0939
     41  N         -7.7540   14.3620   22.9550 N.3    53  GLN53      -0.1245
     42  CA        -7.5410   15.6020   23.6980 C.3    53  GLN53       0.1566
     43  C         -7.1270   16.7510   22.7880 C.2    53  GLN53       0.2260
     44  O         -6.4340   17.6750   23.2190 O.2    53  GLN53      -0.2867
     45  CB        -6.4770   15.4050   24.7820 C.3    53  GLN53       0.0367
     46  CG        -6.8490   14.3890   25.8460 C.3    53  GLN53       0.0905
     47  CD        -5.7730   14.2280   26.9030 C.2    53  GLN53       0.2608
     48  OE1       -6.0660   14.1550   28.0960 O.2    53  GLN53      -0.2717
     49  NE2       -4.5170   14.1670   26.4680 N.am   53  GLN53      -0.0878
     50  N         -6.5650   15.9670   19.0180 N.3    55  LEU55      -0.1245
     51  CA        -5.7780   15.3320   17.9600 C.3    55  LEU55       0.1561
     52  C         -5.8820   16.0790   16.6350 C.2    55  LEU55       0.2260
     53  O         -6.9250   16.6530   16.3180 O.2    55  LEU55      -0.2867
     54  CB        -6.2260   13.8790   17.7640 C.3    55  LEU55       0.0270
     55  CG        -5.9970   12.9460   18.9550 C.3    55  LEU55       0.0019
     56  CD1       -6.6620   11.5960   18.7410 C.3    55  LEU55       0.0001
     57  CD2       -4.5030   12.7750   19.2210 C.3    55  LEU55       0.0001
     58  N         -5.3790    8.4010   18.8090 N.3    62  CYS62      -0.1235
     59  CA        -4.0760    8.9500   19.1330 C.3    62  CYS62       0.1677
     60  C         -3.0150    7.8770   18.8730 C.2    62  CYS62       0.2270
     61  O         -3.1500    6.7380   19.3210 O.2    62  CYS62      -0.2867
     62  CB        -4.0480    9.4280   20.5880 C.3    62  CYS62       0.0956
     63  SG        -2.4810   10.1280   21.1270 S.3    62  CYS62      -0.0801
     64  N         -1.1970   13.1880   16.8900 N.3   100  ASP100     -0.1225
     65  CA        -1.0390   13.5730   18.2870 C.3   100  ASP100      0.1805
     66  C         -1.6330   14.9650   18.4680 C.2   100  ASP100      0.2597
     67  O         -2.0780   15.5850   17.5020 O.2   100  ASP100     -0.2718
     68  CB         0.4370   13.5480   18.6960 C.3   100  ASP100      0.1424
     69  CG         0.6370   13.3570   20.1940 C.2   100  ASP100      0.3668
     70  OD1       -0.3440   13.4750   20.9640 O.co2 100  ASP100     -0.2456
     71  OD2        1.7920   13.0970   20.6090 O.co2 100  ASP100     -0.2456
     72  N         -1.6480   15.4510   19.7030 N.am  101  VAL101     -0.1980
     73  CA        -2.0990   16.8070   19.9830 C.3   101  VAL101      0.1595
     74  C         -0.9800   17.8080   19.6820 C.2   101  VAL101      0.2287
     75  O          0.1730   17.5940   20.0740 O.2   101  VAL101     -0.2864
     76  CB        -2.5660   16.9500   21.4520 C.3   101  VAL101      0.0276
     77  CG1       -3.0080   18.3790   21.7500 C.3   101  VAL101      0.0022
     78  CG2       -3.6980   15.9680   21.7380 C.3   101  VAL101      0.0022
     79  N          2.5520   18.6290   21.5930 N.3   104  THR104     -0.1218
     80  CA         2.8770   17.5020   22.4660 C.3   104  THR104      0.1862
     81  C          3.6880   16.4090   21.7690 C.2   104  THR104      0.2287
     82  O          3.7840   15.2910   22.2700 O.2   104  THR104     -0.2866
     83  CB         1.5990   16.8470   23.0510 C.3   104  THR104      0.1770
     84  OG1        0.8950   16.1330   22.0200 O.3   104  THR104     -0.2211
     85  CG2        0.6860   17.8980   23.6670 C.3   104  THR104      0.0375
     86  N          7.6190   14.3630   23.2490 N.3   107  ASN107     -0.1240
     87  CA         7.8900   13.1480   24.0130 C.3   107  ASN107      0.1653
     88  C          7.5250   11.8750   23.2550 C.2   107  ASN107      0.2266
     89  O          7.4640   10.7910   23.8350 O.2   107  ASN107     -0.2867
     90  CB         7.1450   13.1830   25.3510 C.3   107  ASN107      0.1155
     91  CG         5.6410   13.0960   25.1850 C.2   107  ASN107      0.2627
     92  OD1        5.1030   13.4200   24.1270 O.2   107  ASN107     -0.2716
     93  ND2        4.9540   12.6600   26.2350 N.am  107  ASN107     -0.0877
@<TRIPOS>BOND
     1    53    52    2
     2    52    51    1
     3    64    65    1
     4    67    66    2
     5    54    51    1
     6    54    55    1
     7    51    50    1
     8    65    66    1
     9    65    68    1
    10    66    72   am
    11    68    69    1
    12    56    55    1
    13    58    59    1
    14    60    59    1
    15    60    61    2
    16    55    57    1
    17    59    62    1
    18    74    73    1
    19    74    75    2
    20    72    73    1
    21    73    76    1
    22    69    71   ar
    23    69    70   ar
    24    62    63    1
    25    76    78    1
    26    76    77    1
    27    79    80    1
    28     1     2    1
    29     5     2    1
    30     5     6    1
    31    81    82    2
    32    81    80    1
    33     2     3    1
    34    84    83    1
    35     7     6   ar
    36     7     9   ar
    37    80    83    1
    38     6     8   ar
    39    43    44    2
    40    43    42    1
    41    41    42    1
    42     9    11   ar
    43    83    85    1
    44    27    26    2
    45     3     4    2
    46     3    13   am
    47    86    87    1
    48    88    89    2
    49    88    87    1
    50    42    45    1
    51     8    10   ar
    52    13    14    1
    53    36    37    2
    54    36    35    1
    55    87    90    1
    56    92    91    2
    57    28    25    1
    58    28    29    1
    59    31    29   ar
    60    31    33   ar
    61    11    10   ar
    62    11    12    1
    63    26    25    1
    64    26    34   am
    65    24    25    1
    66    45    46    1
    67    29    30   ar
    68    35    34    1
    69    35    38    1
    70    34    40    1
    71    91    90    1
    72    91    93   am
    73    14    15    1
    74    33    32   ar
    75    20    19    2
    76    46    47    1
    77    23    17    1
    78    23    22    1
    79    30    32   ar
    80    15    17   am
    81    15    16    2
    82    38    39    1
    83    17    18    1
    84    49    47   am
    85    40    39    1
    86    19    18    1
    87    22    21    1
    88    47    48    2
    89    21    18    1
