@<TRIPOS>MOLECULE
tmp/5d24A00.pdb
 152 148 0 0 0
SMALL
GASTEIGER

@<TRIPOS>ATOM
      1  N          3.8220    0.1150   -1.7730 N.3    39  TRP39      -0.1228
      2  CA         3.6840    1.5000   -2.2550 C.3    39  TRP39       0.1722
      3  C          4.9810    2.3200   -2.3340 C.2    39  TRP39       0.2437
      4  O          5.1400    3.0720   -3.2880 O.2    39  TRP39      -0.2733
      5  CB         2.5940    2.2700   -1.4960 C.3    39  TRP39       0.0563
      6  CG         2.8790    2.5240   -0.0520 C.ar   39  TRP39       0.0003
      7  CD1        2.4920    1.7500    1.0120 C.ar   39  TRP39       0.0946
      8  CD2        3.6110    3.6300    0.5060 C.ar   39  TRP39       0.0152
      9  NE1        2.9370    2.3050    2.1920 N.ar   39  TRP39      -0.2442
     10  CE2        3.6220    3.4590    1.9110 C.ar   39  TRP39       0.0810
     11  CE3        4.2310    4.7680   -0.0400 C.ar   39  TRP39       0.0012
     12  CZ2        4.2540    4.3670    2.7770 C.ar   39  TRP39       0.0191
     13  CZ3        4.8830    5.6450    0.8080 C.ar   39  TRP39       0.0001
     14  CH2        4.8710    5.4520    2.2140 C.ar   39  TRP39       0.0015
     15  N          5.9220    2.1690   -1.3710 N.am   40  PRO40      -0.2718
     16  CA         7.1450    2.9720   -1.4870 C.3    40  PRO40       0.1535
     17  C          8.0110    2.5410   -2.6650 C.2    40  PRO40       0.2599
     18  O          8.9530    3.2460   -3.0360 O.2    40  PRO40      -0.2715
     19  CB         7.9000    2.6860   -0.1760 C.3    40  PRO40       0.0310
     20  CG         6.8720    2.1140    0.7480 C.3    40  PRO40       0.0237
     21  CD         5.9090    1.3800   -0.1260 C.3    40  PRO40       0.0939
     22  N          7.6900    1.3780   -3.2360 N.am   41  PHE41      -0.1960
     23  CA         8.5240    0.7900   -4.2930 C.3    41  PHE41       0.1771
     24  C          7.8510    0.8530   -5.6590 C.2    41  PHE41       0.2619
     25  O          8.3880    0.3530   -6.6430 O.2    41  PHE41      -0.2715
     26  CB         8.9400   -0.6590   -3.9230 C.3    41  PHE41       0.0574
     27  CG         9.6750   -0.7280   -2.6340 C.ar   41  PHE41      -0.0200
     28  CD1       11.0400   -0.4620   -2.5980 C.ar   41  PHE41      -0.0042
     29  CD2        8.9950   -1.0090   -1.4260 C.ar   41  PHE41      -0.0042
     30  CE1       11.7460   -0.4830   -1.4140 C.ar   41  PHE41      -0.0003
     31  CE2        9.7050   -1.0250   -0.2380 C.ar   41  PHE41      -0.0003
     32  CZ        11.0710   -0.7490   -0.2310 C.ar   41  PHE41      -0.0000
     33  N          6.6720    1.4620   -5.7290 N.am   42  GLN42      -0.1963
     34  CA         5.8970    1.4490   -6.9520 C.3    42  GLN42       0.1733
     35  C          6.2480    2.5380   -7.9680 C.2    42  GLN42       0.2616
     36  O          5.6650    2.5810   -9.0530 O.2    42  GLN42      -0.2715
     37  CB         4.4080    1.5000   -6.6160 C.3    42  GLN42       0.0408
     38  CG         3.8530    0.1960   -6.0610 C.3    42  GLN42       0.0908
     39  CD         2.4170    0.3490   -5.6000 C.2    42  GLN42       0.2608
     40  OE1        1.9260    1.4670   -5.4640 O.2    42  GLN42      -0.2717
     41  NE2        1.7290   -0.7750   -5.3660 N.am   42  GLN42      -0.0878
     42  N          7.2140    3.3930   -7.6300 N.am   43  GLN43      -0.1977
     43  CA         7.6500    4.5120   -8.4780 C.3    43  GLN43       0.1601
     44  C          9.1200    4.8310   -8.1860 C.2    43  GLN43       0.2287
     45  O          9.6080    4.5300   -7.0960 O.2    43  GLN43      -0.2864
     46  CB         6.7880    5.7620   -8.2140 C.3    43  GLN43       0.0394
     47  CG         7.0520    6.4990   -6.8800 C.3    43  GLN43       0.0908
     48  CD         6.1820    7.7420   -6.6600 C.2    43  GLN43       0.2608
     49  OE1        6.5830    8.7000   -5.9800 O.2    43  GLN43      -0.2717
     50  NE2        4.9890    7.7360   -7.2400 N.am   43  GLN43      -0.0878
     51  N         12.2360    6.6870   -6.7610 N.3    45  VAL45      -0.1231
     52  CA        12.3830    7.5490   -5.5860 C.3    45  VAL45       0.1692
     53  C         12.3990    8.9980   -6.0420 C.2    45  VAL45       0.2592
     54  O         13.2180    9.3900   -6.8820 O.2    45  VAL45      -0.2718
     55  CB        13.6590    7.1970   -4.8200 C.3    45  VAL45       0.0266
     56  CG1       13.8700    8.1910   -3.6910 C.3    45  VAL45       0.0020
     57  CG2       13.5120    5.7790   -4.2680 C.3    45  VAL45       0.0020
     58  N         11.4310    9.7520   -5.5420 N.am   46  ASP46      -0.1974
     59  CA        11.3310   11.1520   -5.8650 C.3    46  ASP46       0.1709
     60  C         12.0700   11.9160   -4.7690 C.2    46  ASP46       0.2293
     61  O         11.5170   12.2260   -3.7040 O.2    46  ASP46      -0.2864
     62  CB         9.8790   11.5600   -6.0090 C.3    46  ASP46       0.1436
     63  CG         9.7230   13.0010   -6.4510 C.2    46  ASP46       0.3671
     64  OD1       10.6280   13.8150   -6.2300 O.co2  46  ASP46      -0.2456
     65  OD2        8.6620   13.3330   -7.0010 O.co2  46  ASP46      -0.2456
     66  N         10.4570   15.4410   -3.7480 N.3    49  LYS49      -0.1231
     67  CA         9.2530   15.3170   -2.9250 C.3    49  LYS49       0.1693
     68  C          9.6030   14.8320   -1.5140 C.2    49  LYS49       0.2591
     69  O          8.9950   15.2800   -0.5390 O.2    49  LYS49      -0.2718
     70  CB         8.2850   14.3530   -3.6280 C.3    49  LYS49       0.0285
     71  CG         6.9340   14.1230   -2.9770 C.3    49  LYS49       0.0035
     72  CD         6.4780   12.6760   -3.0770 C.3    49  LYS49       0.0206
     73  CE         6.6070   12.0910   -4.4710 C.3    49  LYS49       0.1093
     74  NZ         5.5540   11.0700   -4.7270 N.3    49  LYS49      -0.1314
     75  N         10.5770   13.9300   -1.4180 N.am   50  LEU50      -0.1980
     76  CA        10.9490   13.3360   -0.1450 C.3    50  LEU50       0.1596
     77  C         12.0160   14.1180    0.5920 C.2    50  LEU50       0.2287
     78  O         12.3920   13.7500    1.7110 O.2    50  LEU50      -0.2864
     79  CB        11.4110   11.8920   -0.3540 C.3    50  LEU50       0.0297
     80  CG        10.2700   10.9280   -0.6680 C.3    50  LEU50       0.0022
     81  CD1       10.8760    9.6730   -1.3060 C.3    50  LEU50       0.0001
     82  CD2        9.5240   10.5740    0.6120 C.3    50  LEU50       0.0001
     83  N         15.2080   14.3880   -0.0710 N.3    52  LEU52      -0.1245
     84  CA        16.3820   13.5560    0.0820 C.3    52  LEU52       0.1561
     85  C         17.4070   13.9880   -0.9540 C.2    52  LEU52       0.2260
     86  O         17.6500   13.2780   -1.9170 O.2    52  LEU52      -0.2867
     87  CB        16.0420   12.0680   -0.0640 C.3    52  LEU52       0.0270
     88  CG        14.9950   11.5080    0.9060 C.3    52  LEU52       0.0019
     89  CD1       14.7040   10.0450    0.5560 C.3    52  LEU52       0.0001
     90  CD2       15.4630   11.6460    2.3410 C.3    52  LEU52       0.0001
     91  N         19.9840   11.3800   -2.0600 N.3    55  TYR55      -0.1241
     92  CA        19.6690   10.0280   -2.5070 C.3    55  TYR55       0.1605
     93  C         20.4560    9.6180   -3.7420 C.2    55  TYR55       0.2264
     94  O         21.0530    8.5410   -3.7740 O.2    55  TYR55      -0.2867
     95  CB        18.1670    9.8400   -2.7590 C.3    55  TYR55       0.0534
     96  CG        17.8410    8.3990   -3.0990 C.ar   55  TYR55      -0.0201
     97  CD1       17.6810    7.4480   -2.0960 C.ar   55  TYR55      -0.0009
     98  CD2       17.7230    7.9830   -4.4350 C.ar   55  TYR55      -0.0009
     99  CE1       17.3960    6.1310   -2.3960 C.ar   55  TYR55       0.0417
    100  CE2       17.4660    6.6600   -4.7530 C.ar   55  TYR55       0.0417
    101  CZ        17.2730    5.7470   -3.7280 C.ar   55  TYR55       0.1957
    102  OH        17.0220    4.4370   -4.0070 O.3    55  TYR55      -0.2866
    103  N         16.2910    1.7710   -9.1750 N.3    63  MET63      -0.1245
    104  CA        15.3120    0.8840   -9.7520 C.3    63  MET63       0.1570
    105  C         14.0970    0.7930   -8.8280 C.2    63  MET63       0.2261
    106  O         14.2040    0.9660   -7.6110 O.2    63  MET63      -0.2867
    107  CB        15.9370   -0.5040   -9.9710 C.3    63  MET63       0.0387
    108  CG        15.0540   -1.4960  -10.7410 C.3    63  MET63       0.0595
    109  SD        14.4160   -0.8820  -12.3230 S.3    63  MET63      -0.1393
    110  CE        15.9180   -0.3990  -13.1840 C.3    63  MET63       0.0692
    111  N         16.7970   -3.0280   -6.8800 N.3    90  MET90      -0.1245
    112  CA        15.8460   -2.2440   -6.0780 C.3    90  MET90       0.1570
    113  C         16.0500   -2.5400   -4.5760 C.2    90  MET90       0.2261
    114  O         16.1770   -1.6060   -3.7500 O.2    90  MET90      -0.2867
    115  CB        14.4260   -2.5440   -6.5160 C.3    90  MET90       0.0387
    116  CG        13.3610   -1.8490   -5.6920 C.3    90  MET90       0.0595
    117  SD        11.7080   -2.3460   -6.2110 S.3    90  MET90      -0.1393
    118  CE        11.6440   -3.9490   -5.4100 C.3    90  MET90       0.0692
    119  N         17.8790   -0.0080   -1.4060 N.3    94  CYS94      -0.1235
    120  CA        17.1730    0.3460   -0.1820 C.3    94  CYS94       0.1677
    121  C         18.0670    0.0090    1.0080 C.2    94  CYS94       0.2270
    122  O         18.1790    0.7800    1.9630 O.2    94  CYS94      -0.2867
    123  CB        15.8620   -0.4130   -0.1720 C.3    94  CYS94       0.0956
    124  SG        14.8450   -0.0550    1.2720 S.3    94  CYS94      -0.0801
    125  N         21.1330    2.6730    1.1210 N.3    97  TYR97      -0.1227
    126  CA        20.8200    4.0550    1.4660 C.3    97  TYR97       0.1736
    127  C         20.2800    4.2400    2.9060 C.2    97  TYR97       0.2595
    128  O         20.5880    5.2170    3.5710 O.2    97  TYR97      -0.2718
    129  CB        19.8590    4.6740    0.4230 C.3    97  TYR97       0.0548
    130  CG        19.5140    6.0960    0.7620 C.ar   97  TYR97      -0.0200
    131  CD1       20.4020    7.1340    0.4870 C.ar   97  TYR97      -0.0009
    132  CD2       18.3380    6.3970    1.4490 C.ar   97  TYR97      -0.0009
    133  CE1       20.0940    8.4400    0.8460 C.ar   97  TYR97       0.0417
    134  CE2       18.0130    7.6920    1.7820 C.ar   97  TYR97       0.0417
    135  CZ        18.8990    8.7130    1.4790 C.ar   97  TYR97       0.1957
    136  OH        18.5480   10.0000    1.8550 O.3    97  TYR97      -0.2866
    137  N         19.4810    3.2890    3.3600 N.am   98  ASN98      -0.1974
    138  CA        18.7460    3.4080    4.6070 C.3    98  ASN98       0.1688
    139  C         19.4250    2.6560    5.7500 C.2    98  ASN98       0.2292
    140  O         20.1640    1.7200    5.5160 O.2    98  ASN98      -0.2864
    141  CB        17.3250    2.8910    4.3870 C.3    98  ASN98       0.1181
    142  CG        16.5720    3.7000    3.3330 C.2    98  ASN98       0.2629
    143  OD1       16.1320    4.8360    3.5870 O.2    98  ASN98      -0.2716
    144  ND2       16.4370    3.1310    2.1410 N.am   98  ASN98      -0.0877
    145  N         11.4930    1.4330    5.9580 N.3   104  ILE104     -0.1245
    146  CA        11.5790    1.1530    4.5430 C.3   104  ILE104      0.1561
    147  C         12.3580   -0.1600    4.3410 C.2   104  ILE104      0.2260
    148  O         12.0450   -0.9140    3.4110 O.2   104  ILE104     -0.2867
    149  CB        12.1870    2.3400    3.7620 C.3   104  ILE104      0.0252
    150  CG1       12.0860    2.1600    2.2350 C.3   104  ILE104      0.0019
    151  CG2       13.6460    2.5440    4.1420 C.3   104  ILE104      0.0019
    152  CD1       10.6980    2.3270    1.6550 C.3   104  ILE104      0.0001
@<TRIPOS>BOND
     1   110   109    1
     2   109   108    1
     3   108   107    1
     4   107   104    1
     5   104   103    1
     6   104   105    1
     7    36    35    2
     8   105   106    2
     9    43    46    1
    10    43    44    1
    11    43    42    1
    12    46    47    1
    13    44    45    2
    14    35    42   am
    15    35    34    1
    16    50    48   am
    17    65    63   ar
    18    34    37    1
    19    34    33    1
    20    54    53    2
    21    47    48    1
    22   111   112    1
    23    51    52    1
    24    48    49    2
    25    25    24    2
    26    37    38    1
    27   115   112    1
    28   115   116    1
    29    63    64   ar
    30    63    62    1
    31   117   116    1
    32   117   118    1
    33   112   113    1
    34    38    39    1
    35    53    52    1
    36    53    58   am
    37    62    59    1
    38    59    58    1
    39    59    60    1
    40    33    24   am
    41    24    23    1
    42    39    40    2
    43    39    41   am
    44    52    55    1
    45    55    57    1
    46    55    56    1
    47    60    61    2
    48   100    98   ar
    49   100   101   ar
    50    74    73    1
    51   113   114    2
    52    73    72    1
    53    98    96   ar
    54    23    26    1
    55    23    22    1
    56   102   101    1
    57    26    27    1
    58    94    93    2
    59    66    67    1
    60    93    92    1
    61   101    99   ar
    62    70    71    1
    63    70    67    1
    64     4     3    2
    65    22    17   am
    66    96    95    1
    67    96    97   ar
    68    72    71    1
    69    18    17    2
    70    67    68    1
    71    95    92    1
    72    17    16    1
    73    27    28   ar
    74    27    29   ar
    75    28    30   ar
    76    92    91    1
    77    99    97   ar
    78     3     2    1
    79     3    15   am
    80     2     1    1
    81     2     5    1
    82    86    85    2
    83    68    75   am
    84    68    69    2
    85     5     6    1
    86    16    15    1
    87    16    19    1
    88    29    31   ar
    89    75    76    1
    90    30    32   ar
    91   119   120    1
    92    15    21    1
    93    81    80    1
    94    85    84    1
    95    80    79    1
    96    80    82    1
    97    79    76    1
    98    31    32   ar
    99   120   123    1
   100   120   121    1
   101    19    20    1
   102   123   124    1
   103    76    77    1
   104    21    20    1
   105    83    84    1
   106    87    84    1
   107    87    88    1
   108     6     8   ar
   109     6     7   ar
   110    11     8   ar
   111    11    13   ar
   112   129   130    1
   113   129   126    1
   114   131   130   ar
   115   131   133   ar
   116     8    10   ar
   117    89    88    1
   118    77    78    2
   119   130   132   ar
   120    13    14   ar
   121   133   135   ar
   122    88    90    1
   123   121   122    2
   124     7     9   ar
   125   125   126    1
   126   132   134   ar
   127   126   127    1
   128   135   134   ar
   129   135   136    1
   130   152   150    1
   131    10     9   ar
   132    10    12   ar
   133   144   142   am
   134    14    12   ar
   135   150   149    1
   136   127   137   am
   137   127   128    2
   138   142   143    2
   139   142   141    1
   140   137   138    1
   141   148   147    2
   142   149   151    1
   143   149   146    1
   144   147   146    1
   145   141   138    1
   146   146   145    1
   147   138   139    1
   148   140   139    2
