@<TRIPOS>MOLECULE
tmp/5d25A00.pdb
 144 141 0 0 0
SMALL
GASTEIGER

@<TRIPOS>ATOM
      1  N         10.2180   51.9950   21.1270 N.3    39  TRP39      -0.1228
      2  CA         8.7770   51.8600   20.8290 C.3    39  TRP39       0.1722
      3  C          7.9760   53.1530   20.5100 C.2    39  TRP39       0.2437
      4  O          7.1240   53.1250   19.6220 O.2    39  TRP39      -0.2733
      5  CB         8.0710   50.9750   21.8700 C.3    39  TRP39       0.0563
      6  CG         8.0280   51.5480   23.2660 C.ar   39  TRP39       0.0003
      7  CD1        8.9250   51.3310   24.2690 C.ar   39  TRP39       0.0946
      8  CD2        7.0410   52.4440   23.7950 C.ar   39  TRP39       0.0152
      9  NE1        8.5580   52.0310   25.3950 N.ar   39  TRP39      -0.2442
     10  CE2        7.4100   52.7300   25.1280 C.ar   39  TRP39       0.0810
     11  CE3        5.8860   53.0460   23.2620 C.ar   39  TRP39       0.0012
     12  CZ2        6.6550   53.5760   25.9550 C.ar   39  TRP39       0.0191
     13  CZ3        5.1310   53.8900   24.0870 C.ar   39  TRP39       0.0001
     14  CH2        5.5200   54.1370   25.4230 C.ar   39  TRP39       0.0015
     15  N          8.2430   54.2820   21.2000 N.am   40  PRO40      -0.2718
     16  CA         7.4760   55.4910   20.8570 C.3    40  PRO40       0.1535
     17  C          7.8190   56.0480   19.4840 C.2    40  PRO40       0.2599
     18  O          7.1270   56.9430   18.9850 O.2    40  PRO40      -0.2715
     19  CB         7.9300   56.5120   21.9040 C.3    40  PRO40       0.0310
     20  CG         8.5290   55.7140   23.0040 C.3    40  PRO40       0.0237
     21  CD         9.1410   54.5160   22.3460 C.3    40  PRO40       0.0939
     22  N          8.9000   55.5350   18.8970 N.am   41  PHE41      -0.1960
     23  CA         9.4220   56.0390   17.6280 C.3    41  PHE41       0.1771
     24  C          9.2480   55.0490   16.4760 C.2    41  PHE41       0.2619
     25  O          9.6970   55.3090   15.3670 O.2    41  PHE41      -0.2715
     26  CB        10.9060   56.3920   17.8110 C.3    41  PHE41       0.0574
     27  CG        11.1420   57.3730   18.9190 C.ar   41  PHE41      -0.0200
     28  CD1       10.9000   58.7250   18.7160 C.ar   41  PHE41      -0.0042
     29  CD2       11.5260   56.9430   20.1820 C.ar   41  PHE41      -0.0042
     30  CE1       11.0860   59.6370   19.7510 C.ar   41  PHE41      -0.0003
     31  CE2       11.7170   57.8460   21.2230 C.ar   41  PHE41      -0.0003
     32  CZ        11.4940   59.2000   21.0060 C.ar   41  PHE41      -0.0000
     33  N          8.5990   53.9180   16.7350 N.am   42  GLN42      -0.1963
     34  CA         8.4780   52.8600   15.7120 C.3    42  GLN42       0.1733
     35  C          7.3050   53.0370   14.7280 C.2    42  GLN42       0.2616
     36  O          7.1520   52.2560   13.7860 O.2    42  GLN42      -0.2715
     37  CB         8.4160   51.4780   16.3710 C.3    42  GLN42       0.0408
     38  CG         9.7700   50.9990   16.9070 C.3    42  GLN42       0.0908
     39  CD         9.6550   49.7190   17.7100 C.2    42  GLN42       0.2608
     40  OE1        8.5800   49.3900   18.2200 O.2    42  GLN42      -0.2717
     41  NE2       10.7520   48.9700   17.8110 N.am   42  GLN42      -0.0878
     42  N          6.4910   54.0580   14.9560 N.am   43  GLN43      -0.1977
     43  CA         5.3170   54.3500   14.1210 C.3    43  GLN43       0.1601
     44  C          4.9680   55.8200   14.2860 C.2    43  GLN43       0.2287
     45  O          5.3830   56.4500   15.2570 O.2    43  GLN43      -0.2864
     46  CB         4.1120   53.4740   14.4910 C.3    43  GLN43       0.0394
     47  CG         3.5900   53.6580   15.9160 C.3    43  GLN43       0.0908
     48  CD         4.5350   53.0550   16.9440 C.2    43  GLN43       0.2608
     49  OE1        4.9220   51.8870   16.8320 O.2    43  GLN43      -0.2717
     50  NE2        4.9310   53.8520   17.9310 N.am   43  GLN43      -0.0878
     51  N          3.2020   59.2470   15.3500 N.3    45  VAL45      -0.1231
     52  CA         2.4230   59.5860   16.5390 C.3    45  VAL45       0.1692
     53  C          0.9310   59.5240   16.2040 C.2    45  VAL45       0.2592
     54  O          0.4610   60.1810   15.2720 O.2    45  VAL45      -0.2718
     55  CB         2.8230   60.9620   17.1110 C.3    45  VAL45       0.0266
     56  CG1        1.9180   61.3570   18.2850 C.3    45  VAL45       0.0020
     57  CG2        4.2880   60.9330   17.5430 C.3    45  VAL45       0.0020
     58  N          0.1950   58.6870   16.9260 N.am   46  ASP46      -0.1974
     59  CA        -1.2510   58.6380   16.7400 C.3    46  ASP46       0.1709
     60  C         -1.8830   59.6320   17.7030 C.2    46  ASP46       0.2293
     61  O         -2.1860   59.2950   18.8450 O.2    46  ASP46      -0.2864
     62  CB        -1.7920   57.2230   16.9480 C.3    46  ASP46       0.1436
     63  CG        -3.2730   57.1140   16.6190 C.2    46  ASP46       0.3671
     64  OD1       -3.9900   58.1330   16.6940 O.co2  46  ASP46      -0.2456
     65  OD2       -3.7340   55.9980   16.3030 O.co2  46  ASP46      -0.2456
     66  N         -5.5450   58.5400   19.1320 N.3    49  LYS49      -0.1231
     67  CA        -5.5020   57.5270   20.1770 C.3    49  LYS49       0.1693
     68  C         -4.9180   58.0800   21.4780 C.2    49  LYS49       0.2591
     69  O         -5.3940   57.7490   22.5630 O.2    49  LYS49      -0.2718
     70  CB        -4.6930   56.3120   19.7270 C.3    49  LYS49       0.0285
     71  CG        -4.5330   55.2770   20.8370 C.3    49  LYS49       0.0035
     72  CD        -4.0600   53.9110   20.3510 C.3    49  LYS49       0.0206
     73  CE        -2.6830   53.9350   19.7030 C.3    49  LYS49       0.1093
     74  NZ        -1.7320   54.9320   20.2880 N.3    49  LYS49      -0.1314
     75  N         -3.9030   58.9280   21.3420 N.am   50  LEU50      -0.1980
     76  CA        -3.1530   59.4630   22.4760 C.3    50  LEU50       0.1596
     77  C         -3.7500   60.7600   22.9760 C.2    50  LEU50       0.2287
     78  O         -3.3100   61.2960   23.9960 O.2    50  LEU50      -0.2864
     79  CB        -1.6790   59.6650   22.0950 C.3    50  LEU50       0.0297
     80  CG        -0.9300   58.4250   21.6060 C.3    50  LEU50       0.0022
     81  CD1        0.5060   58.7790   21.2390 C.3    50  LEU50       0.0001
     82  CD2       -0.9930   57.3480   22.6910 C.3    50  LEU50       0.0001
     83  N         -3.7600   63.9070   21.6730 N.3    52  LEU52      -0.1245
     84  CA        -2.8520   65.0400   21.5830 C.3    52  LEU52       0.1561
     85  C         -3.2980   65.9540   20.4510 C.2    52  LEU52       0.2260
     86  O         -2.6550   65.9950   19.3940 O.2    52  LEU52      -0.2867
     87  CB        -1.4160   64.5560   21.3510 C.3    52  LEU52       0.0270
     88  CG        -0.9150   63.5470   22.3840 C.3    52  LEU52       0.0019
     89  CD1        0.4690   63.0380   21.9830 C.3    52  LEU52       0.0001
     90  CD2       -0.9050   64.1700   23.7780 C.3    52  LEU52       0.0001
     91  N         -0.6940   68.1590   18.5590 N.3    55  TYR55      -0.1241
     92  CA         0.5620   67.6170   18.0360 C.3    55  TYR55       0.1605
     93  C          0.8210   68.0020   16.5880 C.2    55  TYR55       0.2264
     94  O          1.9040   68.4840   16.2620 O.2    55  TYR55      -0.2867
     95  CB         0.6510   66.0900   18.1850 C.3    55  TYR55       0.0534
     96  CG         2.0120   65.5860   17.7940 C.ar   55  TYR55      -0.0201
     97  CD1        3.0730   65.6380   18.6920 C.ar   55  TYR55      -0.0009
     98  CD2        2.2510   65.1030   16.5060 C.ar   55  TYR55      -0.0009
     99  CE1        4.3350   65.2080   18.3280 C.ar   55  TYR55       0.0417
    100  CE2        3.5070   64.6650   16.1270 C.ar   55  TYR55       0.0417
    101  CZ         4.5400   64.7100   17.0470 C.ar   55  TYR55       0.1957
    102  OH         5.7840   64.2970   16.6680 O.3    55  TYR55      -0.2866
    103  N         13.0650   63.4540   13.0860 N.3    90  MET90      -0.1245
    104  CA        12.3950   62.6980   14.1390 C.3    90  MET90       0.1570
    105  C         12.8380   63.1440   15.5390 C.2    90  MET90       0.2261
    106  O         12.0000   63.4140   16.4090 O.2    90  MET90      -0.2867
    107  CB        12.6340   61.2030   13.9610 C.3    90  MET90       0.0387
    108  CG        11.9680   60.3820   15.0400 C.3    90  MET90       0.0595
    109  SD        12.3880   58.6430   14.8520 S.3    90  MET90      -0.1393
    110  CE        13.9970   58.5830   15.6390 C.3    90  MET90       0.0692
    111  N         10.6720   65.7790   18.6230 N.3    94  CYS94      -0.1235
    112  CA        10.5630   65.4870   20.0500 C.3    94  CYS94       0.1677
    113  C         10.8990   66.6930   20.8850 C.2    94  CYS94       0.2270
    114  O         10.1870   67.0430   21.8350 O.2    94  CYS94      -0.2867
    115  CB        11.5820   64.4330   20.4340 C.3    94  CYS94       0.0956
    116  SG        11.2760   62.8200   19.7410 S.3    94  CYS94      -0.0801
    117  N          8.1770   69.5200   20.6050 N.3    97  TYR97      -0.1227
    118  CA         6.8620   69.3410   21.2170 C.3    97  TYR97       0.1736
    119  C          6.9200   69.1580   22.7400 C.2    97  TYR97       0.2595
    120  O          6.0420   69.6290   23.4640 O.2    97  TYR97      -0.2718
    121  CB         6.1220   68.1680   20.5590 C.3    97  TYR97       0.0548
    122  CG         4.7230   68.0110   21.0880 C.ar   97  TYR97      -0.0200
    123  CD1        3.6700   68.8020   20.6070 C.ar   97  TYR97      -0.0009
    124  CD2        4.4540   67.0820   22.0890 C.ar   97  TYR97      -0.0009
    125  CE1        2.3820   68.6600   21.1140 C.ar   97  TYR97       0.0417
    126  CE2        3.1780   66.9380   22.5960 C.ar   97  TYR97       0.0417
    127  CZ         2.1500   67.7200   22.1140 C.ar   97  TYR97       0.1957
    128  OH         0.8900   67.5380   22.6590 O.3    97  TYR97      -0.2866
    129  N          7.9710   68.4970   23.2190 N.am   98  ASN98      -0.1974
    130  CA         8.0630   68.1190   24.6360 C.3    98  ASN98       0.1688
    131  C          8.9880   69.0080   25.4780 C.2    98  ASN98       0.2292
    132  O          9.6730   69.8750   24.9450 O.2    98  ASN98      -0.2864
    133  CB         8.4810   66.6580   24.7290 C.3    98  ASN98       0.1181
    134  CG         7.5530   65.7420   23.9540 C.2    98  ASN98       0.2629
    135  OD1        6.4570   65.4330   24.4190 O.2    98  ASN98      -0.2716
    136  ND2        7.9900   65.2940   22.7740 N.am   98  ASN98      -0.0877
    137  N          9.7920   61.0190   27.2440 N.3   104  ILE104     -0.1245
    138  CA        10.0210   60.8870   25.8010 C.3   104  ILE104      0.1561
    139  C         11.3090   61.5770   25.3650 C.2   104  ILE104      0.2260
    140  O         12.0280   61.0670   24.5170 O.2   104  ILE104     -0.2867
    141  CB         8.8000   61.3600   24.9750 C.3   104  ILE104      0.0252
    142  CG1        8.9270   60.9440   23.5060 C.3   104  ILE104      0.0019
    143  CG2        8.5750   62.8600   25.1160 C.3   104  ILE104      0.0019
    144  CD1        8.4740   59.5200   23.2560 C.3   104  ILE104      0.0001
@<TRIPOS>BOND
     1   103   104    1
     2    36    35    2
     3   107   104    1
     4   107   108    1
     5    43    44    1
     6    43    46    1
     7    43    42    1
     8   104   105    1
     9    44    45    2
    10    46    47    1
    11    35    42   am
    12    35    34    1
    13   109   108    1
    14   109   110    1
    15    54    53    2
    16    51    52    1
    17    25    24    2
    18   105   106    2
    19    34    37    1
    20    34    33    1
    21    47    48    1
    22   100    98   ar
    23   100   101   ar
    24    53    52    1
    25    53    58   am
    26    94    93    2
    27    65    63   ar
    28    37    38    1
    29    24    33   am
    30    24    23    1
    31    98    96   ar
    32    52    55    1
    33    93    92    1
    34    63    64   ar
    35    63    62    1
    36   102   101    1
    37    59    58    1
    38    59    62    1
    39    59    60    1
    40    49    48    2
    41    38    39    1
    42    48    50   am
    43   101    99   ar
    44    55    57    1
    45    55    56    1
    46    23    26    1
    47    23    22    1
    48    60    61    2
    49    39    41   am
    50    39    40    2
    51    96    95    1
    52    96    97   ar
    53    26    27    1
    54    92    95    1
    55    92    91    1
    56    99    97   ar
    57   111   112    1
    58    28    27   ar
    59    28    30   ar
    60    22    17   am
    61    27    29   ar
    62    18    17    2
    63    66    67    1
    64    86    85    2
    65    17    16    1
    66     4     3    2
    67    73    74    1
    68    73    72    1
    69    70    67    1
    70    70    71    1
    71   116   115    1
    72    30    32   ar
    73   112   115    1
    74   112   113    1
    75    67    68    1
    76    29    31   ar
    77    72    71    1
    78    85    84    1
    79     3     2    1
    80     3    15   am
    81   121   122    1
    82   121   118    1
    83   117   118    1
    84   123   122   ar
    85   123   125   ar
    86     2     1    1
    87     2     5    1
    88    16    15    1
    89    16    19    1
    90   113   114    2
    91    32    31   ar
    92   122   124   ar
    93   125   127   ar
    94    15    21    1
    95   118   119    1
    96    81    80    1
    97    75    68   am
    98    75    76    1
    99    87    84    1
   100    87    88    1
   101    68    69    2
   102    84    83    1
   103    80    79    1
   104    80    82    1
   105     5     6    1
   106    19    20    1
   107    89    88    1
   108   124   126   ar
   109    79    76    1
   110   127   126   ar
   111   127   128    1
   112    21    20    1
   113    88    90    1
   114    76    77    1
   115   119   129   am
   116   119   120    2
   117   136   134   am
   118    77    78    2
   119   129   130    1
   120   144   142    1
   121    11     8   ar
   122    11    13   ar
   123     6     8   ar
   124     6     7   ar
   125   142   141    1
   126     8    10   ar
   127   134   135    2
   128   134   133    1
   129    13    14   ar
   130     7     9   ar
   131   140   139    2
   132   130   133    1
   133   130   131    1
   134   132   131    2
   135   141   143    1
   136   141   138    1
   137    10     9   ar
   138    10    12   ar
   139   139   138    1
   140    14    12   ar
   141   138   137    1
