@<TRIPOS>MOLECULE
tmp/5d29A06.pdb
 174 166 0 0 0
SMALL
GASTEIGER

@<TRIPOS>ATOM
      1  N         26.4860   46.0110   33.3880 N.3   151  GLY151     -0.1225
      2  CA        27.3020   46.7390   34.3760 C.3   151  GLY151      0.1811
      3  C         27.1470   48.2490   34.2260 C.2   151  GLY151      0.2280
      4  O         26.5390   48.7310   33.2320 O.2   151  GLY151     -0.2866
      5  N         32.6190   41.0100   35.8560 N.3   179  TYR179     -0.1241
      6  CA        31.9790   40.0160   36.7260 C.3   179  TYR179      0.1605
      7  C         32.8570   38.8080   37.0470 C.2   179  TYR179      0.2264
      8  O         32.3360   37.7150   37.3750 O.2   179  TYR179     -0.2867
      9  CB        30.7080   39.4890   36.0690 C.3   179  TYR179      0.0534
     10  CG        29.6120   40.5420   36.0440 C.ar  179  TYR179     -0.0201
     11  CD1       29.3930   41.3250   34.9060 C.ar  179  TYR179     -0.0009
     12  CD2       28.8240   40.7680   37.1810 C.ar  179  TYR179     -0.0009
     13  CE1       28.3990   42.3310   34.8940 C.ar  179  TYR179      0.0417
     14  CE2       27.8530   41.7780   37.1870 C.ar  179  TYR179      0.0417
     15  CZ        27.6330   42.5340   36.0570 C.ar  179  TYR179      0.1957
     16  OH        26.6410   43.4930   36.0910 O.3   179  TYR179     -0.2866
     17  N         23.0840   36.4650   34.1950 N.3   199  GLN199     -0.1245
     18  CA        22.3750   37.3740   35.1010 C.3   199  GLN199      0.1566
     19  C         20.9640   37.5560   34.5980 C.2   199  GLN199      0.2260
     20  O         20.7350   38.1180   33.5120 O.2   199  GLN199     -0.2867
     21  CB        23.0950   38.7290   35.1360 C.3   199  GLN199      0.0367
     22  CG        22.4260   39.8230   36.0540 C.3   199  GLN199      0.0905
     23  CD        22.9730   41.2320   35.7950 C.2   199  GLN199      0.2608
     24  OE1       22.2130   42.2530   35.7490 O.2   199  GLN199     -0.2717
     25  NE2       24.2980   41.3230   35.6630 N.am  199  GLN199     -0.0878
     26  N         12.4480   42.6150   50.1690 N.3   322  HIS322     -0.1241
     27  CA        11.6930   41.6690   49.3780 C.3   322  HIS322      0.1621
     28  C         12.0460   40.1910   49.7300 C.2   322  HIS322      0.2264
     29  O         13.0860   39.9130   50.3880 O.2   322  HIS322     -0.2867
     30  CB        11.8660   41.9340   47.8590 C.3   322  HIS322      0.0745
     31  CG        13.2160   41.5910   47.2410 C.ar  322  HIS322      0.0817
     32  ND1       13.3500   40.5150   46.3780 N.ar  322  HIS322     -0.2268
     33  CD2       14.3920   42.2700   47.1620 C.ar  322  HIS322      0.1154
     34  CE1       14.5620   40.5060   45.8580 C.ar  322  HIS322      0.1986
     35  NE2       15.2120   41.5730   46.2880 N.ar  322  HIS322     -0.2212
     36  N         20.5520   37.5350   47.2240 N.3   332  ASP332     -0.1239
     37  CA        19.4430   38.4340   46.8320 C.3   332  ASP332      0.1674
     38  C         18.1310   37.7030   46.7460 C.2   332  ASP332      0.2266
     39  O         17.8600   37.0440   45.7270 O.2   332  ASP332     -0.2867
     40  CB        19.7650   38.9820   45.4530 C.3   332  ASP332      0.1410
     41  CG        18.8060   40.0390   45.0110 C.2   332  ASP332      0.3668
     42  OD1       17.8480   40.2830   45.7520 O.co2 332  ASP332     -0.2456
     43  OD2       19.0050   40.5810   43.8910 O.co2 332  ASP332     -0.2456
     44  N          9.5980   42.2110   43.8600 N.3   369  GLU369     -0.1231
     45  CA        10.5630   43.3080   43.7420 C.3   369  GLU369      0.1699
     46  C         11.3650   43.1110   42.4600 C.2   369  GLU369      0.2592
     47  O         11.7230   44.1120   41.7840 O.2   369  GLU369     -0.2718
     48  CB        11.4090   43.3490   44.9890 C.3   369  GLU369      0.0402
     49  CG        12.4280   44.4980   45.0430 C.3   369  GLU369      0.1161
     50  CD        13.8010   44.1770   44.3940 C.2   369  GLU369      0.3649
     51  OE1       14.0550   43.0640   43.8090 O.co2 369  GLU369     -0.2457
     52  OE2       14.6380   45.0820   44.4540 O.co2 369  GLU369     -0.2457
     53  N         11.6910   41.8490   42.1400 N.am  370  GLU370     -0.1979
     54  CA        12.5220   41.6070   40.9610 C.3   370  GLU370      0.1602
     55  C         11.8350   41.9510   39.6570 C.2   370  GLU370      0.2287
     56  O         12.4860   42.0670   38.6120 O.2   370  GLU370     -0.2864
     57  CB        12.9870   40.1030   40.9330 C.3   370  GLU370      0.0415
     58  CG        13.9080   39.7050   42.1330 C.3   370  GLU370      0.1163
     59  CD        15.2820   40.4210   42.1300 C.2   370  GLU370      0.3649
     60  OE1       15.5170   41.3720   41.3480 O.co2 370  GLU370     -0.2457
     61  OE2       16.1490   40.0490   42.9370 O.co2 370  GLU370     -0.2457
     62  N         17.1100   44.5830   51.7360 N.3   398  ASP398     -0.1225
     63  CA        17.4430   43.6080   50.7140 C.3   398  ASP398      0.1805
     64  C         18.8020   43.0020   51.1870 C.2   398  ASP398      0.2598
     65  O         19.1250   43.0830   52.3760 O.2   398  ASP398     -0.2718
     66  CB        17.5420   44.3260   49.3620 C.3   398  ASP398      0.1424
     67  CG        17.3790   43.3790   48.1460 C.2   398  ASP398      0.3668
     68  OD1       17.5740   42.1600   48.2670 O.co2 398  ASP398     -0.2456
     69  OD2       17.0620   43.8880   47.0570 O.co2 398  ASP398     -0.2456
     70  N         19.5370   42.4170   50.2620 N.am  399  SER399     -0.1952
     71  CA        20.7710   41.6350   50.5430 C.3   399  SER399      0.1924
     72  C         21.5980   42.3060   51.6580 C.2   399  SER399      0.2314
     73  O         21.8800   43.5110   51.5890 O.2   399  SER399     -0.2863
     74  CB        21.5670   41.5990   49.2630 C.3   399  SER399      0.2116
     75  OG        20.8190   41.0520   48.1910 O.3   399  SER399     -0.2180
     76  N         27.1660   42.1670   50.0240 N.3   402  GLU402     -0.1245
     77  CA        27.5170   42.0310   48.6240 C.3   402  GLU402      0.1567
     78  C         29.0600   41.9430   48.5950 C.2   402  GLU402      0.2260
     79  O         29.6980   42.0960   47.5650 O.2   402  GLU402     -0.2867
     80  CB        26.9700   43.2040   47.7910 C.3   402  GLU402      0.0388
     81  CG        27.4200   44.5290   48.3060 C.3   402  GLU402      0.1160
     82  CD        26.8470   45.7350   47.5610 C.2   402  GLU402      0.3649
     83  OE1       25.7800   45.5900   46.9060 O.co2 402  GLU402     -0.2457
     84  OE2       27.4980   46.8230   47.6700 O.co2 402  GLU402     -0.2457
     85  N         28.2180   49.8370   53.9320 N.3   408  ARG408     -0.1245
     86  CA        27.7970   50.7600   52.8850 C.3   408  ARG408      0.1563
     87  C         26.4130   51.2570   53.3010 C.2   408  ARG408      0.2260
     88  O         25.5060   50.4530   53.5460 O.2   408  ARG408     -0.2867
     89  CB        27.6930   49.9980   51.5590 C.3   408  ARG408      0.0307
     90  CG        27.2400   50.8810   50.3630 C.3   408  ARG408      0.0489
     91  CD        27.1950   50.0300   49.1200 C.3   408  ARG408      0.2205
     92  NE        26.8730   50.8480   47.9500 N.pl3 408  ARG408     -0.0865
     93  CZ        26.5900   50.3670   46.7370 C.cat 408  ARG408      0.5346
     94  NH1       26.5780   49.0560   46.5100 N.pl3 408  ARG408      0.1354
     95  NH2       26.3160   51.2040   45.7370 N.pl3 408  ARG408      0.1354
     96  N         17.6500   54.5110   43.1760 N.3   462  SER462     -0.1202
     97  CA        16.4090   53.7320   43.1260 C.3   462  SER462      0.2020
     98  C         16.7220   52.3140   42.7300 C.2   462  SER462      0.2619
     99  O         17.8620   51.8500   42.8700 O.2   462  SER462     -0.2717
    100  CB        15.3810   54.3380   42.2170 C.3   462  SER462      0.2103
    101  OG        14.2740   53.4180   42.0090 O.3   462  SER462     -0.2182
    102  N         15.6940   51.6230   42.2600 N.am  463  GLY463     -0.1942
    103  CA        15.7810   50.2480   41.8370 C.3   463  GLY463      0.2014
    104  C         15.7030   49.3430   43.0500 C.2   463  GLY463      0.2638
    105  O         16.1550   48.2300   42.9760 O.2   463  GLY463     -0.2714
    106  N         15.1490   49.8250   44.1820 N.am  464  ASN464     -0.1972
    107  CA        14.7990   48.8880   45.2600 C.3   464  ASN464      0.1688
    108  C         13.5370   49.3840   45.9800 C.2   464  ASN464      0.2292
    109  O         13.0260   50.4370   45.6490 O.2   464  ASN464     -0.2864
    110  CB        15.9590   48.6960   46.2570 C.3   464  ASN464      0.1181
    111  CG        16.0310   47.2650   46.7720 C.2   464  ASN464      0.2629
    112  OD1       15.1250   46.8010   47.4440 O.2   464  ASN464     -0.2716
    113  ND2       17.0760   46.5460   46.3790 N.am  464  ASN464     -0.0877
    114  N         19.2350   52.6700   53.8780 N.3   479  ARG479     -0.1245
    115  CA        19.5760   51.2800   53.6680 C.3   479  ARG479      0.1563
    116  C         21.0210   51.0830   54.0760 C.2   479  ARG479      0.2260
    117  O         21.8030   52.0540   54.0580 O.2   479  ARG479     -0.2867
    118  CB        19.4220   50.8670   52.1870 C.3   479  ARG479      0.0307
    119  CG        20.4560   51.4940   51.2460 C.3   479  ARG479      0.0489
    120  CD        20.0230   51.3350   49.7420 C.3   479  ARG479      0.2205
    121  NE        19.8630   49.9350   49.3580 N.pl3 479  ARG479     -0.0865
    122  CZ        19.8700   49.4820   48.0980 C.cat 479  ARG479      0.5346
    123  NH1       20.1210   50.2870   47.0600 N.pl3 479  ARG479      0.1354
    124  NH2       19.6890   48.2050   47.8980 N.pl3 479  ARG479      0.1354
    125  N         28.7830   45.4150   41.0350 N.3   487  GLY487     -0.1210
    126  CA        27.9290   44.6200   41.9250 C.3   487  GLY487      0.1956
    127  C         28.7030   43.4170   42.4390 C.2   487  GLY487      0.2611
    128  O         29.7310   43.5820   43.0890 O.2   487  GLY487     -0.2717
    129  N         28.2210   42.1890   42.1810 N.am  488  TYR488     -0.1976
    130  CA        29.0200   40.9970   42.6000 C.3   488  TYR488      0.1639
    131  C         28.8410   39.8910   41.5810 C.2   488  TYR488      0.2290
    132  O         27.8650   39.9110   40.8310 O.2   488  TYR488     -0.2864
    133  CB        28.6880   40.5500   44.0310 C.3   488  TYR488      0.0560
    134  CG        27.2030   40.2230   44.2040 C.ar  488  TYR488     -0.0198
    135  CD1       26.7390   38.8880   44.1060 C.ar  488  TYR488     -0.0009
    136  CD2       26.2690   41.2530   44.4030 C.ar  488  TYR488     -0.0009
    137  CE1       25.3320   38.5950   44.2380 C.ar  488  TYR488      0.0417
    138  CE2       24.9140   40.9790   44.5500 C.ar  488  TYR488      0.0417
    139  CZ        24.4530   39.6480   44.4680 C.ar  488  TYR488      0.1957
    140  OH        23.0910   39.3840   44.6090 O.3   488  TYR488     -0.2866
    141  N         25.5050   37.6870   40.8940 N.3   491  TYR491     -0.1227
    142  CA        24.2300   38.4480   40.9860 C.3   491  TYR491      0.1736
    143  C         23.1890   37.9190   39.9940 C.2   491  TYR491      0.2595
    144  O         23.4610   37.8450   38.7680 O.2   491  TYR491     -0.2718
    145  CB        24.5880   39.9010   40.6790 C.3   491  TYR491      0.0548
    146  CG        23.4050   40.8380   40.5040 C.ar  491  TYR491     -0.0200
    147  CD1       22.5160   41.0600   41.5530 C.ar  491  TYR491     -0.0009
    148  CD2       23.1970   41.5050   39.2770 C.ar  491  TYR491     -0.0009
    149  CE1       21.4250   41.9670   41.3790 C.ar  491  TYR491      0.0417
    150  CE2       22.0980   42.4130   39.0930 C.ar  491  TYR491      0.0417
    151  CZ        21.2410   42.6250   40.1560 C.ar  491  TYR491      0.1957
    152  OH        20.1610   43.4730   40.0140 O.3   491  TYR491     -0.2866
    153  N         22.0250   37.5100   40.5030 N.am  492  HIS492     -0.1975
    154  CA        20.8760   37.0460   39.6940 C.3   492  HIS492      0.1656
    155  C         21.0870   35.7310   38.8950 C.2   492  HIS492      0.2291
    156  O         20.3430   35.4150   37.9740 O.2   492  HIS492     -0.2864
    157  CB        20.3480   38.1500   38.7530 C.3   492  HIS492      0.0771
    158  CG        19.5580   39.2370   39.4530 C.ar  492  HIS492      0.0820
    159  ND1       18.9300   40.2450   38.7520 N.ar  492  HIS492     -0.2267
    160  CD2       19.3060   39.4860   40.7630 C.ar  492  HIS492      0.1154
    161  CE1       18.2780   41.0430   39.5920 C.ar  492  HIS492      0.1986
    162  NE2       18.4760   40.5870   40.8030 N.ar  492  HIS492     -0.2212
    163  N         19.7220   53.0800   39.0810 N.3   636  TYR636     -0.1241
    164  CA        20.3950   52.6860   40.3240 C.3   636  TYR636      0.1605
    165  C         21.0770   53.8390   41.0430 C.2   636  TYR636      0.2264
    166  O         21.2120   53.8180   42.2610 O.2   636  TYR636     -0.2867
    167  CB        21.4010   51.5880   40.0790 C.3   636  TYR636      0.0534
    168  CG        20.8330   50.2250   39.7140 C.ar  636  TYR636     -0.0201
    169  CD1       19.5410   49.8060   40.0910 C.ar  636  TYR636     -0.0009
    170  CD2       21.6170   49.3250   38.9860 C.ar  636  TYR636     -0.0009
    171  CE1       19.0880   48.4880   39.7350 C.ar  636  TYR636      0.0417
    172  CE2       21.1680   48.0700   38.6480 C.ar  636  TYR636      0.0417
    173  CZ        19.9220   47.6320   38.9980 C.ar  636  TYR636      0.1957
    174  OH        19.5640   46.3060   38.5830 O.3   636  TYR636     -0.2866
@<TRIPOS>BOND
     1     4     3    2
     2     1     2    1
     3    20    19    2
     4    17    18    1
     5     3     2    1
     6    19    18    1
     7    13    11   ar
     8    13    15   ar
     9    11    10   ar
    10    18    21    1
    11    21    22    1
    12    25    23   am
    13    24    23    2
    14    23    22    1
    15     5     6    1
    16    10     9    1
    17    10    12   ar
    18    15    16    1
    19    15    14   ar
    20     9     6    1
    21     6     7    1
    22     7     8    2
    23    12    14   ar
    24   156   155    2
    25   174   173    1
    26    56    55    2
    27   172   170   ar
    28   172   173   ar
    29   159   158   ar
    30   159   161   ar
    31   157   158    1
    32   157   154    1
    33   144   143    2
    34   155   154    1
    35   170   168   ar
    36   173   171   ar
    37   163   164    1
    38   150   148   ar
    39   150   151   ar
    40   148   146   ar
    41   158   160   ar
    42   161   162   ar
    43    55    54    1
    44   154   153    1
    45   168   167    1
    46   168   169   ar
    47   171   169   ar
    48   143   153   am
    49   143   142    1
    50   152   151    1
    51   167   164    1
    52   151   149   ar
    53   164   165    1
    54   146   145    1
    55   146   147   ar
    56   145   142    1
    57   160   162   ar
    58   132   131    2
    59   141   142    1
    60    57    54    1
    61    57    58    1
    62    54    53    1
    63   125   126    1
    64   165   166    2
    65    60    59   ar
    66   149   147   ar
    67   131   130    1
    68    47    46    2
    69   103   102    1
    70   103   104    1
    71   126   127    1
    72   101   100    1
    73    59    58    1
    74    59    61   ar
    75    53    46   am
    76   129   127   am
    77   129   130    1
    78   100    97    1
    79   102    98   am
    80   127   128    2
    81    46    45    1
    82   130   133    1
    83    98    99    2
    84    98    97    1
    85   105   104    2
    86   104   106   am
    87    97    96    1
    88    45    44    1
    89    45    48    1
    90    51    50   ar
    91    43    41   ar
    92   133   134    1
    93   135   134   ar
    94   135   137   ar
    95   106   107    1
    96   134   136   ar
    97   137   139   ar
    98    50    52   ar
    99    50    49    1
   100   136   138   ar
   101   139   138   ar
   102   139   140    1
   103    48    49    1
   104    41    40    1
   105    41    42   ar
   106   107   108    1
   107   107   110    1
   108    40    37    1
   109   109   108    2
   110    39    38    2
   111    95    93    1
   112    34    35   ar
   113    34    32   ar
   114   110   111    1
   115    35    33   ar
   116    32    31   ar
   117   113   111   am
   118    94    93    1
   119    93    92    2
   120    38    37    1
   121   111   112    2
   122    37    36    1
   123    83    82   ar
   124    69    67   ar
   125   123   122    1
   126    33    31   ar
   127    31    30    1
   128    82    84   ar
   129    82    81    1
   130    79    78    2
   131    80    81    1
   132    80    77    1
   133    30    27    1
   134   124   122    1
   135    92    91    1
   136   122   121    2
   137    67    68   ar
   138    67    66    1
   139    75    74    1
   140    78    77    1
   141    77    76    1
   142    91    90    1
   143    74    71    1
   144   121   120    1
   145    66    63    1
   146    27    28    1
   147    27    26    1
   148    28    29    2
   149   120   119    1
   150    70    71    1
   151    70    64   am
   152    90    89    1
   153    71    72    1
   154    63    64    1
   155    63    62    1
   156    64    65    2
   157   119   118    1
   158    89    86    1
   159    73    72    2
   160   118   115    1
   161    86    87    1
   162    86    85    1
   163    87    88    2
   164   115   114    1
   165   115   116    1
   166   117   116    2
