@<TRIPOS>MOLECULE
tmp/5d2dB00.pdb
 87 80 0 0 0
SMALL
GASTEIGER

@<TRIPOS>ATOM
      1  N        -26.7990   29.1750  -16.9140 N.3    20  ASP20      -0.1239
      2  CA       -26.9020   28.5020  -15.6160 C.3    20  ASP20       0.1674
      3  C        -28.1760   28.9260  -14.8860 C.2    20  ASP20       0.2266
      4  O        -28.8710   28.0830  -14.3360 O.2    20  ASP20      -0.2867
      5  CB       -25.6800   28.7920  -14.7400 C.3    20  ASP20       0.1410
      6  CG       -24.3850   28.5560  -15.4790 C.2    20  ASP20       0.3668
      7  OD1      -23.9790   27.3900  -15.5990 O.co2  20  ASP20      -0.2456
      8  OD2      -23.7960   29.5390  -15.9750 O.co2  20  ASP20      -0.2456
      9  N        -35.1710   23.5770  -14.0450 N.3    27  LYS27      -0.1245
     10  CA       -35.0340   22.4780  -13.1030 C.3    27  LYS27       0.1561
     11  C        -36.0890   22.5630  -11.9880 C.2    27  LYS27       0.2260
     12  O        -36.6840   21.5550  -11.6050 O.2    27  LYS27      -0.2867
     13  CB       -33.6390   22.4650  -12.4850 C.3    27  LYS27       0.0271
     14  CG       -33.4830   21.3970  -11.3990 C.3    27  LYS27       0.0035
     15  CD       -32.0780   21.3440  -10.8250 C.3    27  LYS27       0.0206
     16  CE       -32.0270   20.3660   -9.6550 C.3    27  LYS27       0.1093
     17  NZ       -30.6720   20.2630   -9.1170 N.3    27  LYS27      -0.1314
     18  N        -29.8450   23.2470  -20.6240 N.3    48  TYR48      -0.1241
     19  CA       -28.8150   22.2970  -20.2300 C.3    48  TYR48       0.1605
     20  C        -27.8390   22.0000  -21.3760 C.2    48  TYR48       0.2264
     21  O        -26.6630   21.7370  -21.1350 O.2    48  TYR48      -0.2867
     22  CB       -29.4420   21.0220  -19.6880 C.3    48  TYR48       0.0534
     23  CG       -29.7630   21.1460  -18.2090 C.ar   48  TYR48      -0.0201
     24  CD1      -28.7450   21.1540  -17.2560 C.ar   48  TYR48      -0.0009
     25  CD2      -31.0730   21.2960  -17.7660 C.ar   48  TYR48      -0.0009
     26  CE1      -29.0260   21.2540  -15.8920 C.ar   48  TYR48       0.0417
     27  CE2      -31.3660   21.4040  -16.4090 C.ar   48  TYR48       0.0417
     28  CZ       -30.3370   21.3900  -15.4770 C.ar   48  TYR48       0.1957
     29  OH       -30.6340   21.5190  -14.1340 O.3    48  TYR48      -0.2866
     30  N        -25.3240   24.7210  -20.9790 N.3    51  VAL51      -0.1245
     31  CA       -24.5540   24.5530  -19.7540 C.3    51  VAL51       0.1561
     32  C        -23.5320   23.4230  -19.9150 C.2    51  VAL51       0.2260
     33  O        -22.3350   23.6330  -19.7290 O.2    51  VAL51      -0.2867
     34  CB       -25.4790   24.2940  -18.5580 C.3    51  VAL51       0.0252
     35  CG1      -24.6810   23.8260  -17.3290 C.3    51  VAL51       0.0019
     36  CG2      -26.2730   25.5810  -18.2450 C.3    51  VAL51       0.0019
     37  N        -18.8420   23.1130  -20.8870 N.3    55  ARG55      -0.1245
     38  CA       -17.8570   22.2610  -20.2300 C.3    55  ARG55       0.1563
     39  C        -17.2240   21.2930  -21.2060 C.2    55  ARG55       0.2260
     40  O        -16.0150   21.0640  -21.1480 O.2    55  ARG55      -0.2867
     41  CB       -18.4710   21.4800  -19.0700 C.3    55  ARG55       0.0307
     42  CG       -18.5180   22.2350  -17.7410 C.3    55  ARG55       0.0489
     43  CD       -19.4480   23.4000  -17.8230 C.3    55  ARG55       0.2205
     44  NE       -19.5820   24.1220  -16.5630 N.pl3  55  ARG55      -0.0865
     45  CZ       -20.4840   25.0770  -16.3700 C.cat  55  ARG55       0.5346
     46  NH1      -20.5520   25.7030  -15.2080 N.pl3  55  ARG55       0.1354
     47  NH2      -21.3310   25.3990  -17.3490 N.pl3  55  ARG55       0.1354
     48  N        -15.4370   17.1630  -13.4000 N.3    85  THR85      -0.1203
     49  CA       -16.3220   17.0790  -12.2490 C.3    85  THR85       0.1994
     50  C        -17.5750   17.9580  -12.4240 C.2    85  THR85       0.2617
     51  O        -18.6800   17.5410  -12.0880 O.2    85  THR85      -0.2717
     52  CB       -15.5550   17.4630  -10.9660 C.3    85  THR85       0.1784
     53  OG1      -14.5080   16.5100  -10.7670 O.3    85  THR85      -0.2211
     54  CG2      -16.4710   17.4620   -9.7450 C.3    85  THR85       0.0376
     55  N        -17.4030   19.1660  -12.9530 N.am   86  GLU86      -0.1979
     56  CA       -18.5420   20.0310  -13.2810 C.3    86  GLU86       0.1602
     57  C        -19.4480   19.3380  -14.2900 C.2    86  GLU86       0.2287
     58  O        -20.6660   19.2950  -14.1360 O.2    86  GLU86      -0.2864
     59  CB       -18.0750   21.3740  -13.8470 C.3    86  GLU86       0.0415
     60  CG       -17.4130   22.3040  -12.8340 C.3    86  GLU86       0.1163
     61  CD       -17.1040   23.6710  -13.4190 C.2    86  GLU86       0.3649
     62  OE1      -17.5020   23.9380  -14.5780 O.co2  86  GLU86      -0.2457
     63  OE2      -16.4460   24.4770  -12.7300 O.co2  86  GLU86      -0.2457
     64  N        -21.3580   16.4300  -12.7770 N.3    89  ASP89      -0.1225
     65  CA       -22.4280   16.9800  -11.9470 C.3    89  ASP89       0.1805
     66  C        -23.6250   17.4600  -12.7980 C.2    89  ASP89       0.2597
     67  O        -24.7800   17.2480  -12.4460 O.2    89  ASP89      -0.2718
     68  CB       -21.9120   18.1460  -11.0960 C.3    89  ASP89       0.1424
     69  CG       -20.9860   17.6880   -9.9460 C.2    89  ASP89       0.3668
     70  OD1      -20.9540   16.4810   -9.6190 O.co2  89  ASP89      -0.2456
     71  OD2      -20.2990   18.5470   -9.3570 O.co2  89  ASP89      -0.2456
     72  N        -23.3380   18.1280  -13.9050 N.am   90  ILE90      -0.1980
     73  CA       -24.4150   18.6130  -14.7720 C.3    90  ILE90       0.1595
     74  C        -25.1680   17.4290  -15.3870 C.2    90  ILE90       0.2287
     75  O        -26.3910   17.3730  -15.3160 O.2    90  ILE90      -0.2864
     76  CB       -23.8770   19.5450  -15.8560 C.3    90  ILE90       0.0276
     77  CG1      -23.2750   20.7980  -15.2040 C.3    90  ILE90       0.0022
     78  CG2      -24.9990   19.9250  -16.8420 C.3    90  ILE90       0.0022
     79  CD1      -22.2630   21.5320  -16.0870 C.3    90  ILE90       0.0001
     80  N        -27.2750   15.6310  -12.8130 N.3    93  ASP93      -0.1239
     81  CA       -28.4170   16.5140  -12.5730 C.3    93  ASP93       0.1674
     82  C        -29.5510   16.2410  -13.5870 C.2    93  ASP93       0.2266
     83  O        -30.7090   15.9750  -13.2300 O.2    93  ASP93      -0.2867
     84  CB       -27.9470   17.9670  -12.6670 C.3    93  ASP93       0.1410
     85  CG       -28.9780   18.9620  -12.1850 C.2    93  ASP93       0.3668
     86  OD1      -29.9490   18.5310  -11.5290 O.co2  93  ASP93      -0.2456
     87  OD2      -28.8100   20.1820  -12.4520 O.co2  93  ASP93      -0.2456
@<TRIPOS>BOND
     1    20    21    2
     2    20    19    1
     3    39    40    2
     4    39    38    1
     5    30    31    1
     6    37    38    1
     7    18    19    1
     8    19    22    1
     9    38    41    1
    10    32    31    1
    11    32    33    2
    12    31    34    1
    13    22    23    1
    14    41    42    1
    15    34    36    1
    16    34    35    1
    17    23    25   ar
    18    23    24   ar
    19    43    42    1
    20    43    44    1
    21    25    27   ar
    22    47    45    1
    23    24    26   ar
    24     1     2    1
    25    78    76    1
    26    44    45    2
    27    27    28   ar
    28    45    46    1
    29    79    77    1
    30     8     6   ar
    31    26    28   ar
    32    76    77    1
    33    76    73    1
    34     2     3    1
    35     2     5    1
    36     7     6   ar
    37     6     5    1
    38    28    29    1
    39    74    75    2
    40    74    73    1
    41     3     4    2
    42    73    72    1
    43    62    61   ar
    44    57    58    2
    45    57    56    1
    46     9    10    1
    47    72    66   am
    48    59    56    1
    49    59    60    1
    50    82    83    2
    51    82    81    1
    52    61    60    1
    53    61    63   ar
    54    48    49    1
    55    56    55    1
    56    10    13    1
    57    10    11    1
    58    55    50   am
    59    80    81    1
    60    66    67    2
    61    66    65    1
    62    64    65    1
    63    84    81    1
    64    84    85    1
    65    13    14    1
    66    87    85   ar
    67    50    49    1
    68    50    51    2
    69    49    52    1
    70    85    86   ar
    71    11    12    2
    72    65    68    1
    73    14    15    1
    74    68    69    1
    75    52    53    1
    76    52    54    1
    77    15    16    1
    78    69    70   ar
    79    69    71   ar
    80    16    17    1
