@<TRIPOS>MOLECULE
tmp/5d2hA00.pdb
 112 103 0 0 0
SMALL
GASTEIGER

@<TRIPOS>ATOM
      1  N         15.6830    5.7690   10.8770 N.3    63  LYS63      -0.1231
      2  CA        14.3360    5.6950   11.4170 C.3    63  LYS63       0.1693
      3  C         13.5920    6.9440   11.0080 C.2    63  LYS63       0.2592
      4  O         14.2150    7.9520   10.6720 O.2    63  LYS63      -0.2718
      5  CB        14.3380    5.4860   12.9440 C.3    63  LYS63       0.0285
      6  CG        15.1590    6.4820   13.7550 C.3    63  LYS63       0.0035
      7  CD        14.4960    7.8360   13.8340 C.3    63  LYS63       0.0206
      8  CE        13.1680    7.7820   14.5660 C.3    63  LYS63       0.1093
      9  NZ        13.3340    7.6380   16.0500 N.3    63  LYS63      -0.1314
     10  N         12.2660    6.8600   10.9760 N.am   64  MET64      -0.1965
     11  CA        11.4510    7.9840   10.5390 C.3    64  MET64       0.1736
     12  C         10.6320    8.4890   11.7010 C.2    64  MET64       0.2617
     13  O         10.0770    7.6980   12.4590 O.2    64  MET64      -0.2715
     14  CB        10.4980    7.5740    9.4240 C.3    64  MET64       0.0427
     15  CG        11.1820    7.0220    8.2120 C.3    64  MET64       0.0599
     16  SD        12.2940    8.2630    7.5810 S.3    64  MET64      -0.1393
     17  CE        11.1550    9.4870    6.9450 C.3    64  MET64       0.0692
     18  N         10.5520    9.8100   11.8250 N.am   65  GLY65      -0.1940
     19  CA         9.6910   10.4310   12.8090 C.3    65  GLY65       0.2014
     20  C          8.6530   11.3120   12.1470 C.2    65  GLY65       0.2639
     21  O          8.8250   11.7240   10.9860 O.2    65  GLY65      -0.2714
     22  N          7.5810   11.6160   12.8770 N.am   66  LEU66      -0.1963
     23  CA         6.5430   12.5100   12.3660 C.3    66  LEU66       0.1728
     24  C          5.9430   11.9430   11.0840 C.2    66  LEU66       0.2616
     25  O          5.8190   12.6450   10.0760 O.2    66  LEU66      -0.2715
     26  CB         7.1230   13.8980   12.1030 C.3    66  LEU66       0.0311
     27  CG         7.5240   14.6660   13.3570 C.3    66  LEU66       0.0022
     28  CD1        7.9930   16.0610   12.9850 C.3    66  LEU66       0.0001
     29  CD2        6.3410   14.7270   14.3110 C.3    66  LEU66       0.0001
     30  N          5.6010   10.6590   11.1220 N.am   67  THR67      -0.1951
     31  CA         5.0600    9.9760    9.9510 C.3    67  THR67       0.1897
     32  C          3.5500    9.9820   10.0440 C.2    67  THR67       0.2313
     33  O          2.8930    9.0110    9.6960 O.2    67  THR67      -0.2863
     34  CB         5.5210    8.5140    9.8860 C.3    67  THR67       0.1794
     35  OG1        5.2540    7.8780   11.1440 O.3    67  THR67      -0.2208
     36  CG2        7.0130    8.4300    9.5730 C.3    67  THR67       0.0378
     37  N          0.0670   14.8070   12.7810 N.3    71  LYS71      -0.1245
     38  CA         1.1240   15.2820   13.6680 C.3    71  LYS71       0.1561
     39  C          1.9880   16.3220   12.9670 C.2    71  LYS71       0.2260
     40  O          2.4120   17.3010   13.5850 O.2    71  LYS71      -0.2867
     41  CB         1.9710   14.1230   14.2090 C.3    71  LYS71       0.0271
     42  CG         2.6520   14.4340   15.5440 C.3    71  LYS71       0.0035
     43  CD         3.6880   13.3730   15.9240 C.3    71  LYS71       0.0206
     44  CE         4.2700   13.6230   17.3290 C.3    71  LYS71       0.1093
     45  NZ         3.4450   13.0130   18.4290 N.3    71  LYS71      -0.1314
     46  N         10.5150   13.4640    9.6580 N.3    81  ILE81      -0.1245
     47  CA        11.9130   13.6760    9.9480 C.3    81  ILE81       0.1561
     48  C         12.5280   12.3000   10.0260 C.2    81  ILE81       0.2260
     49  O         11.8060   11.2990   10.0860 O.2    81  ILE81      -0.2867
     50  CB        12.1100   14.3750   11.2970 C.3    81  ILE81       0.0252
     51  CG1       11.4550   13.5570   12.4080 C.3    81  ILE81       0.0019
     52  CG2       11.5160   15.7880   11.2630 C.3    81  ILE81       0.0019
     53  CD1       11.8230   14.0490   13.7950 C.3    81  ILE81       0.0001
     54  N          7.5250    2.2990   20.6730 N.3   108  GLU108     -0.1245
     55  CA         6.5230    2.3810   19.6290 C.3   108  GLU108      0.1567
     56  C          6.6340    1.1640   18.7190 C.2   108  GLU108      0.2260
     57  O          7.7280    0.6200   18.5200 O.2   108  GLU108     -0.2867
     58  CB         6.6510    3.6910   18.8440 C.3   108  GLU108      0.0388
     59  CG         8.0620    4.0740   18.4970 C.3   108  GLU108      0.1160
     60  CD         8.1640    5.4530   17.8750 C.2   108  GLU108      0.3649
     61  OE1        7.1510    6.1880   17.8200 O.co2 108  GLU108     -0.2457
     62  OE2        9.2740    5.8070   17.4420 O.co2 108  GLU108     -0.2457
     63  N         10.5390    0.3930   18.3970 N.3   141  GLU141     -0.1245
     64  CA        11.5820    1.3550   18.6900 C.3   141  GLU141      0.1567
     65  C         11.4600    1.7820   20.1340 C.2   141  GLU141      0.2260
     66  O         10.3550    1.8920   20.6710 O.2   141  GLU141     -0.2867
     67  CB        11.5110    2.5830   17.7700 C.3   141  GLU141      0.0388
     68  CG        12.7740    3.4380   17.8890 C.3   141  GLU141      0.1160
     69  CD        12.8050    4.6760   17.0000 C.2   141  GLU141      0.3649
     70  OE1       11.7550    5.0780   16.4530 O.co2 141  GLU141     -0.2457
     71  OE2       13.9050    5.2590   16.8670 O.co2 141  GLU141     -0.2457
     72  N         12.2910    5.0570   21.9290 N.3   143  ILE143     -0.1245
     73  CA        12.7080    6.4230   21.6980 C.3   143  ILE143      0.1561
     74  C         12.8850    7.0840   23.0460 C.2   143  ILE143      0.2260
     75  O         12.2560    6.6980   24.0200 O.2   143  ILE143     -0.2867
     76  CB        11.7100    7.2000   20.8340 C.3   143  ILE143      0.0252
     77  CG1       10.3220    7.1960   21.4890 C.3   143  ILE143      0.0019
     78  CG2       11.6970    6.6300   19.3910 C.3   143  ILE143      0.0019
     79  CD1        9.2980    8.0380   20.7520 C.3   143  ILE143      0.0001
     80  N          6.8580   18.8760   22.2720 N.3   152  PHE152     -0.1241
     81  CA         7.6270   18.4040   21.1270 C.3   152  PHE152      0.1605
     82  C          8.1150   19.5520   20.2410 C.2   152  PHE152      0.2264
     83  O          7.3390   20.4170   19.8340 O.2   152  PHE152     -0.2867
     84  CB         6.7600   17.4530   20.3030 C.3   152  PHE152      0.0534
     85  CG         7.4920   16.7690   19.1920 C.ar  152  PHE152     -0.0203
     86  CD1        8.1020   15.5490   19.4040 C.ar  152  PHE152     -0.0042
     87  CD2        7.5530   17.3390   17.9280 C.ar  152  PHE152     -0.0042
     88  CE1        8.7780   14.9030   18.3770 C.ar  152  PHE152     -0.0003
     89  CE2        8.2260   16.7100   16.8990 C.ar  152  PHE152     -0.0003
     90  CZ         8.8420   15.4850   17.1210 C.ar  152  PHE152     -0.0000
     91  N         14.2900   17.9590   18.0630 N.3   157  VAL157     -0.1245
     92  CA        14.2130   16.5020   17.9830 C.3   157  VAL157      0.1561
     93  C         15.1390   15.9970   16.8820 C.2   157  VAL157      0.2260
     94  O         15.8720   15.0320   17.0760 O.2   157  VAL157     -0.2867
     95  CB        12.7600   16.0150   17.8080 C.3   157  VAL157      0.0252
     96  CG1       12.7210   14.5470   17.4090 C.3   157  VAL157      0.0019
     97  CG2       11.9820   16.2390   19.1130 C.3   157  VAL157      0.0019
     98  N         16.2320   12.4600   16.2030 N.3   162  ALA162     -0.1231
     99  CA        14.8600   11.9820   16.2330 C.3   162  ALA162      0.1694
    100  C         14.6320   11.0940   17.4610 C.2   162  ALA162      0.2592
    101  O         13.8630   10.1300   17.4110 O.2   162  ALA162     -0.2718
    102  CB        14.5420   11.2210   14.9440 C.3   162  ALA162      0.0304
    103  N         15.3310   11.4000   18.5540 N.am  163  SER163     -0.1952
    104  CA        15.1000   10.7100   19.8330 C.3   163  SER163      0.1924
    105  C         15.4440    9.2170   19.7990 C.2   163  SER163      0.2314
    106  O         14.9950    8.4410   20.6510 O.2   163  SER163     -0.2863
    107  CB        13.6430   10.8930   20.2670 C.3   163  SER163      0.2116
    108  OG        13.2580   12.2610   20.2120 O.3   163  SER163     -0.2180
    109  N          6.0830    5.2160   13.8120 N.3   235  GLY235     -0.1225
    110  CA         5.2250    4.7350   14.8760 C.3   235  GLY235      0.1811
    111  C          3.8260    4.4250   14.3840 C.2   235  GLY235      0.2280
    112  O          3.1330    5.2950   13.8700 O.2   235  GLY235     -0.2866
@<TRIPOS>BOND
     1    17    16    1
     2    16    15    1
     3    15    14    1
     4    14    11    1
     5    36    34    1
     6    46    47    1
     7    33    32    2
     8    34    31    1
     9    34    35    1
    10    47    48    1
    11    47    50    1
    12    31    32    1
    13    31    30    1
    14    48    49    2
    15    25    24    2
    16    11    10    1
    17    11    12    1
    18     4     3    2
    19     1     2    1
    20    10     3   am
    21    21    20    2
    22     3     2    1
    23    24    30   am
    24    24    23    1
    25    52    50    1
    26    50    51    1
    27     2     5    1
    28    12    18   am
    29    12    13    2
    30    18    19    1
    31    26    23    1
    32    26    27    1
    33    20    19    1
    34    20    22   am
    35    23    22    1
    36    51    53    1
    37    37    38    1
    38     5     6    1
    39    39    40    2
    40    39    38    1
    41    28    27    1
    42    27    29    1
    43    38    41    1
    44     6     7    1
    45   109   110    1
    46     7     8    1
    47   112   111    2
    48    41    42    1
    49   111   110    1
    50     8     9    1
    51   102    99    1
    52    42    43    1
    53    43    44    1
    54    98    99    1
    55    99   100    1
    56    70    69   ar
    57    71    69   ar
    58    93    94    2
    59    93    92    1
    60    89    90   ar
    61    89    87   ar
    62    69    68    1
    63    90    88   ar
    64    44    45    1
    65    96    95    1
    66   101   100    2
    67    62    60   ar
    68   100   103   am
    69    67    68    1
    70    67    64    1
    71    95    92    1
    72    95    97    1
    73    61    60   ar
    74    60    59    1
    75    87    85   ar
    76    92    91    1
    77    88    86   ar
    78    63    64    1
    79    59    58    1
    80    57    56    2
    81   103   104    1
    82    64    65    1
    83    56    55    1
    84    58    55    1
    85    85    86   ar
    86    85    84    1
    87    78    76    1
    88    55    54    1
    89   105   104    1
    90   105   106    2
    91   104   107    1
    92    83    82    2
    93    65    66    2
    94   108   107    1
    95    82    81    1
    96    84    81    1
    97    79    77    1
    98    76    77    1
    99    76    73    1
   100    81    80    1
   101    73    72    1
   102    73    74    1
   103    74    75    2
