@<TRIPOS>MOLECULE
tmp/5d2kB00.pdb
 127 116 0 0 0
SMALL
GASTEIGER

@<TRIPOS>ATOM
      1  N        -34.3610   10.0390  -11.0520 N.3    63  LYS63      -0.1231
      2  CA       -33.9700    8.6640  -11.3880 C.3    63  LYS63       0.1693
      3  C        -33.5150    7.9020  -10.1540 C.2    63  LYS63       0.2592
      4  O        -33.1310    8.4960   -9.1460 O.2    63  LYS63      -0.2718
      5  CB       -32.8750    8.6280  -12.4810 C.3    63  LYS63       0.0285
      6  CG       -31.6100    9.4850  -12.2540 C.3    63  LYS63       0.0035
      7  CD       -30.6150    8.9040  -11.2470 C.3    63  LYS63       0.0206
      8  CE       -30.1320    7.5030  -11.6420 C.3    63  LYS63       0.1093
      9  NZ       -29.0980    7.5510  -12.7430 N.3    63  LYS63      -0.1314
     10  N        -33.5850    6.5750  -10.2380 N.am   64  MET64      -0.1965
     11  CA       -33.2220    5.7080   -9.1170 C.3    64  MET64       0.1736
     12  C        -32.0420    4.8410   -9.4680 C.2    64  MET64       0.2617
     13  O        -31.9610    4.3250  -10.5840 O.2    64  MET64      -0.2715
     14  CB       -34.3800    4.8010   -8.7130 C.3    64  MET64       0.0427
     15  CG       -35.6540    5.5010   -8.3780 C.3    64  MET64       0.0599
     16  SD       -35.4230    6.6260   -7.0330 S.3    64  MET64      -0.1393
     17  CE       -35.0400    5.6650   -5.6500 C.3    64  MET64       0.0692
     18  N        -31.1450    4.6630   -8.5060 N.am   65  GLY65      -0.1940
     19  CA       -30.0150    3.7700   -8.6730 C.3    65  GLY65       0.2014
     20  C        -29.9510    2.7580   -7.5440 C.2    65  GLY65       0.2639
     21  O        -30.6170    2.9390   -6.5230 O.2    65  GLY65      -0.2714
     22  N        -29.1500    1.7080   -7.7400 N.am   66  LEU66      -0.1963
     23  CA       -29.0090    0.6200   -6.7630 C.3    66  LEU66       0.1728
     24  C        -30.3670    0.0280   -6.4140 C.2    66  LEU66       0.2616
     25  O        -30.6920   -0.1740   -5.2360 O.2    66  LEU66      -0.2715
     26  CB       -28.2930    1.1090   -5.5040 C.3    66  LEU66       0.0311
     27  CG       -26.8540    1.5790   -5.7370 C.3    66  LEU66       0.0022
     28  CD1      -26.2150    2.0860   -4.4510 C.3    66  LEU66       0.0001
     29  CD2      -26.0160    0.4450   -6.3420 C.3    66  LEU66       0.0001
     30  N        -31.1580   -0.2510   -7.4460 N.am   67  THR67      -0.1951
     31  CA       -32.5030   -0.8060   -7.2560 C.3    67  THR67       0.1897
     32  C        -32.5200   -2.3380   -7.3510 C.2    67  THR67       0.2313
     33  O        -33.4650   -2.9380   -7.8730 O.2    67  THR67      -0.2863
     34  CB       -33.4950   -0.2270   -8.2730 C.3    67  THR67       0.1794
     35  OG1      -32.9910   -0.4180   -9.6020 O.3    67  THR67      -0.2208
     36  CG2      -33.6800    1.2720   -8.0260 C.3    67  THR67       0.0378
     37  N        -27.3400   -5.8990   -5.2190 N.3    71  LYS71      -0.1245
     38  CA       -26.3930   -4.7970   -5.3240 C.3    71  LYS71       0.1561
     39  C        -26.2810   -4.0020   -4.0290 C.2    71  LYS71       0.2260
     40  O        -25.1780   -3.6570   -3.6140 O.2    71  LYS71      -0.2867
     41  CB       -26.7750   -3.8570   -6.4630 C.3    71  LYS71       0.0271
     42  CG       -26.5470   -4.4180   -7.8490 C.3    71  LYS71       0.0035
     43  CD       -26.7350   -3.3280   -8.8960 C.3    71  LYS71       0.0206
     44  CE       -28.0560   -2.5910   -8.6870 C.3    71  LYS71       0.1093
     45  NZ       -28.2710   -1.4570   -9.6270 N.3    71  LYS71      -0.1314
     46  N        -30.4900    4.6870   -4.1470 N.3    81  ILE81      -0.1245
     47  CA       -30.1330    6.1020   -4.1980 C.3    81  ILE81       0.1561
     48  C        -30.9450    6.7910   -5.2910 C.2    81  ILE81       0.2260
     49  O        -31.5370    6.1260   -6.1350 O.2    81  ILE81      -0.2867
     50  CB       -28.6370    6.2990   -4.4760 C.3    81  ILE81       0.0252
     51  CG1      -28.2410    5.6820   -5.8250 C.3    81  ILE81       0.0019
     52  CG2      -27.8100    5.6740   -3.3460 C.3    81  ILE81       0.0019
     53  CD1      -26.7910    6.0070   -6.2420 C.3    81  ILE81       0.0001
     54  N        -28.9460    1.7610  -19.9990 N.3   108  GLU108     -0.1245
     55  CA       -29.7830    0.9520  -19.1270 C.3   108  GLU108      0.1567
     56  C        -31.2040    0.9530  -19.6540 C.2   108  GLU108      0.2260
     57  O        -31.7120    2.0020  -20.0150 O.2   108  GLU108     -0.2867
     58  CB       -29.8170    1.5170  -17.7060 C.3   108  GLU108      0.0388
     59  CG       -28.4960    1.8200  -17.0820 C.3   108  GLU108      0.1160
     60  CD       -28.6960    2.1610  -15.6420 C.2   108  GLU108      0.3649
     61  OE1      -29.1220    3.3030  -15.3710 O.co2 108  GLU108     -0.2457
     62  OE2      -28.4960    1.2640  -14.8040 O.co2 108  GLU108     -0.2457
     63  N        -34.9760    0.9380  -18.7060 N.3   110  GLU110     -0.1245
     64  CA       -35.8330    1.2070  -17.5500 C.3   110  GLU110      0.1567
     65  C        -37.2790    1.4060  -17.9530 C.2   110  GLU110      0.2260
     66  O        -37.5950    1.6090  -19.1300 O.2   110  GLU110     -0.2867
     67  CB       -35.3430    2.4470  -16.7880 C.3   110  GLU110      0.0388
     68  CG       -33.8390    2.4820  -16.6770 C.3   110  GLU110      0.1160
     69  CD       -33.3010    3.3120  -15.5470 C.2   110  GLU110      0.3649
     70  OE1      -34.0890    3.8150  -14.7010 O.co2 110  GLU110     -0.2457
     71  OE2      -32.0650    3.4720  -15.5040 O.co2 110  GLU110     -0.2457
     72  N        -31.7830    4.8790  -20.0240 N.3   141  GLU141     -0.1245
     73  CA       -30.8740    5.8630  -19.4330 C.3   141  GLU141      0.1567
     74  C        -29.4880    5.7500  -20.0510 C.2   141  GLU141      0.2260
     75  O        -29.0420    4.6520  -20.3740 O.2   141  GLU141     -0.2867
     76  CB       -30.7500    5.7120  -17.9030 C.3   141  GLU141      0.0388
     77  CG       -30.2590    7.0240  -17.2730 C.3   141  GLU141      0.1160
     78  CD       -30.1680    7.0290  -15.7550 C.2   141  GLU141      0.3649
     79  OE1      -30.3240    5.9710  -15.1110 O.co2 141  GLU141     -0.2457
     80  OE2      -29.9230    8.1270  -15.2170 O.co2 141  GLU141     -0.2457
     81  N        -25.9820    6.4320  -18.4930 N.3   143  ILE143     -0.1245
     82  CA       -25.2590    6.7960  -17.2850 C.3   143  ILE143      0.1561
     83  C        -23.7740    6.9710  -17.6060 C.2   143  ILE143      0.2260
     84  O        -23.2300    6.3560  -18.5310 O.2   143  ILE143     -0.2867
     85  CB       -25.4500    5.7670  -16.1580 C.3   143  ILE143      0.0252
     86  CG1      -25.1390    4.3510  -16.6380 C.3   143  ILE143      0.0019
     87  CG2      -26.8750    5.8630  -15.5820 C.3   143  ILE143      0.0019
     88  CD1      -25.2210    3.3290  -15.5120 C.3   143  ILE143      0.0001
     89  N        -20.5700    7.9860  -15.1000 N.3   145  SER145     -0.1217
     90  CA       -19.9530    8.4460  -13.8610 C.3   145  SER145      0.1889
     91  C        -18.8070    9.3960  -14.1570 C.2   145  SER145      0.2288
     92  O        -17.9970    9.1390  -15.0430 O.2   145  SER145     -0.2866
     93  CB       -19.4400    7.2610  -13.0420 C.3   145  SER145      0.2089
     94  OG       -18.7010    7.7110  -11.9130 O.3   145  SER145     -0.2183
     95  N        -16.5270    1.2260   -7.0690 N.3   152  PHE152     -0.1241
     96  CA       -17.7970    1.9340   -6.9630 C.3   152  PHE152      0.1605
     97  C        -18.0140    2.3490   -5.5130 C.2   152  PHE152      0.2264
     98  O        -17.9530    1.5220   -4.6030 O.2   152  PHE152     -0.2867
     99  CB       -18.9420    1.0410   -7.4590 C.3   152  PHE152      0.0534
    100  CG       -20.2930    1.6960   -7.4400 C.ar  152  PHE152     -0.0203
    101  CD1      -21.0770    1.6670   -6.2960 C.ar  152  PHE152     -0.0042
    102  CD2      -20.7930    2.3210   -8.5700 C.ar  152  PHE152     -0.0042
    103  CE1      -22.3200    2.2600   -6.2720 C.ar  152  PHE152     -0.0003
    104  CE2      -22.0430    2.9140   -8.5490 C.ar  152  PHE152     -0.0003
    105  CZ       -22.8030    2.8870   -7.4000 C.ar  152  PHE152     -0.0000
    106  N        -20.9450    8.4650   -5.6090 N.3   157  VAL157     -0.1245
    107  CA       -21.8790    8.3950   -6.7340 C.3   157  VAL157      0.1561
    108  C        -23.1110    9.2820   -6.4960 C.2   157  VAL157      0.2260
    109  O        -23.5610    9.9680   -7.4150 O.2   157  VAL157     -0.2867
    110  CB       -22.2890    6.9290   -7.0170 C.3   157  VAL157      0.0252
    111  CG1      -23.4060    6.8550   -8.0660 C.3   157  VAL157      0.0019
    112  CG2      -21.0640    6.1540   -7.5100 C.3   157  VAL157      0.0019
    113  N        -25.8040   10.4920   -9.0360 N.3   162  ALA162     -0.1231
    114  CA       -26.0600    9.1020   -9.4260 C.3   162  ALA162      0.1694
    115  C        -25.7150    8.8230  -10.8860 C.2   162  ALA162      0.2592
    116  O        -26.4000    8.0480  -11.5640 O.2   162  ALA162     -0.2718
    117  CB       -27.5180    8.7430   -9.1490 C.3   162  ALA162      0.0304
    118  N        -24.6350    9.4510  -11.3510 N.am  163  SER163     -0.1952
    119  CA       -24.0780    9.2420  -12.7010 C.3   163  SER163      0.1924
    120  C        -25.0210    9.6530  -13.8330 C.2   163  SER163      0.2314
    121  O        -24.8280    9.2630  -14.9800 O.2   163  SER163     -0.2863
    122  CB       -23.6570    7.7750  -12.9010 C.3   163  SER163      0.2116
    123  OG       -22.8850    7.3300  -11.8020 O.3   163  SER163     -0.2180
    124  N        -32.5050    0.3770  -13.5770 N.3   235  GLY235     -0.1225
    125  CA       -32.0550   -0.5180  -14.6340 C.3   235  GLY235      0.1811
    126  C        -32.5900   -1.9280  -14.4770 C.2   235  GLY235      0.2280
    127  O        -32.4420   -2.5510  -13.4270 O.2   235  GLY235     -0.2866
@<TRIPOS>BOND
     1    75    74    2
     2    74    73    1
     3    72    73    1
     4    57    56    2
     5    54    55    1
     6    56    55    1
     7    73    76    1
     8    66    65    2
     9    55    58    1
    10    63    64    1
    11    84    83    2
    12    81    82    1
    13    65    64    1
    14    76    77    1
    15    58    59    1
    16    83    82    1
    17    64    67    1
    18    82    85    1
    19    77    78    1
    20    59    60    1
    21    67    68    1
    22    68    69    1
    23    86    85    1
    24    86    88    1
    25    85    87    1
    26    78    80   ar
    27    78    79   ar
    28    60    61   ar
    29    60    62   ar
    30    69    71   ar
    31    69    70   ar
    32    89    90    1
    33    92    91    2
    34   121   120    2
    35   125   126    1
    36   125   124    1
    37   126   127    2
    38    91    90    1
    39    90    93    1
    40   120   119    1
    41    93    94    1
    42   122   119    1
    43   122   123    1
    44     9     8    1
    45   119   118    1
    46     5     6    1
    47     5     2    1
    48     6     7    1
    49     8     7    1
    50   116   115    2
    51     2     1    1
    52     2     3    1
    53   118   115   am
    54   115   114    1
    55    13    12    2
    56    10     3   am
    57    10    11    1
    58     3     4    2
    59    45    44    1
    60    35    34    1
    61    12    11    1
    62    12    18   am
    63   114   117    1
    64   114   113    1
    65    11    14    1
    66    43    44    1
    67    43    42    1
    68    14    15    1
    69    19    18    1
    70    19    20    1
    71   102   104   ar
    72   102   100   ar
    73   104   105   ar
    74    15    16    1
    75    34    36    1
    76    34    31    1
    77   111   110    1
    78    33    32    2
    79    42    41    1
    80    22    20   am
    81    22    23    1
    82    20    21    2
    83   112   110    1
    84    99   100    1
    85    99    96    1
    86    30    31    1
    87    30    24   am
    88   100   101   ar
    89   109   108    2
    90   105   103   ar
    91    32    31    1
    92    95    96    1
    93    16    17    1
    94   110   107    1
    95    96    97    1
    96    23    24    1
    97    23    26    1
    98   107   108    1
    99   107   106    1
   100    41    38    1
   101    24    25    2
   102    29    27    1
   103   101   103   ar
   104    53    51    1
   105    49    48    2
   106    51    50    1
   107    27    26    1
   108    27    28    1
   109    97    98    2
   110    38    37    1
   111    38    39    1
   112    48    47    1
   113    50    47    1
   114    50    52    1
   115    47    46    1
   116    39    40    2
