@<TRIPOS>MOLECULE
tmp/5d2rA00.pdb
 191 180 0 0 0
SMALL
GASTEIGER

@<TRIPOS>ATOM
      1  N         -2.2830   26.3280    1.7200 N.3    28  GLN28      -0.1245
      2  CA        -2.3670   24.8870    1.9160 C.3    28  GLN28       0.1566
      3  C         -1.4750   24.4910    3.1150 C.2    28  GLN28       0.2260
      4  O         -0.3030   24.8620    3.1640 O.2    28  GLN28      -0.2867
      5  CB        -1.9610   24.1540    0.6400 C.3    28  GLN28       0.0367
      6  CG        -2.9500   24.3660   -0.5300 C.3    28  GLN28       0.0905
      7  CD        -2.3230   25.0520   -1.7600 C.2    28  GLN28       0.2608
      8  OE1       -1.2080   25.5460   -1.7130 O.2    28  GLN28      -0.2717
      9  NE2       -3.0750   25.1110   -2.8440 N.am   28  GLN28      -0.0878
     10  N          0.0070   21.8160    4.3460 N.3    30  ASP30      -0.1225
     11  CA         1.1530   20.9270    4.2660 C.3    30  ASP30       0.1805
     12  C          2.2600   21.4940    3.3700 C.2    30  ASP30       0.2597
     13  O          3.0080   20.7410    2.7580 O.2    30  ASP30      -0.2718
     14  CB         0.7160   19.5500    3.7590 C.3    30  ASP30       0.1424
     15  CG         0.1760   19.5790    2.3210 C.2    30  ASP30       0.3668
     16  OD1       -0.1800   20.6750    1.8020 O.co2  30  ASP30      -0.2456
     17  OD2        0.1200   18.4830    1.7100 O.co2  30  ASP30      -0.2456
     18  N          2.3580   22.8210    3.2910 N.am   31  GLU31      -0.1979
     19  CA         3.4340   23.4680    2.5340 C.3    31  GLU31       0.1602
     20  C          4.2430   24.4060    3.4600 C.2    31  GLU31       0.2287
     21  O          4.1730   25.6240    3.3500 O.2    31  GLU31      -0.2864
     22  CB         2.8360   24.2040    1.3250 C.3    31  GLU31       0.0415
     23  CG         2.0930   23.2170    0.4270 C.3    31  GLU31       0.1163
     24  CD         1.5290   23.8370   -0.8120 C.2    31  GLU31       0.3649
     25  OE1        1.8280   25.0270   -1.0820 O.co2  31  GLU31      -0.2457
     26  OE2        0.7860   23.1200   -1.5220 O.co2  31  GLU31      -0.2457
     27  N         -3.3810   19.5700    3.4450 N.3    68  ARG68      -0.1245
     28  CA        -3.4440   20.4770    2.3070 C.3    68  ARG68       0.1563
     29  C         -4.6540   21.4270    2.3850 C.2    68  ARG68       0.2260
     30  O         -4.5510   22.5880    1.9930 O.2    68  ARG68      -0.2867
     31  CB        -3.4690   19.6790    1.0050 C.3    68  ARG68       0.0307
     32  CG        -3.4230   20.5560   -0.2410 C.3    68  ARG68       0.0489
     33  CD        -3.3780   19.7380   -1.5180 C.3    68  ARG68       0.2205
     34  NE        -3.7030   20.5700   -2.6760 N.pl3  68  ARG68      -0.0865
     35  CZ        -2.8580   21.4330   -3.2430 C.cat  68  ARG68       0.5346
     36  NH1       -1.6230   21.5740   -2.7710 N.pl3  68  ARG68       0.1354
     37  NH2       -3.2460   22.1570   -4.2920 N.pl3  68  ARG68       0.1354
     38  N         -7.1570   27.3500   -2.3670 N.3    75  ASN75      -0.1225
     39  CA        -6.7170   28.0520   -3.5860 C.3    75  ASN75       0.1785
     40  C         -7.5180   27.6740   -4.8300 C.2    75  ASN75       0.2597
     41  O         -7.0550   27.8490   -5.9470 O.2    75  ASN75      -0.2718
     42  CB        -5.2290   27.8120   -3.8630 C.3    75  ASN75       0.1169
     43  CG        -4.5850   28.9840   -4.5760 C.2    75  ASN75       0.2627
     44  OD1       -5.1040   30.1020   -4.5330 O.2    75  ASN75      -0.2716
     45  ND2       -3.4460   28.7450   -5.2230 N.am   75  ASN75      -0.0877
     46  N         -8.7210   27.1500   -4.6260 N.am   76  ARG76      -0.1979
     47  CA        -9.6660   27.0060   -5.7220 C.3    76  ARG76       0.1597
     48  C        -10.9690   27.7150   -5.4000 C.2    76  ARG76       0.2287
     49  O        -12.0010   27.4220   -5.9910 O.2    76  ARG76      -0.2864
     50  CB        -9.9290   25.5400   -6.0140 C.3    76  ARG76       0.0334
     51  CG        -8.6850   24.7740   -6.3880 C.3    76  ARG76       0.0492
     52  CD        -8.1360   25.1560   -7.7860 C.3    76  ARG76       0.2205
     53  NE        -7.0230   24.2660   -8.1140 N.pl3  76  ARG76      -0.0865
     54  CZ        -5.7780   24.4350   -7.6870 C.cat  76  ARG76       0.5346
     55  NH1       -5.4540   25.4780   -6.9250 N.pl3  76  ARG76       0.1354
     56  NH2       -4.8390   23.5490   -8.0030 N.pl3  76  ARG76       0.1354
     57  N          2.8430   35.0600   -3.5060 N.3   108  HIS108     -0.1241
     58  CA         2.1200   33.9540   -2.8730 C.3   108  HIS108      0.1621
     59  C          3.0210   32.7100   -2.8550 C.2   108  HIS108      0.2264
     60  O          3.3600   32.1860   -3.9030 O.2   108  HIS108     -0.2867
     61  CB         0.8230   33.7160   -3.6410 C.3   108  HIS108      0.0745
     62  CG        -0.1250   32.7630   -2.9860 C.ar  108  HIS108      0.0817
     63  ND1       -1.0910   32.0890   -3.6970 N.ar  108  HIS108     -0.2268
     64  CD2       -0.2920   32.4090   -1.6910 C.ar  108  HIS108      0.1154
     65  CE1       -1.7950   31.3340   -2.8710 C.ar  108  HIS108      0.1986
     66  NE2       -1.3410   31.5230   -1.6480 N.ar  108  HIS108     -0.2212
     67  N          4.3550   28.8090   -2.0100 N.3   110  HIS110     -0.1226
     68  CA         3.8830   27.4220   -2.0250 C.3   110  HIS110      0.1752
     69  C          5.0510   26.4420   -1.8900 C.2   110  HIS110      0.2596
     70  O          6.1720   26.7620   -2.2680 O.2   110  HIS110     -0.2718
     71  CB         3.1750   27.0830   -3.3560 C.3   110  HIS110      0.0759
     72  CG         1.9100   27.8380   -3.6010 C.ar  110  HIS110      0.0818
     73  ND1        0.6640   27.3140   -3.3450 N.ar  110  HIS110     -0.2268
     74  CD2        1.6990   29.0790   -4.1010 C.ar  110  HIS110      0.1154
     75  CE1       -0.2600   28.2010   -3.6650 C.ar  110  HIS110      0.1986
     76  NE2        0.3420   29.2830   -4.1200 N.ar  110  HIS110     -0.2212
     77  N          4.7780   25.2320   -1.4180 N.am  111  ASP111     -0.1960
     78  CA         5.7000   24.1060   -1.6300 C.3   111  ASP111      0.1840
     79  C          5.0340   23.1610   -2.6160 C.2   111  ASP111      0.2623
     80  O          3.8570   22.9150   -2.5250 O.2   111  ASP111     -0.2715
     81  CB         6.0250   23.3150   -0.3710 C.3   111  ASP111      0.1450
     82  CG         6.6480   24.1400    0.7090 C.2   111  ASP111      0.3671
     83  OD1        7.0720   25.3120    0.4710 O.co2 111  ASP111     -0.2456
     84  OD2        6.7520   23.5800    1.8080 O.co2 111  ASP111     -0.2456
     85  N          5.8060   22.6130   -3.5400 N.am  112  GLY112     -0.1940
     86  CA         5.2380   21.8230   -4.6220 C.3   112  GLY112      0.2014
     87  C          6.0980   20.6150   -4.9080 C.2   112  GLY112      0.2639
     88  O          7.3040   20.6820   -4.7990 O.2   112  GLY112     -0.2714
     89  N          5.4690   19.5210   -5.3110 N.am  113  GLY113     -0.1954
     90  CA         6.1630   18.2670   -5.4910 C.3   113  GLY113      0.1869
     91  C          7.0500   18.3140   -6.7240 C.2   113  GLY113      0.2309
     92  O          6.7830   19.0650   -7.6560 O.2   113  GLY113     -0.2863
     93  N          4.7630   19.3590  -12.8340 N.3   129  ARG129     -0.1231
     94  CA         5.2730   19.4620  -11.4700 C.3   129  ARG129      0.1694
     95  C          5.4510   20.9140  -11.0610 C.2   129  ARG129      0.2592
     96  O          5.4350   21.8190  -11.9000 O.2   129  ARG129     -0.2718
     97  CB         6.5740   18.6940  -11.3360 C.3   129  ARG129      0.0321
     98  CG         6.3640   17.1910  -11.4520 C.3   129  ARG129      0.0489
     99  CD         5.5570   16.6360  -10.2670 C.3   129  ARG129      0.2205
    100  NE         6.1060   15.3490   -9.8590 N.pl3 129  ARG129     -0.0865
    101  CZ         6.0260   14.8260   -8.6470 C.cat 129  ARG129      0.5346
    102  NH1        5.4180   15.4780   -7.6510 N.pl3 129  ARG129      0.1354
    103  NH2        6.5800   13.6350   -8.4330 N.pl3 129  ARG129      0.1354
    104  N          5.5980   21.1310   -9.7570 N.am  130  TRP130     -0.1976
    105  CA         5.4820   22.4640   -9.2180 C.3   130  TRP130      0.1640
    106  C          6.7590   22.9560   -8.5320 C.2   130  TRP130      0.2290
    107  O          6.9290   24.1550   -8.3670 O.2   130  TRP130     -0.2864
    108  CB         4.2980   22.5220   -8.2430 C.3   130  TRP130      0.0576
    109  CG         2.9850   22.4620   -8.9380 C.ar  130  TRP130      0.0006
    110  CD1        2.1510   21.3900   -9.0320 C.ar  130  TRP130      0.0946
    111  CD2        2.3610   23.5250   -9.6660 C.ar  130  TRP130      0.0152
    112  NE1        1.0390   21.7230   -9.7700 N.ar  130  TRP130     -0.2442
    113  CE2        1.1430   23.0230  -10.1670 C.ar  130  TRP130      0.0810
    114  CE3        2.7150   24.8520   -9.9320 C.ar  130  TRP130      0.0012
    115  CZ2        0.2780   23.8070  -10.9360 C.ar  130  TRP130      0.0191
    116  CZ3        1.8550   25.6290  -10.6830 C.ar  130  TRP130      0.0001
    117  CH2        0.6460   25.1020  -11.1780 C.ar  130  TRP130      0.0015
    118  N          6.0810   31.6810  -10.7460 N.3   135  ILE135     -0.1245
    119  CA         4.8640   31.5510  -11.5360 C.3   135  ILE135      0.1561
    120  C          4.1360   32.8610  -11.7930 C.2   135  ILE135      0.2260
    121  O          3.9390   33.6610  -10.8910 O.2   135  ILE135     -0.2867
    122  CB         3.8520   30.6000  -10.8420 C.3   135  ILE135      0.0252
    123  CG1        4.4630   29.2030  -10.6080 C.3   135  ILE135      0.0019
    124  CG2        2.5770   30.4900  -11.6700 C.3   135  ILE135      0.0019
    125  CD1        3.8860   28.4660   -9.3970 C.3   135  ILE135      0.0001
    126  N          0.5590   34.3890  -14.1890 N.3   137  ASP137     -0.1239
    127  CA        -0.6550   33.9440  -14.8780 C.3   137  ASP137      0.1674
    128  C         -0.6560   34.3820  -16.3230 C.2   137  ASP137      0.2266
    129  O         -1.3900   33.8350  -17.1390 O.2   137  ASP137     -0.2867
    130  CB        -1.9130   34.4980  -14.2110 C.3   137  ASP137      0.1410
    131  CG        -2.1540   33.8930  -12.8740 C.2   137  ASP137      0.3668
    132  OD1       -2.7320   32.7760  -12.8040 O.co2 137  ASP137     -0.2456
    133  OD2       -1.7430   34.5420  -11.8890 O.co2 137  ASP137     -0.2456
    134  N          1.4240   30.1710  -16.5390 N.3   176  THR176     -0.1218
    135  CA         0.3020   29.2420  -16.7070 C.3   176  THR176      0.1862
    136  C         -0.7190   29.6950  -17.7720 C.2   176  THR176      0.2287
    137  O         -1.6050   28.9290  -18.1280 O.2   176  THR176     -0.2866
    138  CB        -0.4510   28.9900  -15.3490 C.3   176  THR176      0.1770
    139  OG1       -0.8950   30.2270  -14.7610 O.3   176  THR176     -0.2211
    140  CG2        0.4650   28.2570  -14.3570 C.3   176  THR176      0.0375
    141  N         -6.3650   27.1930  -12.4310 N.3   185  MET185     -0.1245
    142  CA        -5.7110   28.4240  -12.0070 C.3   185  MET185      0.1570
    143  C         -6.6670   29.6000  -12.1240 C.2   185  MET185      0.2261
    144  O         -6.4810   30.6140  -11.4610 O.2   185  MET185     -0.2867
    145  CB        -4.4250   28.6770  -12.8070 C.3   185  MET185      0.0387
    146  CG        -3.3170   27.6410  -12.5820 C.3   185  MET185      0.0595
    147  SD        -2.7070   27.5010  -10.8600 S.3   185  MET185     -0.1393
    148  CE        -3.7710   26.1830  -10.2380 C.3   185  MET185      0.0692
    149  N         -7.8280   30.3600   -8.6920 N.3   188  ALA188     -0.1231
    150  CA        -6.7730   30.5440   -7.6970 C.3   188  ALA188      0.1694
    151  C         -6.4660   32.0150   -7.4280 C.2   188  ALA188      0.2592
    152  O         -6.9600   32.9060   -8.1120 O.2   188  ALA188     -0.2718
    153  CB        -5.5040   29.8170   -8.1370 C.3   188  ALA188      0.0304
    154  N         -5.6610   32.2400   -6.3940 N.am  189  LEU189     -0.1966
    155  CA        -5.4420   33.5580   -5.8360 C.3   189  LEU189      0.1728
    156  C         -4.7530   34.5270   -6.7960 C.2   189  LEU189      0.2616
    157  O         -5.1750   35.6950   -6.9150 O.2   189  LEU189     -0.2715
    158  CB        -4.6300   33.4150   -4.5450 C.3   189  LEU189      0.0311
    159  CG        -4.3660   34.6640   -3.6960 C.3   189  LEU189      0.0022
    160  CD1       -4.1530   34.2430   -2.2480 C.3   189  LEU189      0.0001
    161  CD2       -3.1340   35.4180   -4.1600 C.3   189  LEU189      0.0001
    162  N         -3.6710   34.1050   -7.4500 N.am  190  THR190     -0.1951
    163  CA        -2.9080   35.1020   -8.1970 C.3   190  THR190      0.1897
    164  C         -3.7110   35.5990   -9.3850 C.2   190  THR190      0.2313
    165  O         -3.5850   36.7490   -9.7720 O.2   190  THR190     -0.2863
    166  CB        -1.5100   34.6050   -8.6800 C.3   190  THR190      0.1794
    167  OG1       -1.6240   33.3760   -9.4030 O.3   190  THR190     -0.2208
    168  CG2       -0.5870   34.4190   -7.4970 C.3   190  THR190      0.0378
    169  N          3.5720   33.8370   -7.8760 N.3   202  ALA202     -0.1245
    170  CA         3.6960   32.7530   -6.9000 C.3   202  ALA202      0.1562
    171  C          5.1100   32.1690   -6.9650 C.2   202  ALA202      0.2260
    172  O          5.7120   32.0740   -8.0500 O.2   202  ALA202     -0.2867
    173  CB         2.6630   31.6890   -7.1380 C.3   202  ALA202      0.0290
    174  N          7.3610   28.7810   -5.8290 N.3   204  GLU204     -0.1245
    175  CA         7.3340   27.3860   -5.3920 C.3   204  GLU204      0.1567
    176  C          8.6990   26.9350   -4.9030 C.2   204  GLU204      0.2260
    177  O          9.6990   27.1500   -5.5860 O.2   204  GLU204     -0.2867
    178  CB         6.9010   26.4650   -6.5400 C.3   204  GLU204      0.0388
    179  CG         5.4500   26.5670   -6.9190 C.3   204  GLU204      0.1160
    180  CD         4.5280   25.7910   -5.9970 C.2   204  GLU204      0.3649
    181  OE1        5.0160   25.1200   -5.0680 O.co2 204  GLU204     -0.2457
    182  OE2        3.3000   25.8710   -6.2190 O.co2 204  GLU204     -0.2457
    183  N          8.8930   20.3500   -2.5780 N.3   207  LYS207     -0.1245
    184  CA         8.6480   19.4360   -1.4610 C.3   207  LYS207      0.1561
    185  C          9.7250   18.3420   -1.3560 C.2   207  LYS207      0.2260
    186  O          9.8320   17.6740   -0.3360 O.2   207  LYS207     -0.2867
    187  CB         7.2710   18.7840   -1.6150 C.3   207  LYS207      0.0271
    188  CG         6.0940   19.6990   -1.2950 C.3   207  LYS207      0.0035
    189  CD         4.7910   18.9110   -1.4330 C.3   207  LYS207      0.0206
    190  CE         3.5840   19.7670   -1.2140 C.3   207  LYS207      0.1093
    191  NZ         2.3590   18.9960   -1.5140 N.3   207  LYS207     -0.1314
@<TRIPOS>BOND
     1   137   136    2
     2   136   135    1
     3   129   128    2
     4   135   134    1
     5   135   138    1
     6   128   127    1
     7   138   139    1
     8   138   140    1
     9   127   130    1
    10   127   126    1
    11   130   131    1
    12   131   132   ar
    13   131   133   ar
    14    93    94    1
    15   145   146    1
    16   145   142    1
    17   146   147    1
    18   141   142    1
    19   143   142    1
    20   143   144    2
    21    96    95    2
    22   120   119    1
    23   120   121    2
    24   124   122    1
    25   119   122    1
    26   119   118    1
    27    94    97    1
    28    94    95    1
    29    98    97    1
    30    98    99    1
    31   117   115   ar
    32   117   116   ar
    33    95   104   am
    34   115   113   ar
    35   147   148    1
    36   122   123    1
    37   116   114   ar
    38   123   125    1
    39    99   100    1
    40   113   112   ar
    41   113   111   ar
    42   114   111   ar
    43   100   101    2
    44   165   164    2
    45   112   110   ar
    46   104   105    1
    47   111   109   ar
    48   167   166    1
    49   164   163    1
    50   105   106    1
    51   105   108    1
    52   110   109   ar
    53   109   108    1
    54   149   150    1
    55   166   163    1
    56   166   168    1
    57   101   103    1
    58   101   102    1
    59   106   107    2
    60   163   162    1
    61   153   150    1
    62    53    52    1
    63    53    54    2
    64   152   151    2
    65   172   171    2
    66    56    54    1
    67   169   170    1
    68    52    51    1
    69   150   151    1
    70    54    55    1
    71    92    91    2
    72   162   156   am
    73   151   154   am
    74   173   170    1
    75   171   170    1
    76   179   178    1
    77   179   180    1
    78   157   156    2
    79   156   155    1
    80    91    90    1
    81   178   175    1
    82   154   155    1
    83    51    50    1
    84   182   180   ar
    85    50    47    1
    86   180   181   ar
    87    49    48    2
    88    41    40    2
    89   155   158    1
    90   174   175    1
    91    47    48    1
    92    47    46    1
    93   177   176    2
    94    90    89    1
    95   175   176    1
    96    89    87   am
    97    45    43   am
    98    87    88    2
    99    87    86    1
   100    40    46   am
   101    40    39    1
   102    86    85    1
   103    43    44    2
   104    43    42    1
   105   158   159    1
   106    37    35    1
   107   161   159    1
   108    76    74   ar
   109    76    75   ar
   110    74    72   ar
   111    60    59    2
   112    42    39    1
   113    63    62   ar
   114    63    65   ar
   115   159   160    1
   116    75    73   ar
   117    61    62    1
   118    61    58    1
   119    72    71    1
   120    72    73   ar
   121    39    38    1
   122    85    79   am
   123    57    58    1
   124    71    68    1
   125    35    36    1
   126    35    34    2
   127    62    64   ar
   128    58    59    1
   129    65    66   ar
   130     9     7   am
   131    34    33    1
   132    79    80    2
   133    79    78    1
   134   183   184    1
   135    70    69    2
   136    68    67    1
   137    68    69    1
   138    69    77   am
   139     7     8    2
   140     7     6    1
   141    64    66   ar
   142    78    77    1
   143    78    81    1
   144   187   184    1
   145   187   188    1
   146    26    24   ar
   147    33    32    1
   148   191   190    1
   149   184   185    1
   150   189   188    1
   151   189   190    1
   152   185   186    2
   153    25    24   ar
   154    24    23    1
   155     6     5    1
   156    81    82    1
   157    32    31    1
   158    23    22    1
   159    83    82   ar
   160     5     2    1
   161    82    84   ar
   162    31    28    1
   163    22    19    1
   164    17    15   ar
   165     1     2    1
   166    16    15   ar
   167     2     3    1
   168    30    29    2
   169    28    29    1
   170    28    27    1
   171    15    14    1
   172    19    18    1
   173    19    20    1
   174    13    12    2
   175     3     4    2
   176    18    12   am
   177    21    20    2
   178    12    11    1
   179    14    11    1
   180    11    10    1
