@<TRIPOS>MOLECULE
tmp/5d3cA00.pdb
 228 225 0 0 0
SMALL
GASTEIGER

@<TRIPOS>ATOM
      1  N         18.2870   29.7940   10.9410 N.3    73  LYS73      -0.1231
      2  CA        17.0510   29.5210   11.6690 C.3    73  LYS73       0.1693
      3  C         15.9070   30.4090   11.1920 C.2    73  LYS73       0.2593
      4  O         16.0650   31.6170   11.0200 O.2    73  LYS73      -0.2718
      5  CB        17.2430   29.6520   13.1810 C.3    73  LYS73       0.0285
      6  CG        16.0560   29.1170   13.9770 C.3    73  LYS73       0.0035
      7  CD        16.3600   29.0420   15.4650 C.3    73  LYS73       0.0206
      8  CE        15.2290   28.3750   16.2430 C.3    73  LYS73       0.1093
      9  NZ        15.3420   26.8860   16.2650 N.3    73  LYS73      -0.1314
     10  N         14.7570   29.7860   10.9620 N.am   74  GLY74      -0.1942
     11  CA        13.5790   30.4900   10.4930 C.3    74  GLY74       0.2014
     12  C         13.5710   30.5740    8.9810 C.2    74  GLY74       0.2639
     13  O         14.3430   29.8850    8.3130 O.2    74  GLY74      -0.2714
     14  N         12.7080   31.4190    8.4300 N.am   75  GLY75      -0.1939
     15  CA        12.6240   31.5470    6.9870 C.3    75  GLY75       0.2014
     16  C         12.2510   30.2180    6.3650 C.2    75  GLY75       0.2639
     17  O         11.3070   29.5670    6.8120 O.2    75  GLY75      -0.2714
     18  N         12.9890   29.7990    5.3410 N.am   76  ILE76      -0.1963
     19  CA        12.6930   28.5150    4.7160 C.3    76  ILE76       0.1727
     20  C         13.1310   27.3580    5.6130 C.2    76  ILE76       0.2616
     21  O         14.2320   27.3620    6.1770 O.2    76  ILE76      -0.2715
     22  CB        13.2660   28.3980    3.2890 C.3    76  ILE76       0.0290
     23  CG1       12.7420   27.1280    2.6130 C.3    76  ILE76       0.0022
     24  CG2       14.7840   28.4330    3.2880 C.3    76  ILE76       0.0023
     25  CD1       12.9030   27.1240    1.1100 C.3    76  ILE76       0.0001
     26  N         12.2370   26.3880    5.7600 N.am   77  LEU77      -0.1963
     27  CA        12.4370   25.2730    6.6810 C.3    77  LEU77       0.1728
     28  C         12.9720   24.0300    5.9840 C.2    77  LEU77       0.2616
     29  O         13.6570   23.2050    6.5990 O.2    77  LEU77      -0.2715
     30  CB        11.1070   24.9270    7.3620 C.3    77  LEU77       0.0311
     31  CG        10.3910   26.0790    8.0690 C.3    77  LEU77       0.0022
     32  CD1        8.9500   25.7190    8.4280 C.3    77  LEU77       0.0001
     33  CD2       11.1670   26.4810    9.3070 C.3    77  LEU77       0.0001
     34  N         12.6380   23.8950    4.7030 N.am   78  ALA78      -0.1963
     35  CA        12.9270   22.6880    3.9330 C.3    78  ALA78       0.1728
     36  C         12.5740   22.9490    2.4750 C.2    78  ALA78       0.2616
     37  O         11.8370   23.8900    2.1750 O.2    78  ALA78      -0.2715
     38  CB        12.1100   21.5100    4.4710 C.3    78  ALA78       0.0334
     39  N         13.0930   22.1280    1.5710 N.am   79  HIS79      -0.1959
     40  CA        12.7280   22.2180    0.1600 C.3    79  HIS79       0.1787
     41  C         12.8600   20.8240   -0.4480 C.2    79  HIS79       0.2620
     42  O         13.5220   19.9540    0.1240 O.2    79  HIS79      -0.2715
     43  CB        13.5800   23.2570   -0.5930 C.3    79  HIS79       0.0785
     44  CG        14.9340   22.7580   -1.0140 C.ar   79  HIS79       0.0821
     45  ND1       15.2040   22.3560   -2.3030 N.ar   79  HIS79      -0.2267
     46  CD2       16.0890   22.5920   -0.3200 C.ar   79  HIS79       0.1154
     47  CE1       16.4640   21.9560   -2.3870 C.ar   79  HIS79       0.1986
     48  NE2       17.0240   22.1010   -1.2000 N.ar   79  HIS79      -0.2212
     49  N         12.2590   20.6110   -1.6100 N.am   80  ALA80      -0.1977
     50  CA        12.3280   19.2900   -2.2410 C.3    80  ALA80       0.1597
     51  C         12.2770   19.4020   -3.7560 C.2    80  ALA80       0.2287
     52  O         11.7070   20.3580   -4.3070 O.2    80  ALA80      -0.2864
     53  CB        11.2030   18.3800   -1.7300 C.3    80  ALA80       0.0319
     54  N         16.9210   24.7250   11.7560 N.3    97  GLU97      -0.1245
     55  CA        15.6790   24.6490   12.5330 C.3    97  GLU97       0.1567
     56  C         15.8300   23.6540   13.6740 C.2    97  GLU97       0.2260
     57  O         16.7620   22.8320   13.6780 O.2    97  GLU97      -0.2867
     58  CB        14.4860   24.2330   11.6700 C.3    97  GLU97       0.0388
     59  CG        14.4380   24.8420   10.2830 C.3    97  GLU97       0.1160
     60  CD        14.5940   26.3460   10.2710 C.2    97  GLU97       0.3649
     61  OE1       14.2810   27.0200   11.2840 O.co2  97  GLU97      -0.2457
     62  OE2       15.0310   26.8530    9.2240 O.co2  97  GLU97      -0.2457
     63  N          9.9610   23.1220   15.0100 N.3   106  THR106     -0.1218
     64  CA         9.3290   22.8320   13.7290 C.3   106  THR106      0.1862
     65  C          8.9950   21.3460   13.6610 C.2   106  THR106      0.2287
     66  O          9.8850   20.5020   13.8040 O.2   106  THR106     -0.2866
     67  CB        10.2380   23.2240   12.5530 C.3   106  THR106      0.1770
     68  OG1       10.6690   24.5840   12.7090 O.3   106  THR106     -0.2211
     69  CG2        9.4840   23.0940   11.2380 C.3   106  THR106      0.0375
     70  N          4.8880   17.1280    9.8460 N.3   110  LEU110     -0.1231
     71  CA         4.1250   18.0360    8.9970 C.3   110  LEU110      0.1693
     72  C          4.9670   18.5720    7.8470 C.2   110  LEU110      0.2592
     73  O          4.5090   18.6240    6.6990 O.2   110  LEU110     -0.2718
     74  CB         3.5560   19.1900    9.8200 C.3   110  LEU110      0.0284
     75  CG         2.4270   18.8020   10.7750 C.3   110  LEU110      0.0019
     76  CD1        2.0030   19.9940   11.6290 C.3   110  LEU110      0.0001
     77  CD2        1.2280   18.2480   10.0080 C.3   110  LEU110      0.0001
     78  N          6.2000   18.9660    8.1500 N.am  111  THR111     -0.1953
     79  CA         7.0800   19.4960    7.1270 C.3   111  THR111      0.1897
     80  C          7.3800   18.4170    6.0890 C.2   111  THR111      0.2313
     81  O          7.3810   18.6860    4.8840 O.2   111  THR111     -0.2863
     82  CB         8.3700   20.0370    7.7430 C.3   111  THR111      0.1794
     83  OG1        8.0280   20.9960    8.7530 O.3   111  THR111     -0.2208
     84  CG2        9.2420   20.7070    6.6820 C.3   111  THR111      0.0378
     85  N          4.5470   17.9140    3.5970 N.3   114  HIS114     -0.1226
     86  CA         4.6240   18.9630    2.5880 C.3   114  HIS114      0.1752
     87  C          5.7220   18.6830    1.5580 C.2   114  HIS114      0.2595
     88  O          5.4800   18.7140    0.3420 O.2   114  HIS114     -0.2718
     89  CB         4.8550   20.3220    3.2480 C.3   114  HIS114      0.0759
     90  CG         5.0170   21.4480    2.2750 C.ar  114  HIS114      0.0818
     91  ND1        3.9850   22.3040    1.9510 N.ar  114  HIS114     -0.2268
     92  CD2        6.0910   21.8750    1.5710 C.ar  114  HIS114      0.1154
     93  CE1        4.4150   23.2050    1.0890 C.ar  114  HIS114      0.1986
     94  NE2        5.6910   22.9620    0.8310 N.ar  114  HIS114     -0.2212
     95  N          6.9320   18.4020    2.0320 N.am  115  GLU115     -0.1979
     96  CA         8.0370   18.1720    1.1080 C.3   115  GLU115      0.1602
     97  C          7.8360   16.9350    0.2380 C.2   115  GLU115      0.2287
     98  O          8.1300   16.9660   -0.9610 O.2   115  GLU115     -0.2864
     99  CB         9.3860   18.0970    1.8380 C.3   115  GLU115      0.0415
    100  CG         9.7290   19.3280    2.6670 C.3   115  GLU115      0.1163
    101  CD         9.5740   20.6470    1.9140 C.2   115  GLU115      0.3649
    102  OE1        9.3230   21.6740    2.5790 O.co2 115  GLU115     -0.2457
    103  OE2        9.7140   20.6780    0.6710 O.co2 115  GLU115     -0.2457
    104  N          5.9520   17.6050   -2.8150 N.3   118  HIS118     -0.1241
    105  CA         6.7960   18.0660   -3.9150 C.3   118  HIS118      0.1621
    106  C          7.5790   16.9070   -4.5480 C.2   118  HIS118      0.2264
    107  O          7.7210   16.8400   -5.7750 O.2   118  HIS118     -0.2867
    108  CB         7.8210   19.0930   -3.4350 C.3   118  HIS118      0.0745
    109  CG         7.2520   20.4260   -3.0440 C.ar  118  HIS118      0.0817
    110  ND1        6.4120   21.1600   -3.8560 N.ar  118  HIS118     -0.2268
    111  CD2        7.4630   21.1760   -1.9410 C.ar  118  HIS118      0.1154
    112  CE1        6.1170   22.3010   -3.2530 C.ar  118  HIS118      0.1986
    113  NE2        6.7460   22.3410   -2.0930 N.ar  118  HIS118     -0.2212
    114  N          2.6030   24.1880   -5.0570 N.3   124  HIS124     -0.1241
    115  CA         1.9120   24.7930   -3.9300 C.3   124  HIS124      0.1621
    116  C          0.4340   24.9840   -4.1740 C.2   124  HIS124      0.2264
    117  O         -0.0070   25.1350   -5.3150 O.2   124  HIS124     -0.2867
    118  CB         2.5720   26.1100   -3.5340 C.3   124  HIS124      0.0745
    119  CG         3.8610   25.9120   -2.8080 C.ar  124  HIS124      0.0817
    120  ND1        4.8620   26.8630   -2.7720 N.ar  124  HIS124     -0.2268
    121  CD2        4.3180   24.8620   -2.0860 C.ar  124  HIS124      0.1154
    122  CE1        5.8770   26.4000   -2.0660 C.ar  124  HIS124      0.1986
    123  NE2        5.5710   25.1890   -1.6340 N.ar  124  HIS124     -0.2212
    124  N         -5.6600   27.5520    2.2400 N.3   128  PRO128     -0.2102
    125  CA        -4.9210   27.6420    3.5070 C.3   128  PRO128      0.1504
    126  C         -5.0850   26.4050    4.3830 C.2   128  PRO128      0.2576
    127  O         -4.3910   26.2880    5.3990 O.2   128  PRO128     -0.2718
    128  CB        -5.5560   28.8540    4.1950 C.3   128  PRO128      0.0282
    129  CG        -6.9320   28.9180    3.6480 C.3   128  PRO128      0.0208
    130  CD        -6.8390   28.4380    2.2210 C.3   128  PRO128      0.0893
    131  N         -5.9750   25.5130    4.0190 N.am  129  LYS129     -0.1966
    132  CA        -6.1440   24.2840    4.7510 C.3   129  LYS129      0.1728
    133  C         -5.2970   23.1510    4.1840 C.2   129  LYS129      0.2616
    134  O         -5.2260   22.1040    4.7680 O.2   129  LYS129     -0.2715
    135  CB        -7.6100   23.8840    4.7650 C.3   129  LYS129      0.0311
    136  CG        -8.4970   25.0260    5.2080 C.3   129  LYS129      0.0038
    137  CD        -8.0320   25.5020    6.5470 C.3   129  LYS129      0.0206
    138  CE        -8.8510   26.6640    7.0480 C.3   129  LYS129      0.1093
    139  NZ       -10.1550   26.1550    7.4730 N.3   129  LYS129     -0.1314
    140  N         -4.6910   23.3980    3.0340 N.am  130  ALA130     -0.1963
    141  CA        -3.9030   22.3810    2.3420 C.3   130  ALA130      0.1728
    142  C         -2.5090   22.2590    2.9250 C.2   130  ALA130      0.2616
    143  O         -1.8790   23.2630    3.2610 O.2   130  ALA130     -0.2715
    144  CB        -3.8200   22.6920    0.8610 C.3   130  ALA130      0.0334
    145  N         -2.0130   21.0310    3.0250 N.am  131  VAL131     -0.1977
    146  CA        -0.6500   20.8320    3.4920 C.3   131  VAL131      0.1596
    147  C          0.3610   21.3810    2.4780 C.2   131  VAL131      0.2287
    148  O          1.5060   21.6650    2.8300 O.2   131  VAL131     -0.2864
    149  CB        -0.3940   19.3440    3.8240 C.3   131  VAL131      0.0276
    150  CG1       -0.2670   18.4950    2.5540 C.3   131  VAL131      0.0022
    151  CG2        0.8360   19.2000    4.7000 C.3   131  VAL131      0.0022
    152  N          0.0580   24.2630    1.1090 N.3   133  PHE133     -0.1228
    153  CA         0.1180   25.7230    1.2510 C.3   133  PHE133      0.1721
    154  C          1.5710   26.1180    1.5700 C.2   133  PHE133      0.2437
    155  O          2.2950   25.3390    2.1830 O.2   133  PHE133     -0.2733
    156  CB        -0.8430   26.1810    2.3560 C.3   133  PHE133      0.0547
    157  CG        -1.1540   27.6490    2.3350 C.ar  133  PHE133     -0.0202
    158  CD1       -1.9020   28.2000    1.3020 C.ar  133  PHE133     -0.0042
    159  CD2       -0.7030   28.4730    3.3490 C.ar  133  PHE133     -0.0042
    160  CE1       -2.1820   29.5450    1.2780 C.ar  133  PHE133     -0.0003
    161  CE2       -0.9870   29.8310    3.3390 C.ar  133  PHE133     -0.0003
    162  CZ        -1.7270   30.3620    2.2990 C.ar  133  PHE133     -0.0000
    163  N          2.0180   27.3090    1.1290 N.am  134  PRO134     -0.2718
    164  CA         3.4460   27.6610    1.2500 C.3   134  PRO134      0.1535
    165  C          3.9730   27.8810    2.6740 C.2   134  PRO134      0.2599
    166  O          5.1950   27.8170    2.8800 O.2   134  PRO134     -0.2715
    167  CB         3.5460   28.9880    0.4820 C.3   134  PRO134      0.0310
    168  CG         2.3960   29.0010   -0.4350 C.3   134  PRO134      0.0237
    169  CD         1.2930   28.2510    0.2580 C.3   134  PRO134      0.0939
    170  N          3.0940   28.1580    3.6330 N.am  135  THR135     -0.1937
    171  CA         3.5540   28.5020    4.9730 C.3   135  THR135      0.2028
    172  C          3.2020   27.4570    6.0070 C.2   135  THR135      0.2642
    173  O          2.0640   26.9840    6.0740 O.2   135  THR135     -0.2714
    174  CB         3.0530   29.8930    5.4430 C.3   135  THR135      0.1808
    175  OG1        1.6270   29.9750    5.3230 O.3   135  THR135     -0.2208
    176  CG2        3.6820   30.9860    4.6190 C.3   135  THR135      0.0379
    177  N          4.2060   27.1000    6.7990 N.am  136  TYR136     -0.1959
    178  CA         4.0770   26.1160    7.8620 C.3   136  TYR136      0.1771
    179  C          3.1070   26.5780    8.9330 C.2   136  TYR136      0.2619
    180  O          3.0960   27.7480    9.3220 O.2   136  TYR136     -0.2715
    181  CB         5.4500   25.8710    8.4890 C.3   136  TYR136      0.0574
    182  CG         5.4420   25.0240    9.7420 C.ar  136  TYR136     -0.0198
    183  CD1        5.5850   23.6430    9.6730 C.ar  136  TYR136     -0.0009
    184  CD2        5.3050   25.6110   10.9970 C.ar  136  TYR136     -0.0009
    185  CE1        5.5820   22.8720   10.8140 C.ar  136  TYR136      0.0417
    186  CE2        5.2930   24.8540   12.1390 C.ar  136  TYR136      0.0417
    187  CZ         5.4380   23.4830   12.0420 C.ar  136  TYR136      0.1957
    188  OH         5.4350   22.7250   13.1900 O.3   136  TYR136     -0.2866
    189  N          2.3010   25.6390    9.4100 N.am  137  ALA137     -0.1977
    190  CA         1.4520   25.8640   10.5680 C.3   137  ALA137      0.1597
    191  C          1.3690   24.5580   11.3340 C.2   137  ALA137      0.2287
    192  O          1.2500   23.4900   10.7260 O.2   137  ALA137     -0.2864
    193  CB         0.0740   26.3060   10.1370 C.3   137  ALA137      0.0319
    194  N         -0.4770   21.8260   13.3990 N.3   139  VAL139     -0.1245
    195  CA        -1.7570   21.2540   13.6930 C.3   139  VAL139      0.1561
    196  C         -1.5690   19.9830   14.4680 C.2   139  VAL139      0.2260
    197  O         -0.6050   19.2600   14.2820 O.2   139  VAL139     -0.2867
    198  CB        -2.6120   21.0590   12.4550 C.3   139  VAL139      0.0252
    199  CG1       -2.7800   22.3840   11.7640 C.3   139  VAL139      0.0019
    200  CG2       -1.9910   20.0600   11.5130 C.3   139  VAL139      0.0019
    201  N         -4.3090   15.0280   12.1910 N.3   144  PHE144     -0.1227
    202  CA        -3.9640   15.5460   10.8720 C.3   144  PHE144      0.1736
    203  C         -4.7010   14.8320    9.7530 C.2   144  PHE144      0.2595
    204  O         -4.8260   13.6060    9.7610 O.2   144  PHE144     -0.2718
    205  CB        -2.4620   15.4580   10.5970 C.3   144  PHE144      0.0547
    206  CG        -2.1050   15.8020    9.1840 C.ar  144  PHE144     -0.0202
    207  CD1       -2.0080   17.1280    8.7910 C.ar  144  PHE144     -0.0042
    208  CD2       -1.9120   14.8060    8.2330 C.ar  144  PHE144     -0.0042
    209  CE1       -1.7080   17.4540    7.4840 C.ar  144  PHE144     -0.0003
    210  CE2       -1.6130   15.1280    6.9270 C.ar  144  PHE144     -0.0003
    211  CZ        -1.5110   16.4560    6.5520 C.ar  144  PHE144     -0.0000
    212  N         -5.1800   15.6090    8.7870 N.am  145  ARG145     -0.1980
    213  CA        -5.7740   15.0590    7.5760 C.3   145  ARG145      0.1597
    214  C         -5.3380   15.8790    6.3750 C.2   145  ARG145      0.2287
    215  O         -5.2260   17.1060    6.4530 O.2   145  ARG145     -0.2864
    216  CB        -7.3010   15.0990    7.6490 C.3   145  ARG145      0.0334
    217  CG        -7.9140   14.3480    8.8120 C.3   145  ARG145      0.0492
    218  CD        -7.7340   12.8500    8.6840 C.3   145  ARG145      0.2205
    219  NE        -8.5070   12.1550    9.7050 N.pl3 145  ARG145     -0.0865
    220  CZ        -8.6060   10.8350    9.8070 C.cat 145  ARG145      0.5346
    221  NH1       -9.3400   10.3030   10.7740 N.pl3 145  ARG145      0.1354
    222  NH2       -7.9750   10.0490    8.9450 N.pl3 145  ARG145      0.1354
    223  N         -6.0750   17.8260    3.1560 N.3   147  SER147     -0.1217
    224  CA        -7.2570   18.5510    2.7160 C.3   147  SER147      0.1889
    225  C         -7.8000   17.9190    1.4380 C.2   147  SER147      0.2288
    226  O         -7.0980   17.1570    0.7580 O.2   147  SER147     -0.2866
    227  CB        -6.9200   20.0170    2.4660 C.3   147  SER147      0.2089
    228  OG        -6.1380   20.1610    1.2970 O.3   147  SER147     -0.2183
@<TRIPOS>BOND
     1   107   106    2
     2   117   116    2
     3   114   115    1
     4   106   105    1
     5    52    51    2
     6   116   115    1
     7   115   118    1
     8   105   108    1
     9   105   104    1
    10   110   112   ar
    11   110   109   ar
    12    51    50    1
    13   118   119    1
    14   108   109    1
    15   112   113   ar
    16   109   111   ar
    17   119   120   ar
    18   119   121   ar
    19   120   122   ar
    20    47    45   ar
    21    47    48   ar
    22    45    44   ar
    23    50    53    1
    24    50    49    1
    25   113   111   ar
    26   121   123   ar
    27   122   123   ar
    28    49    41   am
    29    48    46   ar
    30    44    43    1
    31    44    46   ar
    32    98    97    2
    33    43    40    1
    34    41    42    2
    35    41    40    1
    36   168   169    1
    37   168   167    1
    38    40    39    1
    39    97    96    1
    40   169   163    1
    41    88    87    2
    42   167   164    1
    43   103   101   ar
    44   226   225    2
    45    94    93   ar
    46    94    92   ar
    47   144   141    1
    48    93    91   ar
    49    96    99    1
    50    96    95    1
    51   152   153    1
    52    25    23    1
    53   163   164    1
    54   163   154   am
    55   164   165    1
    56   153   154    1
    57   153   156    1
    58   160   158   ar
    59   160   162   ar
    60   228   227    1
    61   158   157   ar
    62   225   224    1
    63    87    95   am
    64    87    86    1
    65   154   155    2
    66    92    90   ar
    67    39    36   am
    68    99   100    1
    69   101   102   ar
    70   101   100    1
    71    91    90   ar
    72    37    36    2
    73   130   124    1
    74   130   129    1
    75   124   125    1
    76    90    89    1
    77   162   161   ar
    78   157   156    1
    79   157   159   ar
    80   141   142    1
    81   141   140    1
    82   227   224    1
    83    36    35    1
    84   147   148    2
    85   147   146    1
    86   150   149    1
    87    86    89    1
    88    86    85    1
    89    23    22    1
    90   165   166    2
    91   165   170   am
    92   224   223    1
    93   142   145   am
    94   142   143    2
    95   145   146    1
    96   140   133   am
    97    24    22    1
    98    22    19    1
    99   161   159   ar
   100   146   149    1
   101   125   128    1
   102   125   126    1
   103   170   171    1
   104   129   128    1
   105   149   151    1
   106    35    38    1
   107    35    34    1
   108   131   126   am
   109   131   132    1
   110   133   132    1
   111   133   134    2
   112   126   127    2
   113   176   174    1
   114    34    28   am
   115    19    18    1
   116    19    20    1
   117   132   135    1
   118   135   136    1
   119    81    80    2
   120   171   174    1
   121   171   172    1
   122   136   137    1
   123   175   174    1
   124    18    16   am
   125    20    26   am
   126    20    21    2
   127    26    27    1
   128    28    29    2
   129    28    27    1
   130   172   173    2
   131   172   177   am
   132    80    79    1
   133    16    17    2
   134    16    15    1
   135   214   215    2
   136   214   213    1
   137   137   138    1
   138   211   210   ar
   139   211   209   ar
   140    27    30    1
   141    84    82    1
   142    73    72    2
   143   177   178    1
   144   210   208   ar
   145    15    14    1
   146   138   139    1
   147    79    82    1
   148    79    78    1
   149    30    31    1
   150   209   207   ar
   151   213   216    1
   152   213   212    1
   153   216   217    1
   154    82    83    1
   155    72    78   am
   156    72    71    1
   157   178   181    1
   158   178   179    1
   159    31    32    1
   160    31    33    1
   161   208   206   ar
   162    13    12    2
   163    14    12   am
   164   181   182    1
   165   218   217    1
   166   218   219    1
   167   212   203   am
   168   207   206   ar
   169   179   180    2
   170   179   189   am
   171   222   220    1
   172    12    11    1
   173    71    74    1
   174    71    70    1
   175   206   205    1
   176    62    60   ar
   177   189   190    1
   178   183   182   ar
   179   183   185   ar
   180   219   220    2
   181   182   184   ar
   182   203   204    2
   183   203   202    1
   184   220   221    1
   185    74    75    1
   186    77    75    1
   187   193   190    1
   188    60    59    1
   189    60    61   ar
   190    59    58    1
   191    11    10    1
   192   190   191    1
   193   205   202    1
   194   192   191    2
   195    75    76    1
   196   185   187   ar
   197   202   201    1
   198     1     2    1
   199    10     3   am
   200   184   186   ar
   201     4     3    2
   202     3     2    1
   203    69    67    1
   204   200   198    1
   205     2     5    1
   206    58    55    1
   207    54    55    1
   208   199   198    1
   209   187   186   ar
   210   187   188    1
   211   198   195    1
   212    55    56    1
   213    67    68    1
   214    67    64    1
   215     5     6    1
   216   194   195    1
   217    65    64    1
   218    65    66    2
   219    56    57    2
   220   195   196    1
   221    64    63    1
   222     6     7    1
   223   197   196    2
   224     7     8    1
   225     8     9    1
