@<TRIPOS>MOLECULE
tmp/5d3eG00.pdb
 150 139 0 0 0
SMALL
GASTEIGER

@<TRIPOS>ATOM
      1  N         69.9200   78.2740   57.3890 N.3    46  VAL46      -0.1245
      2  CA        70.2680   76.9910   57.9260 C.3    46  VAL46       0.1561
      3  C         70.5700   76.0060   56.8370 C.2    46  VAL46       0.2260
      4  O         71.3610   75.1100   57.0300 O.2    46  VAL46      -0.2867
      5  CB        69.1940   76.4380   58.8350 C.3    46  VAL46       0.0252
      6  CG1       69.6590   75.1340   59.4150 C.3    46  VAL46       0.0019
      7  CG2       68.9330   77.4100   59.9460 C.3    46  VAL46       0.0019
      8  N         73.9960   76.9660   55.1960 N.3    49  LYS49      -0.1245
      9  CA        74.9880   76.8140   56.2300 C.3    49  LYS49       0.1561
     10  C         75.4150   75.3800   56.4390 C.2    49  LYS49       0.2260
     11  O         76.5550   75.1140   56.7020 O.2    49  LYS49      -0.2867
     12  CB        74.4630   77.3900   57.5240 C.3    49  LYS49       0.0271
     13  CG        75.5240   77.6850   58.5500 C.3    49  LYS49       0.0035
     14  CD        76.1670   79.0290   58.3150 C.3    49  LYS49       0.0206
     15  CE        77.5840   79.0480   58.8330 C.3    49  LYS49       0.1093
     16  NZ        77.7360   78.2240   60.0570 N.3    49  LYS49      -0.1314
     17  N         83.2100   72.8630   53.9210 N.3    56  ARG56      -0.1245
     18  CA        84.2030   73.4440   54.8070 C.3    56  ARG56       0.1563
     19  C         84.8280   72.3720   55.6850 C.2    56  ARG56       0.2260
     20  O         86.0370   72.3690   55.9040 O.2    56  ARG56      -0.2867
     21  CB        83.5810   74.5400   55.6880 C.3    56  ARG56       0.0307
     22  CG        83.2220   75.7980   54.9160 C.3    56  ARG56       0.0489
     23  CD        82.4810   76.7920   55.7660 C.3    56  ARG56       0.2205
     24  NE        83.3740   77.5720   56.6140 N.pl3  56  ARG56      -0.0865
     25  CZ        83.0830   77.9620   57.8520 C.cat  56  ARG56       0.5346
     26  NH1       81.9310   77.6310   58.4000 N.pl3  56  ARG56       0.1354
     27  NH2       83.9520   78.6800   58.5450 N.pl3  56  ARG56       0.1354
     28  N         75.2780   90.5670   56.1100 N.3   124  LYS124     -0.1245
     29  CA        76.0830   89.6800   56.9210 C.3   124  LYS124      0.1561
     30  C         76.1930   88.2930   56.2780 C.2   124  LYS124      0.2260
     31  O         77.1970   87.6190   56.4580 O.2   124  LYS124     -0.2867
     32  CB        75.5120   89.5730   58.3450 C.3   124  LYS124      0.0271
     33  CG        76.0460   88.3930   59.1370 C.3   124  LYS124      0.0035
     34  CD        75.3680   88.2360   60.4700 C.3   124  LYS124      0.0206
     35  CE        75.7020   86.8850   61.0970 C.3   124  LYS124      0.1093
     36  NZ        75.4800   85.7730   60.1200 N.3   124  LYS124     -0.1314
     37  N         83.5530   85.2590   53.0580 N.3   131  ARG131     -0.1231
     38  CA        84.5350   84.8260   54.0300 C.3   131  ARG131      0.1694
     39  C         84.7940   83.3280   53.8490 C.2   131  ARG131      0.2592
     40  O         85.9040   82.8670   54.0840 O.2   131  ARG131     -0.2718
     41  CB        84.0850   85.1550   55.4690 C.3   131  ARG131      0.0321
     42  CG        84.9620   84.5450   56.5860 C.3   131  ARG131      0.0489
     43  CD        84.6450   85.0770   57.9910 C.3   131  ARG131      0.2205
     44  NE        83.2360   84.9440   58.3500 N.pl3 131  ARG131     -0.0865
     45  CZ        82.7440   83.9440   59.0690 C.cat 131  ARG131      0.5346
     46  NH1       83.5470   82.9870   59.5060 N.pl3 131  ARG131      0.1354
     47  NH2       81.4450   83.8940   59.3490 N.pl3 131  ARG131      0.1354
     48  N         83.7990   82.5590   53.4090 N.am  132  TYR132     -0.1976
     49  CA        84.0410   81.1260   53.2080 C.3   132  TYR132      0.1639
     50  C         84.8650   80.9250   51.9500 C.2   132  TYR132      0.2290
     51  O         85.6400   79.9770   51.8650 O.2   132  TYR132     -0.2864
     52  CB        82.7440   80.3220   53.1160 C.3   132  TYR132      0.0560
     53  CG        81.8680   80.4540   54.3340 C.ar  132  TYR132     -0.0198
     54  CD1       82.4180   80.5510   55.6040 C.ar  132  TYR132     -0.0009
     55  CD2       80.4900   80.5180   54.2120 C.ar  132  TYR132     -0.0009
     56  CE1       81.6200   80.6920   56.7050 C.ar  132  TYR132      0.0417
     57  CE2       79.6890   80.6630   55.3110 C.ar  132  TYR132      0.0417
     58  CZ        80.2540   80.7500   56.5520 C.ar  132  TYR132      0.1957
     59  OH        79.4330   80.8850   57.6440 O.3   132  TYR132     -0.2866
     60  N         88.5600   81.7480   52.9450 N.3   135  GLU135     -0.1245
     61  CA        89.1690   80.6260   53.6570 C.3   135  GLU135      0.1567
     62  C         89.9330   79.6640   52.7640 C.2   135  GLU135      0.2260
     63  O         90.8790   79.0530   53.2250 O.2   135  GLU135     -0.2867
     64  CB        88.1130   79.8170   54.4230 C.3   135  GLU135      0.0388
     65  CG        87.4820   80.5360   55.5910 C.3   135  GLU135      0.1160
     66  CD        86.4640   79.6770   56.3100 C.2   135  GLU135      0.3649
     67  OE1       86.0050   78.6760   55.7110 O.co2 135  GLU135     -0.2457
     68  OE2       86.1410   79.9940   57.4810 O.co2 135  GLU135     -0.2457
     69  N         75.1380   88.8630   66.4230 N.3   173  GLY173     -0.1225
     70  CA        75.6130   87.9330   65.4200 C.3   173  GLY173      0.1811
     71  C         76.4940   88.5740   64.3600 C.2   173  GLY173      0.2280
     72  O         77.5030   87.9920   63.9700 O.2   173  GLY173     -0.2866
     73  N         79.8660   89.3050   66.1620 N.3   176  LEU176     -0.1231
     74  CA        80.5520   88.0280   66.2810 C.3   176  LEU176      0.1693
     75  C         81.2950   87.6120   65.0070 C.2   176  LEU176      0.2592
     76  O         82.5110   87.4370   65.0280 O.2   176  LEU176     -0.2718
     77  CB        79.5580   86.9440   66.6600 C.3   176  LEU176      0.0284
     78  CG        80.1440   85.5460   66.8100 C.3   176  LEU176      0.0019
     79  CD1       81.1540   85.5320   67.9390 C.3   176  LEU176      0.0001
     80  CD2       79.0210   84.5370   67.0590 C.3   176  LEU176      0.0001
     81  N         80.5610   87.4770   63.9050 N.am  177  ASN177     -0.1974
     82  CA        81.1140   87.0010   62.6430 C.3   177  ASN177      0.1688
     83  C         82.0500   87.9990   61.9480 C.2   177  ASN177      0.2292
     84  O         82.9910   87.6030   61.2580 O.2   177  ASN177     -0.2864
     85  CB        79.9830   86.6320   61.6890 C.3   177  ASN177      0.1181
     86  CG        79.3670   85.2820   61.9950 C.2   177  ASN177      0.2629
     87  OD1       79.5710   84.7020   63.0700 O.2   177  ASN177     -0.2716
     88  ND2       78.5970   84.7700   61.0380 N.am  177  ASN177     -0.0877
     89  N         85.2900   87.5630   63.9140 N.3   180  VAL180     -0.1245
     90  CA        85.9170   86.3350   63.4380 C.3   180  VAL180      0.1561
     91  C         86.5750   86.5700   62.0770 C.2   180  VAL180      0.2260
     92  O         87.6190   85.9830   61.7710 O.2   180  VAL180     -0.2867
     93  CB        84.9070   85.1830   63.3510 C.3   180  VAL180      0.0252
     94  CG1       85.4620   84.0230   62.5320 C.3   180  VAL180      0.0019
     95  CG2       84.5610   84.7140   64.7430 C.3   180  VAL180      0.0019
     96  N         90.3770   85.4390   61.9070 N.3   184  GLU184     -0.1245
     97  CA        90.7600   84.2840   61.0770 C.3   184  GLU184      0.1567
     98  C         91.2390   84.6470   59.6730 C.2   184  GLU184      0.2260
     99  O         92.0690   83.9430   59.1150 O.2   184  GLU184     -0.2867
    100  CB        89.5970   83.2720   60.9580 C.3   184  GLU184      0.0388
    101  CG        89.2870   82.4800   62.2640 C.3   184  GLU184      0.1160
    102  CD        88.2020   81.3950   62.1010 C.2   184  GLU184      0.3649
    103  OE1       87.6350   81.2610   60.9890 O.co2 184  GLU184     -0.2457
    104  OE2       87.9090   80.6760   63.0900 O.co2 184  GLU184     -0.2457
    105  N         74.7010   84.6190   72.0210 N.3   221  ILE221     -0.1245
    106  CA        75.6890   85.2770   71.1750 C.3   221  ILE221      0.1561
    107  C         76.6350   86.1400   72.0040 C.2   221  ILE221      0.2260
    108  O         77.8120   86.2800   71.6470 O.2   221  ILE221     -0.2867
    109  CB        75.0250   86.1250   70.0760 C.3   221  ILE221      0.0252
    110  CG1       73.9770   85.2880   69.3300 C.3   221  ILE221      0.0019
    111  CG2       76.0690   86.6850   69.1110 C.3   221  ILE221      0.0019
    112  CD1       73.3200   86.0020   68.1340 C.3   221  ILE221      0.0001
    113  N         79.1670   83.7630   73.2530 N.3   224  LEU224     -0.1245
    114  CA        80.1260   83.3570   72.2260 C.3   224  LEU224      0.1561
    115  C         81.1320   84.4510   71.9760 C.2   224  LEU224      0.2260
    116  O         82.2910   84.1830   71.6460 O.2   224  LEU224     -0.2867
    117  CB        79.4250   83.0010   70.9160 C.3   224  LEU224      0.0270
    118  CG        78.3770   81.8930   71.0250 C.3   224  LEU224      0.0019
    119  CD1       77.7220   81.6210   69.6800 C.3   224  LEU224      0.0001
    120  CD2       78.9990   80.6360   71.5980 C.3   224  LEU224      0.0001
    121  N         85.1520   83.6270   72.4640 N.3   228  ASN228     -0.1240
    122  CA        86.1860   84.0470   71.5190 C.3   228  ASN228      0.1653
    123  C         87.1760   85.0430   72.0980 C.2   228  ASN228      0.2266
    124  O         88.3700   84.9340   71.8300 O.2   228  ASN228     -0.2867
    125  CB        85.5680   84.6530   70.2620 C.3   228  ASN228      0.1155
    126  CG        84.8290   83.6360   69.4260 C.2   228  ASN228      0.2627
    127  OD1       84.5840   82.5070   69.8600 O.2   228  ASN228     -0.2716
    128  ND2       84.4520   84.0360   68.2170 N.am  228  ASN228     -0.0877
    129  N         89.4850   83.2980   74.3470 N.3   231  LEU231     -0.1231
    130  CA        90.3680   82.4160   73.6170 C.3   231  LEU231      0.1693
    131  C         91.3780   83.1860   72.8210 C.2   231  LEU231      0.2592
    132  O         92.5070   82.7960   72.6940 O.2   231  LEU231     -0.2718
    133  CB        89.5700   81.4680   72.7380 C.3   231  LEU231      0.0284
    134  CG        90.2190   80.9600   71.4600 C.3   231  LEU231      0.0019
    135  CD1       91.1920   79.8620   71.7860 C.3   231  LEU231      0.0001
    136  CD2       89.1720   80.4610   70.4910 C.3   231  LEU231      0.0001
    137  N         90.9380   84.2710   72.2340 N.am  232  TRP232     -0.1976
    138  CA        91.8160   85.0900   71.4430 C.3   232  TRP232      0.1640
    139  C         92.9140   85.7350   72.2470 C.2   232  TRP232      0.2290
    140  O         93.9820   85.9220   71.7410 O.2   232  TRP232     -0.2864
    141  CB        91.0340   86.1140   70.6520 C.3   232  TRP232      0.0576
    142  CG        90.2130   85.5110   69.6060 C.ar  232  TRP232      0.0006
    143  CD1       90.2940   84.2600   69.1490 C.ar  232  TRP232      0.0946
    144  CD2       89.1830   86.1420   68.8690 C.ar  232  TRP232      0.0152
    145  NE1       89.3780   84.0550   68.1760 N.ar  232  TRP232     -0.2442
    146  CE2       88.6800   85.2090   67.9860 C.ar  232  TRP232      0.0810
    147  CE3       88.6340   87.4100   68.8780 C.ar  232  TRP232      0.0012
    148  CZ2       87.6670   85.4950   67.1250 C.ar  232  TRP232      0.0191
    149  CZ3       87.6430   87.6840   68.0280 C.ar  232  TRP232      0.0001
    150  CH2       87.1650   86.7410   67.1640 C.ar  232  TRP232      0.0015
@<TRIPOS>BOND
     1    51    50    2
     2    50    49    1
     3    62    63    2
     4    62    61    1
     5    60    61    1
     6    37    38    1
     7    52    49    1
     8    52    53    1
     9    49    48    1
    10    48    39   am
    11    61    64    1
    12    39    38    1
    13    39    40    2
    14    17    18    1
    15    38    41    1
    16    55    53   ar
    17    55    57   ar
    18    53    54   ar
    19    64    65    1
    20    18    19    1
    21    18    21    1
    22    22    21    1
    23    22    23    1
    24     8     9    1
    25    57    58   ar
    26    41    42    1
    27    65    66    1
    28    54    56   ar
    29    19    20    2
    30    67    66   ar
    31    23    24    1
    32    28    29    1
    33     9    10    1
    34     9    12    1
    35    30    31    2
    36    30    29    1
    37    66    68   ar
    38    10    11    2
    39    58    56   ar
    40    58    59    1
    41    42    43    1
    42    24    25    2
    43     3     4    2
    44     3     2    1
    45    29    32    1
    46     1     2    1
    47    12    13    1
    48    25    26    1
    49    25    27    1
    50     2     5    1
    51    43    44    1
    52    14    13    1
    53    14    15    1
    54    32    33    1
    55    44    45    2
    56    15    16    1
    57     5     6    1
    58     5     7    1
    59    45    47    1
    60    45    46    1
    61    99    98    2
    62    33    34    1
    63    98    97    1
    64    36    35    1
    65    34    35    1
    66   100    97    1
    67   100   101    1
    68   103   102   ar
    69    88    86   am
    70    97    96    1
    71    84    83    2
    72    85    86    1
    73    85    82    1
    74    92    91    2
    75    83    82    1
    76    86    87    2
    77    91    90    1
    78   102   101    1
    79   102   104   ar
    80    94    93    1
    81    82    81    1
    82    93    90    1
    83    93    95    1
    84    90    89    1
    85    81    75   am
    86    72    71    2
    87    71    70    1
    88    75    76    2
    89    75    74    1
    90    70    69    1
    91    73    74    1
    92    74    77    1
    93    77    78    1
    94    78    80    1
    95    78    79    1
    96   148   150   ar
    97   148   146   ar
    98   150   149   ar
    99   146   145   ar
   100   146   144   ar
   101   149   147   ar
   102   112   110    1
   103   145   143   ar
   104   128   126   am
   105   144   147   ar
   106   144   142   ar
   107   111   109    1
   108   143   142   ar
   109   110   109    1
   110   126   127    2
   111   126   125    1
   112   142   141    1
   113   119   118    1
   114   109   106    1
   115   125   122    1
   116   136   134    1
   117   141   138    1
   118   117   118    1
   119   117   114    1
   120   118   120    1
   121   106   107    1
   122   106   105    1
   123   138   137    1
   124   138   139    1
   125   134   135    1
   126   134   133    1
   127   122   123    1
   128   122   121    1
   129   116   115    2
   130   108   107    2
   131   140   139    2
   132   124   123    2
   133   115   114    1
   134   114   113    1
   135   137   131   am
   136   132   131    2
   137   133   130    1
   138   131   130    1
   139   130   129    1
