@<TRIPOS>MOLECULE
tmp/5d3eE00.pdb
 172 162 0 0 0
SMALL
GASTEIGER

@<TRIPOS>ATOM
      1  N         -0.6340   66.1040   47.4060 N.3    50  VAL50      -0.1245
      2  CA         0.4650   65.5910   48.2140 C.3    50  VAL50       0.1561
      3  C          1.7810   65.5810   47.4460 C.2    50  VAL50       0.2260
      4  O          2.8030   66.0840   47.9380 O.2    50  VAL50      -0.2867
      5  CB         0.1790   64.1750   48.7250 C.3    50  VAL50       0.0252
      6  CG1        1.4000   63.6140   49.3670 C.3    50  VAL50       0.0019
      7  CG2       -0.9390   64.2020   49.7400 C.3    50  VAL50       0.0019
      8  N          3.0990   69.0110   46.7560 N.3    53  LYS53      -0.1231
      9  CA         3.4390   69.6480   48.0250 C.3    53  LYS53       0.1693
     10  C          4.8080   69.1840   48.5150 C.2    53  LYS53       0.2592
     11  O          5.5830   69.9890   49.0380 O.2    53  LYS53      -0.2718
     12  CB         2.3830   69.3450   49.0850 C.3    53  LYS53       0.0285
     13  CG         2.6040   69.9980   50.4400 C.3    53  LYS53       0.0035
     14  CD         2.1030   71.4340   50.4610 C.3    53  LYS53       0.0206
     15  CE         2.6480   72.1930   51.6820 C.3    53  LYS53       0.1093
     16  NZ         2.3850   71.4270   52.9290 N.3    53  LYS53      -0.1314
     17  N          5.1070   67.8900   48.3560 N.am   54  ASN54      -0.1974
     18  CA         6.4360   67.3700   48.7230 C.3    54  ASN54       0.1688
     19  C          7.5420   67.8250   47.7770 C.2    54  ASN54       0.2292
     20  O          8.6450   68.1350   48.2170 O.2    54  ASN54      -0.2864
     21  CB         6.4430   65.8500   48.7810 C.3    54  ASN54       0.1181
     22  CG         5.8200   65.3150   50.0600 C.2    54  ASN54       0.2629
     23  OD1        6.4980   65.1660   51.0870 O.2    54  ASN54      -0.2716
     24  ND2        4.5230   65.0140   50.0030 N.am   54  ASN54      -0.0877
     25  N         11.5460   74.3610   49.3470 N.3    60  ARG60      -0.1245
     26  CA        11.2850   75.3990   50.3320 C.3    60  ARG60       0.1563
     27  C         12.1580   75.1480   51.5270 C.2    60  ARG60       0.2260
     28  O         12.8090   76.0520   52.0210 O.2    60  ARG60      -0.2867
     29  CB         9.8160   75.4170   50.7480 C.3    60  ARG60       0.0307
     30  CG         8.8960   75.9390   49.6900 C.3    60  ARG60       0.0489
     31  CD         7.5260   75.7280   50.1290 C.3    60  ARG60       0.2205
     32  NE         7.1210   76.6790   51.1400 N.pl3  60  ARG60      -0.0865
     33  CZ         6.2170   76.4200   52.0770 C.cat  60  ARG60       0.5346
     34  NH1        5.6610   75.2190   52.1460 N.pl3  60  ARG60       0.1354
     35  NH2        5.8770   77.3640   52.9480 N.pl3  60  ARG60       0.1354
     36  N         -7.6170   77.3320   46.6370 N.3   128  LYS128     -0.1245
     37  CA        -6.7130   77.3900   47.7830 C.3   128  LYS128      0.1561
     38  C         -5.3070   76.9540   47.3960 C.2   128  LYS128      0.2260
     39  O         -4.3350   77.5780   47.8250 O.2   128  LYS128     -0.2867
     40  CB        -7.2250   76.5350   48.9350 C.3   128  LYS128      0.0271
     41  CG        -6.3050   76.5080   50.1090 C.3   128  LYS128      0.0035
     42  CD        -6.5660   75.2940   50.9660 C.3   128  LYS128      0.0206
     43  CE        -5.3980   74.9680   51.8710 C.3   128  LYS128      0.1093
     44  NZ        -4.4560   73.9900   51.2740 N.3   128  LYS128     -0.1314
     45  N          1.7300   81.8590   47.1490 N.3   135  ARG135     -0.1231
     46  CA         2.3790   82.2470   48.3880 C.3   135  ARG135      0.1694
     47  C          3.8110   81.7030   48.3920 C.2   135  ARG135      0.2592
     48  O          4.7330   82.3840   48.8480 O.2   135  ARG135     -0.2718
     49  CB         1.5940   81.7480   49.6100 C.3   135  ARG135      0.0321
     50  CG         2.4140   81.7600   50.9110 C.3   135  ARG135      0.0489
     51  CD         1.5950   81.5040   52.1780 C.3   135  ARG135      0.2205
     52  NE         0.7100   80.3590   52.0470 N.pl3 135  ARG135     -0.0865
     53  CZ         0.9740   79.1530   52.5320 C.cat 135  ARG135      0.5346
     54  NH1        2.0860   78.9300   53.2070 N.pl3 135  ARG135      0.1354
     55  NH2        0.1140   78.1700   52.3440 N.pl3 135  ARG135      0.1354
     56  N          4.0070   80.4880   47.8700 N.am  136  TYR136     -0.1976
     57  CA         5.3430   79.8810   47.8570 C.3   136  TYR136      0.1639
     58  C          6.2840   80.6740   46.9650 C.2   136  TYR136      0.2290
     59  O          7.4770   80.7940   47.2730 O.2   136  TYR136     -0.2864
     60  CB         5.3040   78.4230   47.3880 C.3   136  TYR136      0.0560
     61  CG         4.4530   77.5240   48.2480 C.ar  136  TYR136     -0.0198
     62  CD1        4.3250   77.7550   49.6030 C.ar  136  TYR136     -0.0009
     63  CD2        3.7520   76.4630   47.6960 C.ar  136  TYR136     -0.0009
     64  CE1        3.5380   76.9550   50.3760 C.ar  136  TYR136      0.0417
     65  CE2        2.9650   75.6580   48.4680 C.ar  136  TYR136      0.0417
     66  CZ         2.8610   75.9130   49.8080 C.ar  136  TYR136      0.1957
     67  OH         2.0750   75.1170   50.6040 O.3   136  TYR136     -0.2866
     68  N        -13.5190   70.5420   56.7150 N.3   173  PRO173     -0.2116
     69  CA       -12.0520   70.4850   56.6700 C.3   173  PRO173      0.1372
     70  C        -11.4480   71.3840   55.5740 C.2   173  PRO173      0.2244
     71  O        -10.4580   72.0650   55.8300 O.2   173  PRO173     -0.2868
     72  CB       -11.7590   68.9980   56.4080 C.3   173  PRO173      0.0268
     73  CG       -12.9280   68.2750   56.9210 C.3   173  PRO173      0.0207
     74  CD       -14.1240   69.2010   56.6960 C.3   173  PRO173      0.0892
     75  N         -8.9300   74.5360   56.5980 N.3   177  GLY177     -0.1225
     76  CA        -7.5880   74.5800   56.0430 C.3   177  GLY177      0.1811
     77  C         -7.3600   75.8630   55.2640 C.2   177  GLY177      0.2280
     78  O         -6.3030   76.4790   55.3750 O.2   177  GLY177     -0.2866
     79  N         -6.6070   78.4740   57.7090 N.3   180  LEU180     -0.1231
     80  CA        -5.3060   78.3670   58.2780 C.3   180  LEU180      0.1693
     81  C         -4.2600   78.8950   57.3450 C.2   180  LEU180      0.2592
     82  O         -3.3920   79.6220   57.7480 O.2   180  LEU180     -0.2718
     83  CB        -5.0390   76.9060   58.5060 C.3   180  LEU180      0.0284
     84  CG        -3.6970   76.4420   58.9980 C.3   180  LEU180      0.0019
     85  CD1       -3.3240   77.1290   60.2680 C.3   180  LEU180      0.0001
     86  CD2       -3.7930   74.9780   59.2540 C.3   180  LEU180      0.0001
     87  N         -4.3370   78.5210   56.0890 N.am  181  ASN181     -0.1974
     88  CA        -3.3840   78.9740   55.1070 C.3   181  ASN181      0.1688
     89  C         -3.4500   80.4320   54.7960 C.2   181  ASN181      0.2292
     90  O         -2.4540   81.0530   54.6180 O.2   181  ASN181     -0.2864
     91  CB        -3.4960   78.1580   53.8530 C.3   181  ASN181      0.1181
     92  CG        -2.7690   76.8620   53.9510 C.2   181  ASN181      0.2629
     93  OD1       -2.4630   76.4010   55.0100 O.2   181  ASN181     -0.2716
     94  ND2       -2.5120   76.2740   52.8400 N.am  181  ASN181     -0.0877
     95  N         -1.9560   82.3370   57.5490 N.3   184  VAL184     -0.1245
     96  CA        -0.5290   82.2520   57.4580 C.3   184  VAL184      0.1561
     97  C         -0.0870   83.2150   56.4050 C.2   184  VAL184      0.2260
     98  O          0.9170   83.8410   56.5220 O.2   184  VAL184     -0.2867
     99  CB        -0.0830   80.8260   57.1780 C.3   184  VAL184      0.0252
    100  CG1        1.3380   80.7660   56.6940 C.3   184  VAL184      0.0019
    101  CG2       -0.2240   80.0020   58.4260 C.3   184  VAL184      0.0019
    102  N          2.7330   85.7470   57.6460 N.3   188  GLU188     -0.1245
    103  CA         4.0750   85.6130   57.0680 C.3   188  GLU188      0.1567
    104  C          4.3070   86.5430   55.8690 C.2   188  GLU188      0.2260
    105  O          5.3470   87.1650   55.7680 O.2   188  GLU188     -0.2867
    106  CB         4.3460   84.1600   56.6430 C.3   188  GLU188      0.0388
    107  CG         4.7820   83.1970   57.7550 C.3   188  GLU188      0.1160
    108  CD         4.9250   81.7400   57.2690 C.2   188  GLU188      0.3649
    109  OE1        4.8840   81.4950   56.0370 O.co2 188  GLU188     -0.2457
    110  OE2        5.0700   80.8360   58.1260 O.co2 188  GLU188     -0.2457
    111  N         -7.8120   68.4560   63.9160 N.3   224  LEU224     -0.1231
    112  CA        -6.3980   68.6400   63.6130 C.3   224  LEU224      0.1693
    113  C         -6.1670   70.0670   63.1320 C.2   224  LEU224      0.2591
    114  O         -5.3300   70.7920   63.6750 O.2   224  LEU224     -0.2718
    115  CB        -5.9460   67.6370   62.5570 C.3   224  LEU224      0.0284
    116  CG        -4.5630   66.9990   62.6480 C.3   224  LEU224      0.0019
    117  CD1       -4.5120   65.8500   61.6640 C.3   224  LEU224      0.0001
    118  CD2       -3.4520   67.9960   62.3670 C.3   224  LEU224      0.0001
    119  N         -6.9270   70.4830   62.1250 N.am  225  ILE225     -0.1980
    120  CA        -6.7600   71.8290   61.5830 C.3   225  ILE225      0.1595
    121  C         -7.1280   72.8530   62.6310 C.2   225  ILE225      0.2287
    122  O         -6.4690   73.8820   62.7470 O.2   225  ILE225     -0.2864
    123  CB        -7.6150   72.0760   60.3380 C.3   225  ILE225      0.0276
    124  CG1       -7.3110   71.0510   59.2510 C.3   225  ILE225      0.0022
    125  CG2       -7.4030   73.4860   59.8270 C.3   225  ILE225      0.0022
    126  CD1       -8.3340   71.0400   58.1810 C.3   225  ILE225      0.0001
    127  N         -4.2520   73.4720   64.8600 N.3   228  LEU228     -0.1245
    128  CA        -3.1690   74.2830   64.2940 C.3   228  LEU228      0.1561
    129  C         -3.5710   75.7500   64.2780 C.2   228  LEU228      0.2260
    130  O         -2.7330   76.6310   64.4670 O.2   228  LEU228     -0.2867
    131  CB        -2.8000   73.8230   62.8830 C.3   228  LEU228      0.0270
    132  CG        -2.3760   72.3700   62.6870 C.3   228  LEU228      0.0019
    133  CD1       -2.3840   72.0160   61.2090 C.3   228  LEU228      0.0001
    134  CD2       -1.0170   72.1100   63.2910 C.3   228  LEU228      0.0001
    135  N         -2.5700   76.7420   67.8260 N.3   231  ASP231     -0.1225
    136  CA        -1.1600   76.8680   68.0650 C.3   231  ASP231      0.1805
    137  C         -0.6140   78.1290   67.4640 C.2   231  ASP231      0.2597
    138  O          0.1990   78.7860   68.0590 O.2   231  ASP231     -0.2718
    139  CB        -0.4450   75.6910   67.4320 C.3   231  ASP231      0.1424
    140  CG        -0.8070   74.3860   68.0590 C.2   231  ASP231      0.3668
    141  OD1       -1.4800   74.3860   69.0800 O.co2 231  ASP231     -0.2456
    142  OD2       -0.4080   73.3420   67.5440 O.co2 231  ASP231     -0.2456
    143  N         -1.0460   78.4570   66.2640 N.am  232  ASN232     -0.1974
    144  CA        -0.6050   79.6710   65.6350 C.3   232  ASN232      0.1688
    145  C         -1.0600   80.8410   66.4180 C.2   232  ASN232      0.2292
    146  O         -0.3140   81.7480   66.6610 O.2   232  ASN232     -0.2864
    147  CB        -1.1900   79.7950   64.2470 C.3   232  ASN232      0.1181
    148  CG        -0.4870   78.9400   63.2340 C.2   232  ASN232      0.2629
    149  OD1        0.3710   78.1570   63.5580 O.2   232  ASN232     -0.2716
    150  ND2       -0.8650   79.0870   62.0030 N.am  232  ASN232     -0.0877
    151  N          0.8470   81.4200   69.2830 N.3   235  LEU235     -0.1231
    152  CA         2.1750   81.8460   68.9400 C.3   235  LEU235      0.1693
    153  C          2.1260   83.2670   68.5330 C.2   235  LEU235      0.2592
    154  O          2.9290   84.0610   68.9470 O.2   235  LEU235     -0.2718
    155  CB         2.6930   81.0250   67.7810 C.3   235  LEU235      0.0284
    156  CG         4.1490   81.1960   67.3880 C.3   235  LEU235      0.0019
    157  CD1        4.7010   79.8880   66.8740 C.3   235  LEU235      0.0001
    158  CD2        4.2420   82.2380   66.3030 C.3   235  LEU235      0.0001
    159  N          1.1560   83.5890   67.7120 N.am  236  TRP236     -0.1976
    160  CA         1.0970   84.9120   67.1540 C.3   236  TRP236      0.1640
    161  C          0.8440   85.9950   68.1770 C.2   236  TRP236      0.2290
    162  O          1.4730   87.0340   68.1380 O.2   236  TRP236     -0.2864
    163  CB         0.1120   84.9590   66.0080 C.3   236  TRP236      0.0576
    164  CG         0.6010   84.1980   64.8550 C.ar  236  TRP236      0.0006
    165  CD1        1.8570   83.7740   64.6480 C.ar  236  TRP236      0.0946
    166  CD2       -0.1550   83.7580   63.7500 C.ar  236  TRP236      0.0152
    167  NE1        1.9400   83.0980   63.4850 N.ar  236  TRP236     -0.2442
    168  CE2        0.7060   83.0760   62.9100 C.ar  236  TRP236      0.0810
    169  CE3       -1.4830   83.8810   63.3850 C.ar  236  TRP236      0.0012
    170  CZ2        0.2880   82.5200   61.7350 C.ar  236  TRP236      0.0191
    171  CZ3       -1.8880   83.3300   62.2310 C.ar  236  TRP236      0.0001
    172  CH2       -1.0170   82.6550   61.4170 C.ar  236  TRP236      0.0015
@<TRIPOS>BOND
     1    36    37    1
     2     8     9    1
     3    58    59    2
     4    58    57    1
     5    45    46    1
     6    60    57    1
     7    60    61    1
     8    38    37    1
     9    38    39    2
    10     1     2    1
    11     3     4    2
    12     3     2    1
    13    63    61   ar
    14    63    65   ar
    15    19    20    2
    16    19    18    1
    17    37    40    1
    18    57    56    1
    19    56    47   am
    20     9    10    1
    21     9    12    1
    22     2     5    1
    23    61    62   ar
    24    17    10   am
    25    17    18    1
    26    46    47    1
    27    46    49    1
    28    47    48    2
    29    65    66   ar
    30    10    11    2
    31    18    21    1
    32     5     6    1
    33     5     7    1
    34    21    22    1
    35    40    41    1
    36    12    13    1
    37    25    26    1
    38    62    64   ar
    39    49    50    1
    40    30    31    1
    41    30    29    1
    42    66    64   ar
    43    66    67    1
    44    24    22   am
    45    22    23    2
    46    41    42    1
    47    31    32    1
    48    26    29    1
    49    26    27    1
    50    13    14    1
    51    14    15    1
    52    50    51    1
    53    42    43    1
    54    32    33    2
    55    44    43    1
    56    27    28    2
    57    15    16    1
    58    52    51    1
    59    52    53    2
    60    33    34    1
    61    33    35    1
    62    55    53    1
    63    53    54    1
    64    94    92   am
    65    91    92    1
    66    91    88    1
    67    92    93    2
    68    90    89    2
    69    89    88    1
    70    88    87    1
    71    77    78    2
    72    77    76    1
    73    70    71    2
    74    70    69    1
    75   105   104    2
    76   104   103    1
    77   109   108   ar
    78    76    75    1
    79    87    81   am
    80    97    98    2
    81    97    96    1
    82    72    69    1
    83    72    73    1
    84   106   103    1
    85   106   107    1
    86    69    68    1
    87   100    99    1
    88    74    68    1
    89    74    73    1
    90   103   102    1
    91    99    96    1
    92    99   101    1
    93   108   107    1
    94   108   110   ar
    95    81    82    2
    96    81    80    1
    97    96    95    1
    98    79    80    1
    99   126   124    1
   100    80    83    1
   101    83    84    1
   102    84    86    1
   103    84    85    1
   104   124   123    1
   105   125   123    1
   106   123   120    1
   107   133   132    1
   108   172   170   ar
   109   172   171   ar
   110   120   119    1
   111   120   121    1
   112   117   116    1
   113   170   168   ar
   114   150   148   am
   115   119   113   am
   116   171   169   ar
   117   118   116    1
   118   115   116    1
   119   115   112    1
   120   121   122    2
   121   132   131    1
   122   132   134    1
   123   131   128    1
   124   168   167   ar
   125   168   166   ar
   126   113   112    1
   127   113   114    2
   128   148   149    2
   129   148   147    1
   130   169   166   ar
   131   167   165   ar
   132   112   111    1
   133   166   164   ar
   134   147   144    1
   135   129   128    1
   136   129   130    2
   137   128   127    1
   138   165   164   ar
   139   164   163    1
   140   144   143    1
   141   144   145    1
   142   163   160    1
   143   143   137   am
   144   158   156    1
   145   145   146    2
   146   157   156    1
   147   160   159    1
   148   160   161    1
   149   156   155    1
   150   139   140    1
   151   139   136    1
   152   137   138    2
   153   137   136    1
   154   142   140   ar
   155   159   153   am
   156   155   152    1
   157   135   136    1
   158   140   141   ar
   159   162   161    2
   160   153   152    1
   161   153   154    2
   162   152   151    1
