@<TRIPOS>MOLECULE
tmp/5d3fB00.pdb
 164 153 0 0 0
SMALL
GASTEIGER

@<TRIPOS>ATOM
      1  N         17.1260  -22.9570   26.9140 N.3    10  LYS10      -0.1245
      2  CA        15.7970  -23.2190   27.4460 C.3    10  LYS10       0.1561
      3  C         15.9040  -23.5390   28.9280 C.2    10  LYS10       0.2260
      4  O         15.0830  -23.1000   29.7230 O.2    10  LYS10      -0.2867
      5  CB        15.1350  -24.3950   26.7200 C.3    10  LYS10       0.0271
      6  CG        14.7460  -24.1430   25.2740 C.3    10  LYS10       0.0035
      7  CD        13.9530  -25.3160   24.7490 C.3    10  LYS10       0.0206
      8  CE        13.3600  -25.0470   23.3810 C.3    10  LYS10       0.1093
      9  NZ        12.6400  -26.2610   22.8400 N.3    10  LYS10      -0.1314
     10  N         16.4100  -20.3850   30.9240 N.3    13  GLU13      -0.1245
     11  CA        15.1750  -19.6320   30.9240 C.3    13  GLU13       0.1567
     12  C         14.2610  -20.0610   32.0530 C.2    13  GLU13       0.2260
     13  O         13.6850  -19.2360   32.7620 O.2    13  GLU13      -0.2867
     14  CB        14.4300  -19.8200   29.6150 C.3    13  GLU13       0.0388
     15  CG        13.2670  -18.8850   29.5220 C.3    13  GLU13       0.1160
     16  CD        12.3360  -19.2590   28.4190 C.2    13  GLU13       0.3649
     17  OE1       12.6580  -20.2430   27.7230 O.co2  13  GLU13      -0.2457
     18  OE2       11.3100  -18.5540   28.2280 O.co2  13  GLU13      -0.2457
     19  N         12.4010  -20.1720   16.3970 N.3    38  GLU38      -0.1245
     20  CA        12.5170  -20.4630   17.8250 C.3    38  GLU38       0.1567
     21  C         13.6880  -19.7420   18.4860 C.2    38  GLU38       0.2260
     22  O         13.5530  -19.0850   19.5240 O.2    38  GLU38      -0.2867
     23  CB        12.7270  -21.9570   18.0570 C.3    38  GLU38       0.0388
     24  CG        12.4920  -22.3670   19.5040 C.3    38  GLU38       0.1160
     25  CD        12.5940  -23.8680   19.7310 C.2    38  GLU38       0.3649
     26  OE1       13.3640  -24.5310   18.9970 O.co2  38  GLU38      -0.2457
     27  OE2       11.8590  -24.3950   20.6020 O.co2  38  GLU38      -0.2457
     28  N         15.4930  -17.1720   17.6150 N.3    40  ARG40      -0.1231
     29  CA        15.3800  -15.7290   17.7250 C.3    40  ARG40       0.1694
     30  C         14.5940  -15.3730   18.9610 C.2    40  ARG40       0.2592
     31  O         15.0080  -14.5290   19.7550 O.2    40  ARG40      -0.2718
     32  CB        14.6460  -15.1230   16.5420 C.3    40  ARG40       0.0321
     33  CG        15.0420  -15.6060   15.2090 C.3    40  ARG40       0.0489
     34  CD        14.2320  -14.8740   14.1870 C.3    40  ARG40       0.2205
     35  NE        12.8230  -14.8150   14.5560 N.pl3  40  ARG40      -0.0865
     36  CZ        11.8420  -15.1080   13.7090 C.cat  40  ARG40       0.5346
     37  NH1       12.1540  -15.4760   12.4660 N.pl3  40  ARG40       0.1354
     38  NH2       10.5680  -15.0400   14.0950 N.pl3  40  ARG40       0.1354
     39  N         13.4330  -16.0120   19.0970 N.am   41  ASN41      -0.1960
     40  CA        12.5640  -15.7350   20.2220 C.3    41  ASN41       0.1819
     41  C         13.3360  -15.8760   21.5210 C.2    41  ASN41       0.2621
     42  O         13.3220  -14.9610   22.3500 O.2    41  ASN41      -0.2715
     43  CB        11.3360  -16.6550   20.2320 C.3    41  ASN41       0.1195
     44  CG        10.4080  -16.4180   19.0500 C.2    41  ASN41       0.2630
     45  OD1       10.6720  -15.5680   18.1980 O.2    41  ASN41      -0.2716
     46  ND2        9.2940  -17.1600   19.0070 N.am   41  ASN41      -0.0877
     47  N         14.0410  -16.9980   21.6740 N.am   42  LEU42      -0.1977
     48  CA        14.8630  -17.2390   22.8550 C.3    42  LEU42       0.1596
     49  C         15.9000  -16.1500   23.0420 C.2    42  LEU42       0.2287
     50  O         16.1730  -15.7240   24.1670 O.2    42  LEU42      -0.2864
     51  CB        15.5660  -18.5950   22.7620 C.3    42  LEU42       0.0297
     52  CG        14.6790  -19.8380   22.8370 C.3    42  LEU42       0.0022
     53  CD1       15.4700  -21.0670   22.4400 C.3    42  LEU42       0.0001
     54  CD2       14.1020  -19.9950   24.2230 C.3    42  LEU42       0.0001
     55  N         15.6220  -12.9580   21.8890 N.3    44  SER44      -0.1202
     56  CA        14.9290  -11.7290   22.2270 C.3    44  SER44       0.2020
     57  C         14.5060  -11.7840   23.6760 C.2    44  SER44       0.2618
     58  O         14.6480  -10.7960   24.4130 O.2    44  SER44      -0.2717
     59  CB        13.7240  -11.4790   21.3090 C.3    44  SER44       0.2103
     60  OG        12.6950  -12.4230   21.5190 O.3    44  SER44      -0.2182
     61  N         13.9710  -12.9290   24.0850 N.am   45  VAL45      -0.1979
     62  CA        13.4940  -13.0860   25.4590 C.3    45  VAL45       0.1595
     63  C         14.6550  -13.0150   26.4460 C.2    45  VAL45       0.2287
     64  O         14.5590  -12.3960   27.5130 O.2    45  VAL45      -0.2864
     65  CB        12.7040  -14.4080   25.6350 C.3    45  VAL45       0.0276
     66  CG1       12.2990  -14.5950   27.0750 C.3    45  VAL45       0.0022
     67  CG2       11.4790  -14.3710   24.7760 C.3    45  VAL45       0.0022
     68  N         15.8940   -9.4680   26.5990 N.3    48  LYS48      -0.1245
     69  CA        14.8440   -8.5700   27.0740 C.3    48  LYS48       0.1561
     70  C         14.8100   -8.6080   28.6000 C.2    48  LYS48       0.2260
     71  O         14.6690   -7.5830   29.2470 O.2    48  LYS48      -0.2867
     72  CB        13.4830   -8.9140   26.4550 C.3    48  LYS48       0.0271
     73  CG        12.4400   -7.8240   26.6250 C.3    48  LYS48       0.0035
     74  CD        11.1670   -8.0850   25.7940 C.3    48  LYS48       0.0206
     75  CE        10.8530   -6.8920   24.8470 C.3    48  LYS48       0.1093
     76  NZ        10.3440   -7.2930   23.4660 N.3    48  LYS48      -0.1314
     77  N         11.9940   -8.4680   12.2520 N.3   112  PHE112     -0.1241
     78  CA        12.2450   -8.8560   13.6360 C.3   112  PHE112      0.1605
     79  C         13.5560   -8.2350   14.1390 C.2   112  PHE112      0.2264
     80  O         13.5870   -7.5470   15.1540 O.2   112  PHE112     -0.2867
     81  CB        12.2780  -10.3880   13.7370 C.3   112  PHE112      0.0534
     82  CG        12.4880  -10.9250   15.1270 C.ar  112  PHE112     -0.0203
     83  CD1       13.7290  -10.8780   15.7250 C.ar  112  PHE112     -0.0042
     84  CD2       11.4520  -11.5320   15.8050 C.ar  112  PHE112     -0.0042
     85  CE1       13.9290  -11.3810   16.9900 C.ar  112  PHE112     -0.0003
     86  CE2       11.6350  -12.0520   17.0790 C.ar  112  PHE112     -0.0003
     87  CZ        12.8820  -11.9800   17.6700 C.ar  112  PHE112     -0.0000
     88  N         13.5210   -4.4940   14.3850 N.3   115  LYS115     -0.1231
     89  CA        12.7390   -4.0280   15.5240 C.3   115  LYS115      0.1693
     90  C         13.5530   -4.1050   16.8090 C.2   115  LYS115      0.2591
     91  O         13.4110   -3.2830   17.7130 O.2   115  LYS115     -0.2718
     92  CB        11.4730   -4.8700   15.6880 C.3   115  LYS115      0.0285
     93  CG        10.6900   -4.5690   16.9530 C.3   115  LYS115      0.0035
     94  CD         9.6700   -5.6300   17.1910 C.3   115  LYS115      0.0206
     95  CE         9.2130   -5.6740   18.6550 C.3   115  LYS115      0.1093
     96  NZ        10.2520   -5.5200   19.7330 N.3   115  LYS115     -0.1314
     97  N         14.3950   -5.1270   16.8910 N.am  116  MET116     -0.1979
     98  CA        15.3150   -5.2970   18.0110 C.3   116  MET116      0.1605
     99  C         16.2450   -4.0910   18.0750 C.2   116  MET116      0.2287
    100  O         16.4700   -3.5100   19.1410 O.2   116  MET116     -0.2864
    101  CB        16.1110   -6.5890   17.8390 C.3   116  MET116      0.0413
    102  CG        15.4800   -7.7540   18.5630 C.3   116  MET116      0.0598
    103  SD        16.4020   -9.3100   18.7080 S.3   116  MET116     -0.1393
    104  CE        17.4890   -8.9180   20.0540 C.3   116  MET116      0.0692
    105  N         14.6150   -1.0810   19.3180 N.3   119  ASP119     -0.1239
    106  CA        14.3780   -1.2790   20.7390 C.3   119  ASP119      0.1674
    107  C         15.6020   -1.0030   21.6000 C.2   119  ASP119      0.2266
    108  O         15.5310   -0.2550   22.5720 O.2   119  ASP119     -0.2867
    109  CB        13.9420   -2.7130   21.0220 C.3   119  ASP119      0.1410
    110  CG        12.5210   -2.9730   20.6540 C.2   119  ASP119      0.3668
    111  OD1       11.7260   -2.0120   20.5850 O.co2 119  ASP119     -0.2456
    112  OD2       12.1960   -4.1590   20.4860 O.co2 119  ASP119     -0.2456
    113  N          2.1540  -11.0190   14.3160 N.3   160  PRO160     -0.2102
    114  CA         2.6290  -10.7030   15.6670 C.3   160  PRO160      0.1504
    115  C          3.8450   -9.8100   15.6270 C.2   160  PRO160      0.2575
    116  O          4.0020   -8.9390   16.4550 O.2   160  PRO160     -0.2718
    117  CB         3.0030  -12.0740   16.2320 C.3   160  PRO160      0.0282
    118  CG         2.2000  -13.0040   15.4660 C.3   160  PRO160      0.0208
    119  CD         2.0750  -12.4670   14.0920 C.3   160  PRO160      0.0893
    120  N          4.7260  -10.0500   14.6790 N.am  161  ILE161     -0.1980
    121  CA         5.9320   -9.2530   14.6110 C.3   161  ILE161      0.1595
    122  C          5.6360   -7.8150   14.1310 C.2   161  ILE161      0.2287
    123  O          6.0760   -6.8610   14.7560 O.2   161  ILE161     -0.2864
    124  CB         6.9800   -9.9300   13.7160 C.3   161  ILE161      0.0276
    125  CG1        7.4360  -11.2540   14.3650 C.3   161  ILE161      0.0022
    126  CG2        8.1360   -8.9880   13.4550 C.3   161  ILE161      0.0022
    127  CD1        8.6660  -11.8720   13.7060 C.3   161  ILE161      0.0001
    128  N          3.9790   -6.0510   17.0190 N.3   164  GLY164     -0.1225
    129  CA         4.9140   -5.7780   18.1000 C.3   164  GLY164      0.1811
    130  C          5.7140   -4.5490   17.7330 C.2   164  GLY164      0.2280
    131  O          5.9870   -3.6780   18.5550 O.2   164  GLY164     -0.2866
    132  N         -3.2110  -16.1320   19.6260 N.3   207  LYS207     -0.1231
    133  CA        -3.2000  -15.5170   20.9410 C.3   207  LYS207      0.1693
    134  C         -2.0850  -14.4990   21.0850 C.2   207  LYS207      0.2592
    135  O         -2.2650  -13.4810   21.7460 O.2   207  LYS207     -0.2718
    136  CB        -3.1050  -16.5820   22.0350 C.3   207  LYS207      0.0285
    137  CG        -4.4670  -16.9960   22.5450 C.3   207  LYS207      0.0035
    138  CD        -4.4240  -18.3210   23.2420 C.3   207  LYS207      0.0206
    139  CE        -4.5390  -19.4510   22.2390 C.3   207  LYS207      0.1093
    140  NZ        -5.0420  -20.7260   22.8530 N.3   207  LYS207     -0.1314
    141  N         -0.9250  -14.7610   20.5000 N.am  208  ASP208     -0.1974
    142  CA         0.1680  -13.7900   20.5920 C.3   208  ASP208      0.1709
    143  C         -0.1760  -12.5010   19.8510 C.2   208  ASP208      0.2293
    144  O          0.1650  -11.4180   20.3160 O.2   208  ASP208     -0.2864
    145  CB         1.5040  -14.3770   20.1030 C.3   208  ASP208      0.1436
    146  CG         1.4960  -14.7780   18.6440 C.2   208  ASP208      0.3671
    147  OD1        0.4080  -14.9470   18.0490 O.co2 208  ASP208     -0.2456
    148  OD2        2.6100  -14.9390   18.0870 O.co2 208  ASP208     -0.2456
    149  N         -2.8970  -10.6550   21.8990 N.3   211  LEU211     -0.1231
    150  CA        -2.2650  -10.0960   23.0930 C.3   211  LEU211      0.1693
    151  C         -1.6730   -8.7090   22.8220 C.2   211  LEU211      0.2591
    152  O         -1.9520   -7.7610   23.5630 O.2   211  LEU211     -0.2718
    153  CB        -1.1920  -11.0490   23.6250 C.3   211  LEU211      0.0284
    154  CG        -0.2420  -10.4780   24.6710 C.3   211  LEU211      0.0019
    155  CD1       -0.9830  -10.0300   25.9020 C.3   211  LEU211      0.0001
    156  CD2        0.7460  -11.5500   25.0580 C.3   211  LEU211      0.0001
    157  N         -0.8940   -8.5860   21.7470 N.am  212  ILE212     -0.1980
    158  CA        -0.2810   -7.3070   21.3830 C.3   212  ILE212      0.1595
    159  C         -1.3230   -6.2540   21.0050 C.2   212  ILE212      0.2287
    160  O         -1.1890   -5.0790   21.3430 O.2   212  ILE212     -0.2864
    161  CB         0.6920   -7.4640   20.2120 C.3   212  ILE212      0.0276
    162  CG1        1.8380   -8.3940   20.5990 C.3   212  ILE212      0.0022
    163  CG2        1.2890   -6.1350   19.8380 C.3   212  ILE212      0.0022
    164  CD1        2.7780   -8.6820   19.4310 C.3   212  ILE212      0.0001
@<TRIPOS>BOND
     1    77    78    1
     2    37    36    1
     3   126   124    1
     4    78    81    1
     5    78    79    1
     6   127   125    1
     7    36    38    1
     8    36    35    2
     9   124   125    1
    10   124   121    1
    11    81    82    1
    12   119   113    1
    13   119   118    1
    14   122   121    1
    15   122   123    2
    16    79    80    2
    17    34    35    1
    18    34    33    1
    19   113   114    1
    20    88    89    1
    21   121   120    1
    22   120   115   am
    23    82    83   ar
    24    82    84   ar
    25    33    32    1
    26   118   117    1
    27    89    92    1
    28    89    90    1
    29   115   114    1
    30   115   116    2
    31   114   117    1
    32    92    93    1
    33    83    85   ar
    34    84    86   ar
    35    19    20    1
    36    32    29    1
    37    90    97   am
    38    90    91    2
    39    97    98    1
    40    93    94    1
    41    85    87   ar
    42   128   129    1
    43    86    87   ar
    44    94    95    1
    45    28    29    1
    46    29    30    1
    47   130   129    1
    48   130   131    2
    49    20    23    1
    50    20    21    1
    51   101    98    1
    52   101   102    1
    53    98    99    1
    54   147   146   ar
    55    23    24    1
    56    99   100    2
    57   148   146   ar
    58    45    44    2
    59    21    22    2
    60   102   103    1
    61   146   145    1
    62    95    96    1
    63   103   104    1
    64    30    39   am
    65    30    31    2
    66    26    25   ar
    67    46    44   am
    68    44    43    1
    69    39    40    1
    70   105   106    1
    71   164   162    1
    72    24    25    1
    73   132   133    1
    74    25    27   ar
    75   163   161    1
    76   143   144    2
    77   143   142    1
    78   145   142    1
    79   161   162    1
    80   161   158    1
    81    40    43    1
    82    40    41    1
    83   112   110   ar
    84   141   142    1
    85   141   134   am
    86   111   110   ar
    87   110   109    1
    88   106   109    1
    89   106   107    1
    90   133   134    1
    91   133   136    1
    92   159   160    2
    93   159   158    1
    94   134   135    2
    95    59    60    1
    96    59    56    1
    97   158   157    1
    98    41    47   am
    99    41    42    2
   100   107   108    2
   101    47    48    1
   102   157   151   am
   103    55    56    1
   104   149   150    1
   105   136   137    1
   106    56    57    1
   107   139   140    1
   108   139   138    1
   109    53    52    1
   110   137   138    1
   111    51    52    1
   112    51    48    1
   113   151   150    1
   114   151   152    2
   115    52    54    1
   116     9     8    1
   117    48    49    1
   118    49    50    2
   119   150   153    1
   120     8     7    1
   121    76    75    1
   122   153   154    1
   123    57    61   am
   124    57    58    2
   125    61    62    1
   126   154   156    1
   127   154   155    1
   128     7     6    1
   129    67    65    1
   130    75    74    1
   131     6     5    1
   132    62    65    1
   133    62    63    1
   134    65    66    1
   135    74    73    1
   136    63    64    2
   137    72    73    1
   138    72    69    1
   139    68    69    1
   140     5     2    1
   141     1     2    1
   142    69    70    1
   143     2     3    1
   144    17    16   ar
   145    18    16   ar
   146    16    15    1
   147    70    71    2
   148     3     4    2
   149    15    14    1
   150    14    11    1
   151    11    10    1
   152    11    12    1
   153    12    13    2
