@<TRIPOS>MOLECULE
tmp/5d3iA01.pdb
 106 97 0 0 0
SMALL
GASTEIGER

@<TRIPOS>ATOM
      1  N         15.3390   39.4760  -26.4300 N.3   369  SER369     -0.1217
      2  CA        16.5410   38.7900  -26.8670 C.3   369  SER369      0.1889
      3  C         16.2210   37.5550  -27.6940 C.2   369  SER369      0.2288
      4  O         15.2160   36.8970  -27.4790 O.2   369  SER369     -0.2866
      5  CB        17.3960   38.4070  -25.6640 C.3   369  SER369      0.2089
      6  OG        18.5860   37.7700  -26.0770 O.3   369  SER369     -0.2183
      7  N         16.5570   45.0260  -23.7730 N.3   393  ASP393     -0.1239
      8  CA        17.4780   43.9720  -24.1700 C.3   393  ASP393      0.1674
      9  C         17.0560   43.4180  -25.5090 C.2   393  ASP393      0.2266
     10  O         16.0570   42.7120  -25.5970 O.2   393  ASP393     -0.2867
     11  CB        17.5020   42.8540  -23.1240 C.3   393  ASP393      0.1410
     12  CG        18.4190   41.6930  -23.5040 C.2   393  ASP393      0.3668
     13  OD1       19.0120   41.7140  -24.5970 O.co2 393  ASP393     -0.2456
     14  OD2       18.5430   40.7400  -22.7030 O.co2 393  ASP393     -0.2456
     15  N         19.4510   41.7850  -27.4530 N.3   395  SER395     -0.1202
     16  CA        20.6040   40.9690  -27.7580 C.3   395  SER395      0.2020
     17  C         20.1920   39.7420  -28.5370 C.2   395  SER395      0.2618
     18  O         19.0190   39.4150  -28.6000 O.2   395  SER395     -0.2717
     19  CB        21.3070   40.5490  -26.4780 C.3   395  SER395      0.2103
     20  OG        20.4340   39.7750  -25.6770 O.3   395  SER395     -0.2182
     21  N         21.1620   39.1050  -29.1800 N.am  396  ARG396     -0.1979
     22  CA        20.9190   37.8910  -29.9500 C.3   396  ARG396      0.1597
     23  C         19.9090   38.0790  -31.0730 C.2   396  ARG396      0.2287
     24  O         19.1790   37.1570  -31.4270 O.2   396  ARG396     -0.2864
     25  CB        20.5060   36.7500  -29.0190 C.3   396  ARG396      0.0334
     26  CG        21.6200   36.3550  -28.0620 C.3   396  ARG396      0.0492
     27  CD        21.2820   35.1410  -27.2160 C.3   396  ARG396      0.2205
     28  NE        20.1580   35.3980  -26.3200 N.pl3 396  ARG396     -0.0865
     29  CZ        19.4470   34.4530  -25.7150 C.cat 396  ARG396      0.5346
     30  NH1       19.7420   33.1740  -25.9010 N.pl3 396  ARG396      0.1354
     31  NH2       18.4440   34.7860  -24.9180 N.pl3 396  ARG396      0.1354
     32  N         19.2530   51.8040  -20.0920 N.3   414  PHE414     -0.1241
     33  CA        19.9230   50.5100  -20.1970 C.3   414  PHE414      0.1605
     34  C         19.6390   49.8790  -21.5530 C.2   414  PHE414      0.2264
     35  O         18.4870   49.7400  -21.9450 O.2   414  PHE414     -0.2867
     36  CB        19.4610   49.6050  -19.0500 C.3   414  PHE414      0.0534
     37  CG        19.9840   48.2000  -19.1150 C.ar  414  PHE414     -0.0203
     38  CD1       19.4100   47.2630  -19.9530 C.ar  414  PHE414     -0.0042
     39  CD2       21.0560   47.8190  -18.3390 C.ar  414  PHE414     -0.0042
     40  CE1       19.8900   45.9830  -20.0120 C.ar  414  PHE414     -0.0003
     41  CE2       21.5420   46.5420  -18.3990 C.ar  414  PHE414     -0.0003
     42  CZ        20.9560   45.6210  -19.2380 C.ar  414  PHE414     -0.0000
     43  N         20.9700   46.5300  -24.1330 N.3   416  ASN416     -0.1240
     44  CA        21.7890   45.3550  -24.4050 C.3   416  ASN416      0.1653
     45  C         21.7950   45.0660  -25.8970 C.2   416  ASN416      0.2266
     46  O         20.7750   44.6830  -26.4580 O.2   416  ASN416     -0.2867
     47  CB        21.2460   44.1330  -23.6480 C.3   416  ASN416      0.1155
     48  CG        22.2440   42.9740  -23.5720 C.2   416  ASN416      0.2627
     49  OD1       23.0840   42.8070  -24.4480 O.2   416  ASN416     -0.2716
     50  ND2       22.1200   42.1460  -22.5350 N.am  416  ASN416     -0.0877
     51  N         24.2830   42.9950  -27.1700 N.3   418  SER418     -0.1202
     52  CA        25.2190   41.8940  -27.2430 C.3   418  SER418      0.2020
     53  C         24.8140   40.9290  -28.3390 C.2   418  SER418      0.2619
     54  O         23.6360   40.7100  -28.5750 O.2   418  SER418     -0.2717
     55  CB        25.3100   41.1670  -25.9070 C.3   418  SER418      0.2103
     56  OG        26.1350   40.0240  -26.0190 O.3   418  SER418     -0.2182
     57  N         25.8020   40.3670  -29.0170 N.am  419  SER419     -0.1951
     58  CA        25.5590   39.3960  -30.0690 C.3   419  SER419      0.1924
     59  C         24.5580   39.8290  -31.1280 C.2   419  SER419      0.2314
     60  O         23.5850   39.1320  -31.3770 O.2   419  SER419     -0.2863
     61  CB        25.0820   38.0840  -29.4550 C.3   419  SER419      0.2116
     62  OG        25.9310   37.6940  -28.3980 O.3   419  SER419     -0.2180
     63  N         23.8030   52.4270  -19.1010 N.3   435  VAL435     -0.1245
     64  CA        24.4030   51.1020  -19.2020 C.3   435  VAL435      0.1561
     65  C         24.2740   50.5830  -20.6270 C.2   435  VAL435      0.2260
     66  O         23.1830   50.5270  -21.1760 O.2   435  VAL435     -0.2867
     67  CB        23.7620   50.1010  -18.2280 C.3   435  VAL435      0.0252
     68  CG1       24.3590   48.7260  -18.4160 C.3   435  VAL435      0.0019
     69  CG2       23.9590   50.5520  -16.7990 C.3   435  VAL435      0.0019
     70  N         25.6070   47.3770  -23.2920 N.3   437  ASP437     -0.1239
     71  CA        26.2780   46.1090  -23.4930 C.3   437  ASP437      0.1674
     72  C         26.3520   45.8780  -24.9930 C.2   437  ASP437      0.2266
     73  O         25.3360   45.6480  -25.6380 O.2   437  ASP437     -0.2867
     74  CB        25.5220   44.9850  -22.7860 C.3   437  ASP437      0.1410
     75  CG        26.2630   43.6620  -22.8160 C.2   437  ASP437      0.3668
     76  OD1       27.1290   43.4720  -23.6870 O.co2 437  ASP437     -0.2456
     77  OD2       25.9740   42.8040  -21.9580 O.co2 437  ASP437     -0.2456
     78  N         28.7810   43.6230  -26.2380 N.3   439  SER439     -0.1217
     79  CA        29.6890   42.4910  -26.2450 C.3   439  SER439      0.1889
     80  C         29.3200   41.4420  -27.2780 C.2   439  SER439      0.2288
     81  O         28.2100   41.4220  -27.7890 O.2   439  SER439     -0.2866
     82  CB        29.7220   41.8430  -24.8660 C.3   439  SER439      0.2089
     83  OG        28.4630   41.2730  -24.5530 O.3   439  SER439     -0.2183
     84  N         29.9410   47.3470  -21.4900 N.3   457  TYR457     -0.1241
     85  CA        30.3300   45.9600  -21.6490 C.3   457  TYR457      0.1605
     86  C         30.5860   45.7440  -23.1180 C.2   457  TYR457      0.2264
     87  O         29.6690   45.7930  -23.9280 O.2   457  TYR457     -0.2867
     88  CB        29.2500   45.0260  -21.1250 C.3   457  TYR457      0.0534
     89  CG        28.8270   45.3590  -19.7190 C.ar  457  TYR457     -0.0201
     90  CD1       29.6850   45.1580  -18.6520 C.ar  457  TYR457     -0.0009
     91  CD2       27.5740   45.8810  -19.4580 C.ar  457  TYR457     -0.0009
     92  CE1       29.3050   45.4620  -17.3650 C.ar  457  TYR457      0.0417
     93  CE2       27.1860   46.1880  -18.1740 C.ar  457  TYR457      0.0417
     94  CZ        28.0540   45.9760  -17.1340 C.ar  457  TYR457      0.1957
     95  OH        27.6680   46.2860  -15.8560 O.3   457  TYR457     -0.2866
     96  N         34.6560   40.3830  -25.9490 N.3   460  ARG460     -0.1245
     97  CA        34.5140   39.5430  -27.1340 C.3   460  ARG460      0.1563
     98  C         34.1920   40.3940  -28.3530 C.2   460  ARG460      0.2260
     99  O         33.1520   40.2350  -28.9860 O.2   460  ARG460     -0.2867
    100  CB        33.4510   38.4640  -26.9390 C.3   460  ARG460      0.0307
    101  CG        33.7660   37.4970  -25.8220 C.3   460  ARG460      0.0489
    102  CD        32.8220   36.3110  -25.8250 C.3   460  ARG460      0.2205
    103  NE        31.4350   36.7200  -25.6330 N.pl3 460  ARG460     -0.0865
    104  CZ        30.4060   35.8780  -25.5950 C.cat 460  ARG460      0.5346
    105  NH1       30.6070   34.5730  -25.7350 N.pl3 460  ARG460      0.1354
    106  NH2       29.1760   36.3410  -25.4190 N.pl3 460  ARG460      0.1354
@<TRIPOS>BOND
     1    24    23    2
     2    60    59    2
     3    59    58    1
     4    23    22    1
     5    58    61    1
     6    58    57    1
     7    22    21    1
     8    22    25    1
     9    61    62    1
    10    21    17   am
    11    25    26    1
    12    57    53   am
    13    99    98    2
    14    18    17    2
    15    54    53    2
    16    17    16    1
    17    98    97    1
    18    53    52    1
    19    26    27    1
    20    81    80    2
    21    16    15    1
    22    16    19    1
    23     3     4    2
    24     3     2    1
    25    80    79    1
    26    52    51    1
    27    52    55    1
    28    27    28    1
    29    97   100    1
    30    97    96    1
    31   100   101    1
    32     2     1    1
    33     2     5    1
    34    19    20    1
    35    46    45    2
    36    28    29    2
    37    79    78    1
    38    79    82    1
    39     6     5    1
    40    56    55    1
    41    30    29    1
    42    45    44    1
    43   102   101    1
    44   102   103    1
    45   105   104    1
    46    29    31    1
    47    73    72    2
    48   103   104    2
    49    10     9    2
    50   104   106    1
    51     9     8    1
    52    72    71    1
    53    82    83    1
    54    13    12   ar
    55    49    48    2
    56    44    43    1
    57    44    47    1
    58     8     7    1
    59     8    11    1
    60    87    86    2
    61    76    75   ar
    62    47    48    1
    63    48    50   am
    64    12    11    1
    65    12    14   ar
    66    71    70    1
    67    71    74    1
    68    86    85    1
    69    75    74    1
    70    75    77   ar
    71    35    34    2
    72    85    84    1
    73    85    88    1
    74    34    33    1
    75    66    65    2
    76    88    89    1
    77    65    64    1
    78    33    32    1
    79    33    36    1
    80    40    38   ar
    81    40    42   ar
    82    38    37   ar
    83    89    91   ar
    84    89    90   ar
    85    91    93   ar
    86    42    41   ar
    87    64    63    1
    88    64    67    1
    89    37    36    1
    90    37    39   ar
    91    90    92   ar
    92    68    67    1
    93    41    39   ar
    94    67    69    1
    95    93    94   ar
    96    92    94   ar
    97    94    95    1
