@<TRIPOS>MOLECULE
tmp/5d3iA02.pdb
 243 229 0 0 0
SMALL
GASTEIGER

@<TRIPOS>ATOM
      1  N         -7.4240   23.5610  -16.7400 N.3   240  PHE240     -0.1241
      2  CA        -6.6200   24.7000  -16.3420 C.3   240  PHE240      0.1605
      3  C         -7.4670   25.5530  -15.4200 C.2   240  PHE240      0.2264
      4  O         -6.9850   26.0760  -14.4230 O.2   240  PHE240     -0.2867
      5  CB        -6.1460   25.5020  -17.5480 C.3   240  PHE240      0.0534
      6  CG        -5.3760   26.7330  -17.1870 C.ar  240  PHE240     -0.0203
      7  CD1       -4.1100   26.6260  -16.6550 C.ar  240  PHE240     -0.0042
      8  CD2       -5.9140   27.9880  -17.3570 C.ar  240  PHE240     -0.0042
      9  CE1       -3.3900   27.7390  -16.3230 C.ar  240  PHE240     -0.0003
     10  CE2       -5.1930   29.1090  -17.0180 C.ar  240  PHE240     -0.0003
     11  CZ        -3.9310   28.9800  -16.5010 C.ar  240  PHE240     -0.0000
     12  N         -6.8880   26.6720  -11.2330 N.3   244  LEU244     -0.1245
     13  CA        -6.9640   28.0270  -10.6920 C.3   244  LEU244      0.1561
     14  C         -7.8240   28.1110   -9.4370 C.2   244  LEU244      0.2260
     15  O         -7.6230   28.9800   -8.5940 O.2   244  LEU244     -0.2867
     16  CB        -7.4820   29.0020  -11.7440 C.3   244  LEU244      0.0270
     17  CG        -6.5570   29.1510  -12.9500 C.3   244  LEU244      0.0019
     18  CD1       -7.1210   30.1340  -13.9640 C.3   244  LEU244      0.0001
     19  CD2       -5.1720   29.5820  -12.4980 C.3   244  LEU244      0.0001
     20  N          3.8780   32.1110  -10.3210 N.3   256  VAL256     -0.1245
     21  CA         3.4330   30.8680  -10.9340 C.3   256  VAL256      0.1561
     22  C          4.2420   30.6210  -12.2000 C.2   256  VAL256      0.2260
     23  O          4.4770   31.5390  -12.9690 O.2   256  VAL256     -0.2867
     24  CB         1.9440   30.9230  -11.3170 C.3   256  VAL256      0.0252
     25  CG1        1.5010   29.5940  -11.8520 C.3   256  VAL256      0.0019
     26  CG2        1.1010   31.2590  -10.1360 C.3   256  VAL256      0.0019
     27  N          5.0170   27.7410  -15.5940 N.3   258  PHE258     -0.1241
     28  CA         4.5900   26.6040  -16.3780 C.3   258  PHE258      0.1605
     29  C          5.7270   26.3530  -17.3310 C.2   258  PHE258      0.2264
     30  O          5.9080   27.0690  -18.3040 O.2   258  PHE258     -0.2867
     31  CB         3.3110   26.9020  -17.1420 C.3   258  PHE258      0.0534
     32  CG         2.1210   27.1190  -16.2710 C.ar  258  PHE258     -0.0203
     33  CD1        1.3320   26.0640  -15.8780 C.ar  258  PHE258     -0.0042
     34  CD2        1.7970   28.3840  -15.8330 C.ar  258  PHE258     -0.0042
     35  CE1        0.2350   26.2720  -15.0830 C.ar  258  PHE258     -0.0003
     36  CE2        0.7010   28.5910  -15.0340 C.ar  258  PHE258     -0.0003
     37  CZ        -0.0780   27.5350  -14.6600 C.ar  258  PHE258     -0.0000
     38  N         -6.5710   36.4530   -9.7990 N.3   280  LEU280     -0.1245
     39  CA        -5.3310   35.7230   -9.6510 C.3   280  LEU280      0.1561
     40  C         -4.7170   36.0250   -8.3000 C.2   280  LEU280      0.2260
     41  O         -3.5560   35.7310   -8.0630 O.2   280  LEU280     -0.2867
     42  CB        -4.3580   36.0490  -10.7770 C.3   280  LEU280      0.0270
     43  CG        -3.5240   34.8330  -11.1780 C.3   280  LEU280      0.0019
     44  CD1       -4.4270   33.7530  -11.7160 C.3   280  LEU280      0.0001
     45  CD2       -2.4740   35.1950  -12.2040 C.3   280  LEU280      0.0001
     46  N          4.3920   35.8720  -13.3320 N.3   286  VAL286     -0.1245
     47  CA         3.9740   34.7100  -14.1100 C.3   286  VAL286      0.1561
     48  C          5.0920   34.3850  -15.0730 C.2   286  VAL286      0.2260
     49  O          5.5110   35.2380  -15.8350 O.2   286  VAL286     -0.2867
     50  CB         2.6860   34.9560  -14.8880 C.3   286  VAL286      0.0252
     51  CG1        2.3890   33.7810  -15.7790 C.3   286  VAL286      0.0019
     52  CG2        1.5390   35.1840  -13.9430 C.3   286  VAL286      0.0019
     53  N          6.3890   31.6730  -18.0300 N.3   288  ILE288     -0.1245
     54  CA         6.1080   30.5620  -18.9170 C.3   288  ILE288      0.1561
     55  C          7.2540   30.2550  -19.8590 C.2   288  ILE288      0.2260
     56  O          7.7730   31.1420  -20.5120 O.2   288  ILE288     -0.2867
     57  CB         4.8680   30.8460  -19.7630 C.3   288  ILE288      0.0252
     58  CG1        3.6470   31.0110  -18.8700 C.3   288  ILE288      0.0019
     59  CG2        4.6490   29.7420  -20.7540 C.3   288  ILE288      0.0019
     60  CD1        2.4460   31.5080  -19.6000 C.3   288  ILE288      0.0001
     61  N          5.9840   26.4870  -23.8510 N.3   291  LEU291     -0.1245
     62  CA         4.5930   26.0650  -23.8000 C.3   291  LEU291      0.1561
     63  C          4.1660   25.5940  -25.1780 C.2   291  LEU291      0.2260
     64  O          4.3530   26.3030  -26.1570 O.2   291  LEU291     -0.2867
     65  CB         3.6950   27.2090  -23.3370 C.3   291  LEU291      0.0270
     66  CG         2.1960   26.9480  -23.4360 C.3   291  LEU291      0.0019
     67  CD1        1.8090   25.9000  -22.4220 C.3   291  LEU291      0.0001
     68  CD2        1.3990   28.2120  -23.2290 C.3   291  LEU291      0.0001
     69  N          1.1470   24.5820  -27.7170 N.3   293  ILE293     -0.1245
     70  CA        -0.2790   24.5950  -28.0110 C.3   293  ILE293      0.1561
     71  C         -0.5090   23.9800  -29.3900 C.2   293  ILE293      0.2260
     72  O         -0.5920   24.6990  -30.3830 O.2   293  ILE293     -0.2867
     73  CB        -0.8600   26.0030  -27.9710 C.3   293  ILE293      0.0252
     74  CG1       -0.4230   26.7120  -26.6950 C.3   293  ILE293      0.0019
     75  CG2       -2.3720   25.9510  -28.0650 C.3   293  ILE293      0.0019
     76  CD1       -1.0150   28.0820  -26.5350 C.3   293  ILE293      0.0001
     77  N         -3.8940   25.4740  -31.5690 N.3   296  PHE296     -0.1227
     78  CA        -4.2960   26.8550  -31.3490 C.3   296  PHE296      0.1736
     79  C         -5.2540   27.3360  -32.4330 C.2   296  PHE296      0.2595
     80  O         -4.9440   28.2780  -33.1590 O.2   296  PHE296     -0.2718
     81  CB        -3.0520   27.7400  -31.3240 C.3   296  PHE296      0.0547
     82  CG        -3.1660   28.9350  -30.4350 C.ar  296  PHE296     -0.0202
     83  CD1       -4.3530   29.6290  -30.3270 C.ar  296  PHE296     -0.0042
     84  CD2       -2.0760   29.3590  -29.6970 C.ar  296  PHE296     -0.0042
     85  CE1       -4.4470   30.7290  -29.5050 C.ar  296  PHE296     -0.0003
     86  CE2       -2.1650   30.4590  -28.8740 C.ar  296  PHE296     -0.0003
     87  CZ        -3.3520   31.1430  -28.7730 C.ar  296  PHE296     -0.0000
     88  N         -6.4090   26.6950  -32.5620 N.am  297  TYR297     -0.1976
     89  CA        -7.3030   27.0170  -33.6670 C.3   297  TYR297      0.1639
     90  C         -8.6290   27.5580  -33.1800 C.2   297  TYR297      0.2290
     91  O         -8.9200   28.7420  -33.3160 O.2   297  TYR297     -0.2864
     92  CB        -7.5510   25.7840  -34.5400 C.3   297  TYR297      0.0560
     93  CG        -6.2910   25.0910  -34.9980 C.ar  297  TYR297     -0.0198
     94  CD1       -5.1300   25.8110  -35.2530 C.ar  297  TYR297     -0.0009
     95  CD2       -6.2600   23.7140  -35.1690 C.ar  297  TYR297     -0.0009
     96  CE1       -3.9740   25.1810  -35.6610 C.ar  297  TYR297      0.0417
     97  CE2       -5.1080   23.0740  -35.5820 C.ar  297  TYR297      0.0417
     98  CZ        -3.9680   23.8120  -35.8260 C.ar  297  TYR297      0.1957
     99  OH        -2.8160   23.1830  -36.2360 O.3   297  TYR297     -0.2866
    100  N        -10.2500   35.4600  -25.6810 N.3   302  LEU302     -0.1245
    101  CA        -9.1200   35.8070  -24.8370 C.3   302  LEU302      0.1561
    102  C         -9.4300   36.5300  -23.5480 C.2   302  LEU302      0.2260
    103  O         -8.5700   36.5900  -22.6800 O.2   302  LEU302     -0.2867
    104  CB        -8.1530   36.7190  -25.5890 C.3   302  LEU302      0.0270
    105  CG        -7.4750   36.4130  -26.9060 C.3   302  LEU302      0.0019
    106  CD1       -6.8560   37.6940  -27.4090 C.3   302  LEU302      0.0001
    107  CD2       -6.3880   35.4220  -26.6300 C.3   302  LEU302      0.0001
    108  N         -8.3120   35.5160  -19.8840 N.3   305  VAL305     -0.1245
    109  CA        -6.9180   35.8200  -19.6010 C.3   305  VAL305      0.1561
    110  C         -6.6790   37.2660  -19.2390 C.2   305  VAL305      0.2260
    111  O         -5.6670   37.6050  -18.6340 O.2   305  VAL305     -0.2867
    112  CB        -6.0430   35.4710  -20.8050 C.3   305  VAL305      0.0252
    113  CG1       -4.5960   35.3450  -20.3910 C.3   305  VAL305      0.0019
    114  CG2       -6.5170   34.1760  -21.4180 C.3   305  VAL305      0.0019
    115  N         -7.1150   37.5770  -15.5810 N.3   308  LEU308     -0.1231
    116  CA        -6.1050   36.7890  -14.8960 C.3   308  LEU308      0.1693
    117  C         -4.8070   37.5570  -14.7530 C.2   308  LEU308      0.2591
    118  O         -4.1560   37.5000  -13.7190 O.2   308  LEU308     -0.2718
    119  CB        -5.8500   35.4700  -15.6210 C.3   308  LEU308      0.0284
    120  CG        -6.9230   34.3860  -15.5460 C.3   308  LEU308      0.0019
    121  CD1       -6.5190   33.2040  -16.3920 C.3   308  LEU308      0.0001
    122  CD2       -7.1330   33.9520  -14.1150 C.3   308  LEU308      0.0001
    123  N         -4.4380   38.2760  -15.8070 N.am  309  LEU309     -0.1980
    124  CA        -3.1790   39.0120  -15.8390 C.3   309  LEU309      0.1596
    125  C         -3.3470   40.5010  -15.6080 C.2   309  LEU309      0.2287
    126  O         -2.4160   41.2690  -15.8190 O.2   309  LEU309     -0.2864
    127  CB        -2.4690   38.7870  -17.1740 C.3   309  LEU309      0.0297
    128  CG        -2.3950   37.3510  -17.6860 C.3   309  LEU309      0.0022
    129  CD1       -1.7190   37.3220  -19.0270 C.3   309  LEU309      0.0001
    130  CD2       -1.6270   36.4950  -16.7130 C.3   309  LEU309      0.0001
    131  N          5.9180   39.2900  -16.2270 N.3   315  ILE315     -0.1245
    132  CA         5.5420   38.2060  -17.1230 C.3   315  ILE315      0.1561
    133  C          6.7230   37.7430  -17.9510 C.2   315  ILE315      0.2260
    134  O          7.4570   38.5530  -18.4930 O.2   315  ILE315     -0.2867
    135  CB         4.4130   38.6410  -18.0780 C.3   315  ILE315      0.0252
    136  CG1        3.0930   38.7700  -17.3310 C.3   315  ILE315      0.0019
    137  CG2        4.2420   37.6490  -19.1980 C.3   315  ILE315      0.0019
    138  CD1        1.9690   39.2370  -18.2020 C.3   315  ILE315      0.0001
    139  N          7.6480   34.8600  -21.0260 N.3   317  VAL317     -0.1245
    140  CA         7.2100   33.8310  -21.9610 C.3   317  VAL317      0.1561
    141  C          8.3770   33.4980  -22.8740 C.2   317  VAL317      0.2260
    142  O          8.5760   34.1270  -23.9020 O.2   317  VAL317     -0.2867
    143  CB         6.0090   34.2680  -22.7980 C.3   317  VAL317      0.0252
    144  CG1        5.6270   33.1660  -23.7440 C.3   317  VAL317      0.0019
    145  CG2        4.8330   34.5740  -21.9110 C.3   317  VAL317      0.0019
    146  N          8.5020   29.9390  -26.6680 N.3   320  SER320     -0.1202
    147  CA         7.1460   29.4270  -26.8640 C.3   320  SER320      0.2020
    148  C          6.4960   29.8790  -28.1730 C.2   320  SER320      0.2619
    149  O          5.2770   29.9970  -28.2480 O.2   320  SER320     -0.2717
    150  CB         6.2660   29.8430  -25.6920 C.3   320  SER320      0.2103
    151  OG         6.7420   29.2640  -24.4940 O.3   320  SER320     -0.2182
    152  N          7.3220   30.1530  -29.1800 N.am  321  LYS321     -0.1965
    153  CA         6.8740   30.5620  -30.5150 C.3   321  LYS321      0.1728
    154  C          5.9520   31.7740  -30.5350 C.2   321  LYS321      0.2616
    155  O          5.0240   31.8280  -31.3330 O.2   321  LYS321     -0.2715
    156  CB         6.1680   29.4080  -31.2360 C.3   321  LYS321      0.0311
    157  CG         6.9900   28.1470  -31.4420 C.3   321  LYS321      0.0038
    158  CD         6.0730   26.9970  -31.8480 C.3   321  LYS321      0.0206
    159  CE         6.7890   25.6510  -31.8650 C.3   321  LYS321      0.1093
    160  NZ         5.8510   24.5330  -32.1760 N.3   321  LYS321     -0.1314
    161  N          6.2010   32.7510  -29.6770 N.am  322  VAL322     -0.1963
    162  CA         5.3570   33.9340  -29.6700 C.3   322  VAL322      0.1727
    163  C          5.7520   34.8650  -30.8010 C.2   322  VAL322      0.2616
    164  O          6.9170   35.2120  -30.9490 O.2   322  VAL322     -0.2715
    165  CB         5.4430   34.6830  -28.3430 C.3   322  VAL322      0.0290
    166  CG1        4.6800   35.9860  -28.4240 C.3   322  VAL322      0.0023
    167  CG2        4.9010   33.8250  -27.2330 C.3   322  VAL322      0.0023
    168  N          4.7730   35.2910  -31.5860 N.am  323  PHE323     -0.1960
    169  CA         5.0430   36.1970  -32.6830 C.3   323  PHE323      0.1771
    170  C          4.1940   37.4280  -32.5710 C.2   323  PHE323      0.2619
    171  O          4.3610   38.3670  -33.3320 O.2   323  PHE323     -0.2715
    172  CB         4.7620   35.5050  -34.0150 C.3   323  PHE323      0.0574
    173  CG         3.2960   35.3290  -34.3080 C.ar  323  PHE323     -0.0200
    174  CD1        2.5560   36.3400  -34.8850 C.ar  323  PHE323     -0.0042
    175  CD2        2.6540   34.1560  -33.9790 C.ar  323  PHE323     -0.0042
    176  CE1        1.2190   36.1780  -35.1400 C.ar  323  PHE323     -0.0003
    177  CE2        1.3150   33.9930  -34.2320 C.ar  323  PHE323     -0.0003
    178  CZ         0.6000   35.0050  -34.8150 C.ar  323  PHE323     -0.0000
    179  N          3.2860   37.4310  -31.6090 N.am  324  LEU324     -0.1963
    180  CA         2.3980   38.5620  -31.4520 C.3   324  LEU324      0.1728
    181  C          1.7080   38.6140  -30.1110 C.2   324  LEU324      0.2616
    182  O          1.2770   37.5970  -29.5870 O.2   324  LEU324     -0.2715
    183  CB         1.3340   38.5520  -32.5480 C.3   324  LEU324      0.0311
    184  CG         0.2200   39.5860  -32.4140 C.3   324  LEU324      0.0022
    185  CD1        0.7790   40.9780  -32.6120 C.3   324  LEU324      0.0001
    186  CD2       -0.9000   39.3040  -33.3880 C.3   324  LEU324      0.0001
    187  N          1.6480   39.8160  -29.5590 N.am  325  VAL325     -0.1964
    188  CA         0.9480   40.1130  -28.3200 C.3   325  VAL325      0.1712
    189  C         -0.0760   41.1180  -28.8220 C.2   325  VAL325      0.2458
    190  O          0.2460   42.2820  -28.9940 O.2   325  VAL325     -0.2730
    191  CB         1.8520   40.7070  -27.2280 C.3   325  VAL325      0.0289
    192  CG1        1.0500   41.0120  -25.9890 C.3   325  VAL325      0.0023
    193  CG2        2.9820   39.7560  -26.9020 C.3   325  VAL325      0.0023
    194  N         -1.3110   40.6700  -29.0770 N.am  326  PRO326     -0.2727
    195  CA        -2.3260   41.5810  -29.6100 C.3   326  PRO326      0.1402
    196  C         -2.4510   42.8850  -28.8550 C.2   326  PRO326      0.2269
    197  O         -2.3940   42.9260  -27.6320 O.2   326  PRO326     -0.2865
    198  CB        -3.6110   40.7720  -29.4810 C.3   326  PRO326      0.0296
    199  CG        -3.1690   39.3780  -29.5180 C.3   326  PRO326      0.0237
    200  CD        -1.8490   39.3270  -28.8340 C.3   326  PRO326      0.0939
    201  N         -4.8300   43.2000  -26.1410 N.3   329  PHE329     -0.1241
    202  CA        -4.3630   42.4010  -25.0230 C.3   329  PHE329      0.1605
    203  C         -3.2850   43.1770  -24.2950 C.2   329  PHE329      0.2264
    204  O         -3.2720   43.2320  -23.0760 O.2   329  PHE329     -0.2867
    205  CB        -3.8610   41.0410  -25.4910 C.3   329  PHE329      0.0534
    206  CG        -3.2860   40.1950  -24.3970 C.ar  329  PHE329     -0.0203
    207  CD1       -4.0400   39.8790  -23.2870 C.ar  329  PHE329     -0.0042
    208  CD2       -2.0170   39.6660  -24.5020 C.ar  329  PHE329     -0.0042
    209  CE1       -3.5230   39.0870  -22.2830 C.ar  329  PHE329     -0.0003
    210  CE2       -1.5020   38.8680  -23.5010 C.ar  329  PHE329     -0.0003
    211  CZ        -2.2560   38.5810  -22.3940 C.ar  329  PHE329     -0.0000
    212  N         -2.8250   44.9830  -19.9440 N.3   333  LEU333     -0.1245
    213  CA        -1.8200   44.7010  -18.9250 C.3   333  LEU333      0.1561
    214  C         -1.3360   46.0110  -18.3170 C.2   333  LEU333      0.2260
    215  O         -0.1720   46.3720  -18.4380 O.2   333  LEU333     -0.2867
    216  CB        -0.6520   43.9140  -19.5180 C.3   333  LEU333      0.0270
    217  CG        -0.9930   42.6440  -20.3070 C.3   333  LEU333      0.0019
    218  CD1        0.2670   41.9580  -20.8020 C.3   333  LEU333      0.0001
    219  CD2       -1.8240   41.6880  -19.4750 C.3   333  LEU333      0.0001
    220  N          8.5620   42.5180  -18.7810 N.3   339  LEU339     -0.1245
    221  CA         8.0820   41.5990  -19.8030 C.3   339  LEU339      0.1561
    222  C          9.2520   40.9920  -20.5480 C.2   339  LEU339      0.2260
    223  O         10.0700   41.7020  -21.1040 O.2   339  LEU339     -0.2867
    224  CB         7.1310   42.3020  -20.7620 C.3   339  LEU339      0.0270
    225  CG         6.6340   41.4960  -21.9530 C.3   339  LEU339      0.0019
    226  CD1        5.9280   40.2560  -21.4890 C.3   339  LEU339      0.0001
    227  CD2        5.6870   42.3360  -22.7440 C.3   339  LEU339      0.0001
    228  N         10.2350   38.3250  -23.4950 N.3   341  LEU341     -0.1245
    229  CA         9.8050   37.4980  -24.6100 C.3   341  LEU341      0.1561
    230  C         10.9790   36.8770  -25.3600 C.2   341  LEU341      0.2260
    231  O         10.9370   36.7590  -26.5780 O.2   341  LEU341     -0.2867
    232  CB         8.9570   38.3200  -25.5730 C.3   341  LEU341      0.0270
    233  CG         7.6370   38.8570  -25.0290 C.3   341  LEU341      0.0019
    234  CD1        7.0210   39.8060  -26.0220 C.3   341  LEU341      0.0001
    235  CD2        6.6890   37.7170  -24.7460 C.3   341  LEU341      0.0001
    236  N          9.3820   34.7360  -31.8090 N.3   345  LEU345     -0.1245
    237  CA         9.3540   35.0740  -33.2250 C.3   345  LEU345      0.1561
    238  C          8.9670   36.5070  -33.5170 C.2   345  LEU345      0.2260
    239  O          8.3680   36.7880  -34.5460 O.2   345  LEU345     -0.2867
    240  CB         8.3800   34.1590  -33.9740 C.3   345  LEU345      0.0270
    241  CG         8.6040   32.6680  -34.2420 C.3   345  LEU345      0.0019
    242  CD1        9.1160   31.8950  -33.0580 C.3   345  LEU345      0.0001
    243  CD2        7.2990   32.0660  -34.7240 C.3   345  LEU345      0.0001
@<TRIPOS>BOND
     1    99    98    1
     2    98    96   ar
     3    98    97   ar
     4    96    94   ar
     5    97    95   ar
     6    94    93   ar
     7    95    93   ar
     8   176   174   ar
     9   176   178   ar
    10    93    92    1
    11   174   173   ar
    12   178   177   ar
    13   243   241    1
    14   239   238    2
    15    92    89    1
    16   173   172    1
    17   173   175   ar
    18   241   240    1
    19   241   242    1
    20   177   175   ar
    21   172   169    1
    22   240   237    1
    23    89    90    1
    24    89    88    1
    25   238   237    1
    26   186   184    1
    27   171   170    2
    28    91    90    2
    29   237   236    1
    30    80    79    2
    31   169   170    1
    32   169   168    1
    33   185   184    1
    34   170   179   am
    35    88    79   am
    36   183   184    1
    37   183   180    1
    38    79    78    1
    39   160   159    1
    40   159   158    1
    41   158   157    1
    42   179   180    1
    43   168   163   am
    44    77    78    1
    45   180   181    1
    46   157   156    1
    47    78    81    1
    48   155   154    2
    49    81    82    1
    50   156   153    1
    51   164   163    2
    52   163   162    1
    53   154   153    1
    54   154   161   am
    55   153   152    1
    56    82    83   ar
    57    82    84   ar
    58    72    71    2
    59    83    85   ar
    60   181   182    2
    61   181   187   am
    62    84    86   ar
    63   161   162    1
    64   162   165    1
    65   195   198    1
    66   195   194    1
    67   195   196    1
    68   187   188    1
    69   199   198    1
    70   199   200    1
    71    85    87   ar
    72    71    70    1
    73   152   148   am
    74   194   200    1
    75   194   189   am
    76   190   189    2
    77    86    87   ar
    78   196   197    2
    79   189   188    1
    80   166   165    1
    81   165   167    1
    82   188   191    1
    83   149   148    2
    84   148   147    1
    85    75    73    1
    86    70    73    1
    87    70    69    1
    88    73    74    1
    89   106   105    1
    90   191   193    1
    91   191   192    1
    92   105   107    1
    93   105   104    1
    94   147   146    1
    95   147   150    1
    96    74    76    1
    97   231   230    2
    98    64    63    2
    99   201   202    1
   100   234   233    1
   101   150   151    1
   102   100   101    1
   103   104   101    1
   104   232   233    1
   105   232   229    1
   106   205   202    1
   107   205   206    1
   108   230   229    1
   109    63    62    1
   110   233   235    1
   111   202   203    1
   112   101   102    1
   113   229   228    1
   114   208   206   ar
   115   208   210   ar
   116   206   207   ar
   117   203   204    2
   118   142   141    2
   119    61    62    1
   120    62    65    1
   121   144   143    1
   122   102   103    2
   123   210   211   ar
   124    66    65    1
   125    66    68    1
   126    66    67    1
   127   207   209   ar
   128   141   140    1
   129   143   140    1
   130   143   145    1
   131   227   225    1
   132   211   209   ar
   133   140   139    1
   134   225   226    1
   135   225   224    1
   136   114   112    1
   137   223   222    2
   138   112   113    1
   139   112   109    1
   140   218   217    1
   141   224   221    1
   142    59    57    1
   143   222   221    1
   144    56    55    2
   145   217   216    1
   146   217   219    1
   147   212   213    1
   148   108   109    1
   149    55    54    1
   150   221   220    1
   151    57    54    1
   152    57    58    1
   153   109   110    1
   154    60    58    1
   155   216   213    1
   156   110   111    2
   157   137   135    1
   158   129   128    1
   159   213   214    1
   160    54    53    1
   161   134   133    2
   162   215   214    2
   163    30    29    2
   164   138   136    1
   165   135   136    1
   166   135   132    1
   167   133   132    1
   168   128   127    1
   169   128   130    1
   170     5     6    1
   171     5     2    1
   172     8     6   ar
   173     8    10   ar
   174    29    28    1
   175     6     7   ar
   176   127   124    1
   177    31    28    1
   178    31    32    1
   179   132   131    1
   180    10    11   ar
   181     1     2    1
   182     7     9   ar
   183    11     9   ar
   184   121   120    1
   185    28    27    1
   186     2     3    1
   187    32    33   ar
   188    32    34   ar
   189    33    35   ar
   190   124   123    1
   191   124   125    1
   192    49    48    2
   193    34    36   ar
   194   126   125    2
   195   123   117   am
   196    51    50    1
   197   119   120    1
   198   119   116    1
   199   115   116    1
   200   120   122    1
   201     3     4    2
   202    35    37   ar
   203    48    47    1
   204    36    37   ar
   205   116   117    1
   206    50    47    1
   207    50    52    1
   208   117   118    2
   209    47    46    1
   210    18    17    1
   211    23    22    2
   212    17    19    1
   213    17    16    1
   214    45    43    1
   215    22    21    1
   216    25    24    1
   217    16    13    1
   218    44    43    1
   219    24    21    1
   220    24    26    1
   221    12    13    1
   222    43    42    1
   223    21    20    1
   224    42    39    1
   225    13    14    1
   226    38    39    1
   227    39    40    1
   228    14    15    2
   229    40    41    2
