@<TRIPOS>MOLECULE
tmp/5d3kA01.pdb
 154 142 0 0 0
SMALL
GASTEIGER

@<TRIPOS>ATOM
      1  N         97.9480  159.3350   35.4800 N.3     8  TYR8       -0.1241
      2  CA        99.3950  159.1210   35.4210 C.3     8  TYR8        0.1605
      3  C         99.8080  158.7160   34.0560 C.2     8  TYR8        0.2264
      4  O        100.7860  159.2400   33.4930 O.2     8  TYR8       -0.2867
      5  CB        99.7400  158.0730   36.4470 C.3     8  TYR8        0.0534
      6  CG       101.2300  157.8580   36.6980 C.ar    8  TYR8       -0.0201
      7  CD1      102.1600  158.9040   36.7080 C.ar    8  TYR8       -0.0009
      8  CD2      101.6800  156.6120   36.9720 C.ar    8  TYR8       -0.0009
      9  CE1      103.5350  158.6760   37.0230 C.ar    8  TYR8        0.0417
     10  CE2      103.0030  156.3710   37.3060 C.ar    8  TYR8        0.0417
     11  CZ       103.9590  157.4020   37.2980 C.ar    8  TYR8        0.1957
     12  OH       105.2880  157.1410   37.6670 O.3     8  TYR8       -0.2866
     13  N        104.5540  164.8590   33.3380 N.3    17  VAL17      -0.1231
     14  CA       104.7890  163.9870   34.5240 C.3    17  VAL17       0.1692
     15  C        105.1710  164.7120   35.8210 C.2    17  VAL17       0.2591
     16  O        104.6280  164.4300   36.8980 O.2    17  VAL17      -0.2718
     17  CB       105.8350  162.8770   34.1930 C.3    17  VAL17       0.0266
     18  CG1      106.1360  162.0200   35.3870 C.3    17  VAL17       0.0020
     19  CG2      105.3790  162.0550   32.9910 C.3    17  VAL17       0.0020
     20  N        106.0430  165.6880   35.7350 N.am   18  ARG18      -0.1980
     21  CA       106.4510  166.4560   36.9130 C.3    18  ARG18       0.1597
     22  C        105.2250  167.1320   37.5660 C.2    18  ARG18       0.2287
     23  O        105.0460  167.0600   38.7620 O.2    18  ARG18      -0.2864
     24  CB       107.5330  167.4760   36.5180 C.3    18  ARG18       0.0334
     25  CG       108.0070  168.3450   37.6740 C.3    18  ARG18       0.0492
     26  CD       108.1380  167.6860   39.0650 C.3    18  ARG18       0.2205
     27  NE       109.0680  166.5810   39.1120 N.pl3  18  ARG18      -0.0865
     28  CZ       109.1400  165.7350   40.1390 C.cat  18  ARG18       0.5346
     29  NH1      108.2940  165.8180   41.1610 N.pl3  18  ARG18       0.1354
     30  NH2      110.0450  164.8030   40.1220 N.pl3  18  ARG18       0.1354
     31  N        103.2020  164.3840   39.3130 N.3    21  LEU21      -0.1245
     32  CA       103.8490  163.9390   40.5720 C.3    21  LEU21       0.1561
     33  C        103.6360  164.9460   41.6910 C.2    21  LEU21       0.2260
     34  O        103.4470  164.5820   42.8510 O.2    21  LEU21      -0.2867
     35  CB       105.3290  163.6720   40.3240 C.3    21  LEU21       0.0270
     36  CG       105.7260  162.5260   39.4690 C.3    21  LEU21       0.0019
     37  CD1      107.2470  162.6000   39.2020 C.3    21  LEU21       0.0001
     38  CD2      105.4060  161.2050   40.1620 C.3    21  LEU21       0.0001
     39  N        117.4800  152.9620   41.9220 N.3   128  SER128     -0.1202
     40  CA       116.8350  154.2020   41.5430 C.3   128  SER128      0.2020
     41  C        116.5510  155.0460   42.7730 C.2   128  SER128      0.2618
     42  O        117.4190  155.1110   43.6010 O.2   128  SER128     -0.2717
     43  CB       115.5820  153.9370   40.6640 C.3   128  SER128      0.2103
     44  OG       115.1860  155.1730   40.0230 O.3   128  SER128     -0.2182
     45  N        115.3260  155.5410   42.9630 N.am  129  ALA129     -0.1979
     46  CA       115.0780  156.2760   44.2350 C.3   129  ALA129      0.1597
     47  C        115.1870  155.3970   45.4960 C.2   129  ALA129      0.2287
     48  O        115.4960  155.9180   46.5850 O.2   129  ALA129     -0.2864
     49  CB       113.7770  156.9960   44.2060 C.3   129  ALA129      0.0319
     50  N        118.4680  155.9690   47.1540 N.3   132  LEU132     -0.1245
     51  CA       118.4330  157.1170   48.0860 C.3   132  LEU132      0.1561
     52  C        117.8610  156.6780   49.3980 C.2   132  LEU132      0.2260
     53  O        118.4280  156.9390   50.4580 O.2   132  LEU132     -0.2867
     54  CB       117.6320  158.2540   47.5330 C.3   132  LEU132      0.0270
     55  CG       118.0880  158.7670   46.1590 C.3   132  LEU132      0.0019
     56  CD1      117.1780  159.8340   45.5880 C.3   132  LEU132      0.0001
     57  CD2      119.5160  159.2310   46.1610 C.3   132  LEU132      0.0001
     58  N        120.3140  158.2790   40.8780 N.3   157  TYR157     -0.1241
     59  CA       120.3480  159.6530   40.3910 C.3   157  TYR157      0.1605
     60  C        120.0670  160.6050   41.5210 C.2   157  TYR157      0.2264
     61  O        118.8750  160.8710   41.8310 O.2   157  TYR157     -0.2867
     62  CB       119.3380  159.8240   39.3070 C.3   157  TYR157      0.0534
     63  CG       119.7780  159.1320   38.0530 C.ar  157  TYR157     -0.0201
     64  CD1      119.5940  157.7430   37.8530 C.ar  157  TYR157     -0.0009
     65  CD2      120.4780  159.8380   37.0240 C.ar  157  TYR157     -0.0009
     66  CE1      120.0490  157.1320   36.6660 C.ar  157  TYR157      0.0417
     67  CE2      120.9050  159.2010   35.8880 C.ar  157  TYR157      0.0417
     68  CZ       120.7010  157.8580   35.6650 C.ar  157  TYR157      0.1957
     69  OH       121.1440  157.1640   34.5450 O.3   157  TYR157     -0.2866
     70  N        120.1600  164.8990   38.0480 N.3   162  GLN162     -0.1245
     71  CA       118.9770  164.1110   37.6220 C.3   162  GLN162      0.1566
     72  C        118.5430  164.4530   36.2430 C.2   162  GLN162      0.2260
     73  O        117.4380  164.0970   35.8440 O.2   162  GLN162     -0.2867
     74  CB       117.8570  164.3400   38.5960 C.3   162  GLN162      0.0367
     75  CG       118.1420  163.6310   39.9230 C.3   162  GLN162      0.0905
     76  CD       117.1210  163.9120   41.0120 C.2   162  GLN162      0.2608
     77  OE1      116.2940  164.7970   40.8610 O.2   162  GLN162     -0.2717
     78  NE2      117.2020  163.1820   42.1340 N.am  162  GLN162     -0.0878
     79  N        117.1070  161.6620   34.1450 N.3   165  MET165     -0.1245
     80  CA       115.8170  161.2220   34.6670 C.3   165  MET165      0.1570
     81  C        114.7550  162.2060   34.2150 C.2   165  MET165      0.2261
     82  O        113.6160  161.8230   33.8430 O.2   165  MET165     -0.2867
     83  CB       115.8200  161.0960   36.1770 C.3   165  MET165      0.0387
     84  CG       116.6550  159.9190   36.6450 C.3   165  MET165      0.0595
     85  SD       115.9070  158.2740   36.4070 S.3   165  MET165     -0.1393
     86  CE       116.6640  157.7430   34.9030 C.3   165  MET165      0.0692
     87  N        111.5240  161.3620   31.6830 N.3   169  LEU169     -0.1245
     88  CA       110.3430  161.0670   32.5550 C.3   169  LEU169      0.1561
     89  C        109.1240  160.4360   31.8290 C.2   169  LEU169      0.2260
     90  O        108.4640  159.5860   32.3760 O.2   169  LEU169     -0.2867
     91  CB       109.8110  162.2930   33.2810 C.3   169  LEU169      0.0270
     92  CG       110.3890  162.7870   34.5910 C.3   169  LEU169      0.0019
     93  CD1      109.7710  164.1520   34.8850 C.3   169  LEU169      0.0001
     94  CD2      110.0830  161.7750   35.6710 C.3   169  LEU169      0.0001
     95  N        110.0850  156.8000   31.0480 N.3   172  LEU172     -0.1231
     96  CA       110.0600  156.0500   32.3030 C.3   172  LEU172      0.1693
     97  C        108.6570  155.6600   32.6640 C.2   172  LEU172      0.2592
     98  O        108.3690  154.5240   32.9950 O.2   172  LEU172     -0.2718
     99  CB       110.7370  156.8000   33.5140 C.3   172  LEU172      0.0284
    100  CG       112.2050  157.1810   33.3790 C.3   172  LEU172      0.0019
    101  CD1      112.6190  158.1670   34.4780 C.3   172  LEU172      0.0001
    102  CD2      113.0730  155.9580   33.4760 C.3   172  LEU172      0.0001
    103  N        107.7540  156.6050   32.5310 N.am  173  THR173     -0.1953
    104  CA       106.3800  156.3820   32.9160 C.3   173  THR173      0.1897
    105  C        105.7600  155.3100   31.9790 C.2   173  THR173      0.2313
    106  O        105.0430  154.3370   32.4090 O.2   173  THR173     -0.2863
    107  CB       105.5600  157.7040   32.8500 C.3   173  THR173      0.1794
    108  OG1      106.1320  158.6760   33.7260 O.3   173  THR173     -0.2208
    109  CG2      104.0420  157.4670   33.2760 C.3   173  THR173      0.0378
    110  N        106.9890  151.8630   32.9900 N.3   176  LEU176     -0.1245
    111  CA       106.3890  151.4050   34.2350 C.3   176  LEU176      0.1561
    112  C        105.0800  150.7520   33.9500 C.2   176  LEU176      0.2260
    113  O        104.7820  149.6980   34.5230 O.2   176  LEU176     -0.2867
    114  CB       106.2330  152.5850   35.2290 C.3   176  LEU176      0.0270
    115  CG       107.4970  153.1630   35.8140 C.3   176  LEU176      0.0019
    116  CD1      107.2770  154.5400   36.4610 C.3   176  LEU176      0.0001
    117  CD2      108.0290  152.1700   36.8690 C.3   176  LEU176      0.0001
    118  N        103.8060  157.1670   45.8730 N.3   192  LEU192     -0.1245
    119  CA       104.7530  157.6730   44.9160 C.3   192  LEU192      0.1561
    120  C        104.9350  159.1700   45.0800 C.2   192  LEU192      0.2260
    121  O        106.0540  159.6540   45.1600 O.2   192  LEU192     -0.2867
    122  CB       104.3280  157.3250   43.5110 C.3   192  LEU192      0.0270
    123  CG       104.9700  158.0580   42.3420 C.3   192  LEU192      0.0019
    124  CD1      106.4370  157.7790   42.2540 C.3   192  LEU192      0.0001
    125  CD2      104.2920  157.6470   41.0660 C.3   192  LEU192      0.0001
    126  N        108.4010  160.8300   46.3580 N.3   196  ASP196     -0.1239
    127  CA       109.1160  161.6380   45.3390 C.3   196  ASP196      0.1674
    128  C        109.4330  163.0010   45.9380 C.2   196  ASP196      0.2266
    129  O        110.5340  163.5480   45.7020 O.2   196  ASP196     -0.2867
    130  CB       108.2590  161.7660   44.0990 C.3   196  ASP196      0.1410
    131  CG       108.9020  162.6570   43.0310 C.2   196  ASP196      0.3668
    132  OD1      109.8160  162.1660   42.3460 O.co2 196  ASP196     -0.2456
    133  OD2      108.4450  163.7960   42.8960 O.co2 196  ASP196     -0.2456
    134  N        112.2730  162.4420   48.8420 N.3   199  THR199     -0.1203
    135  CA       113.5790  162.1880   48.3140 C.3   199  THR199      0.1994
    136  C        114.0920  163.3830   47.5320 C.2   199  THR199      0.2618
    137  O        115.3070  163.6130   47.5130 O.2   199  THR199     -0.2717
    138  CB       113.6950  160.9170   47.4400 C.3   199  THR199      0.1784
    139  OG1      112.8250  160.9970   46.3090 O.3   199  THR199     -0.2211
    140  CG2      113.3600  159.6840   48.2780 C.3   199  THR199      0.0376
    141  N        113.2170  164.1620   46.8940 N.am  200  GLY200     -0.1956
    142  CA       113.6720  165.3410   46.1330 C.3   200  GLY200      0.1869
    143  C        114.1870  166.4960   47.0280 C.2   200  GLY200      0.2309
    144  O        115.0400  167.2840   46.5910 O.2   200  GLY200     -0.2863
    145  N        118.1240  151.1620   32.6820 N.3   245  HIS245     -0.1241
    146  CA       117.6040  151.4980   34.0390 C.3   245  HIS245      0.1621
    147  C        116.6870  150.4440   34.6130 C.2   245  HIS245      0.2264
    148  O        116.7780  150.1200   35.7710 O.2   245  HIS245     -0.2867
    149  CB       116.9250  152.8770   33.9940 C.3   245  HIS245      0.0745
    150  CG       116.5010  153.3940   35.3310 C.ar  245  HIS245      0.0817
    151  ND1      117.4160  153.7400   36.2920 N.ar  245  HIS245     -0.2268
    152  CD2      115.2870  153.6130   35.8700 C.ar  245  HIS245      0.1154
    153  CE1      116.7840  154.1830   37.3700 C.ar  245  HIS245      0.1986
    154  NE2      115.4880  154.0970   37.1360 N.ar  245  HIS245     -0.2212
@<TRIPOS>BOND
     1    95    96    1
     2    87    88    1
     3    89    90    2
     4    89    88    1
     5   105   106    2
     6   105   104    1
     7    96    97    1
     8    96    99    1
     9   103    97   am
    10   103   104    1
    11    88    91    1
    12    97    98    2
    13   145   146    1
    14   107   104    1
    15   107   109    1
    16   107   108    1
    17   110   111    1
    18    19    17    1
    19    91    92    1
    20    13    14    1
    21   100   102    1
    22   100    99    1
    23   100   101    1
    24     4     3    2
    25    82    81    2
    26   112   111    1
    27   112   113    2
    28   149   146    1
    29   149   150    1
    30   146   147    1
    31     3     2    1
    32    79    80    1
    33    17    14    1
    34    17    18    1
    35    81    80    1
    36   111   114    1
    37    14    15    1
    38    69    68    1
    39    92    93    1
    40    92    94    1
    41   147   148    2
    42    80    83    1
    43    86    85    1
    44   114   115    1
    45   150   152   ar
    46   150   151   ar
    47     2     1    1
    48     2     5    1
    49    68    67   ar
    50    68    66   ar
    51    20    15   am
    52    20    21    1
    53   115   116    1
    54   115   117    1
    55    15    16    2
    56    73    72    2
    57   152   154   ar
    58    67    65   ar
    59    83    84    1
    60    72    71    1
    61   151   153   ar
    62    85    84    1
    63     5     6    1
    64    24    21    1
    65    24    25    1
    66    66    64   ar
    67     6     7   ar
    68     6     8   ar
    69     7     9   ar
    70    21    22    1
    71     8    10   ar
    72     9    11   ar
    73    65    63   ar
    74   154   153   ar
    75    11    10   ar
    76    11    12    1
    77    22    23    2
    78    71    70    1
    79    71    74    1
    80    25    26    1
    81    64    63   ar
    82    63    62    1
    83    74    75    1
    84    26    27    1
    85    27    28    2
    86    37    36    1
    87    62    59    1
    88    31    32    1
    89    36    38    1
    90    36    35    1
    91    75    76    1
    92    44    43    1
    93    30    28    1
    94    28    29    1
    95    35    32    1
    96    59    58    1
    97    59    60    1
    98    32    33    1
    99    43    40    1
   100    77    76    2
   101    76    78   am
   102   125   123    1
   103    60    61    2
   104    40    39    1
   105    40    41    1
   106    33    34    2
   107   124   123    1
   108   123   122    1
   109   132   131   ar
   110    41    45   am
   111    41    42    2
   112   133   131   ar
   113    45    46    1
   114   131   130    1
   115   122   119    1
   116   130   127    1
   117    49    46    1
   118    46    47    1
   119   119   120    1
   120   119   118    1
   121   120   121    2
   122   127   128    1
   123   127   126    1
   124    47    48    2
   125    56    55    1
   126   129   128    2
   127   142   141    1
   128   142   143    1
   129    55    57    1
   130    55    54    1
   131   139   138    1
   132   144   143    2
   133   141   136   am
   134    50    51    1
   135   138   140    1
   136   138   135    1
   137   137   136    2
   138   136   135    1
   139    54    51    1
   140    51    52    1
   141   135   134    1
   142    52    53    2
