@<TRIPOS>MOLECULE
tmp/5d3kA00.pdb
 142 136 0 0 0
SMALL
GASTEIGER

@<TRIPOS>ATOM
      1  N        108.8040  153.7590   43.2590 N.3    63  ALA63      -0.1245
      2  CA       107.8920  153.8010   42.1310 C.3    63  ALA63       0.1562
      3  C        106.5380  153.2340   42.5290 C.2    63  ALA63       0.2260
      4  O        106.4170  152.4480   43.4640 O.2    63  ALA63      -0.2867
      5  CB       108.4130  153.0280   40.9300 C.3    63  ALA63       0.0290
      6  N        105.0220  150.9430   41.2710 N.3    65  ILE65      -0.1231
      7  CA       105.0590  149.4720   41.1420 C.3    65  ILE65       0.1692
      8  C        106.1160  148.8060   42.0770 C.2    65  ILE65       0.2592
      9  O        106.3610  147.6040   41.9490 O.2    65  ILE65      -0.2718
     10  CB       105.2800  148.9760   39.7040 C.3    65  ILE65       0.0266
     11  CG1      106.6140  149.4380   39.1450 C.3    65  ILE65       0.0019
     12  CG2      104.1520  149.4270   38.7870 C.3    65  ILE65       0.0020
     13  CD1      107.0050  148.8580   37.7790 C.3    65  ILE65       0.0001
     14  N        106.7030  149.5410   42.9950 N.am   66  SER66      -0.1952
     15  CA       107.8280  149.0760   43.7920 C.3    66  SER66       0.1924
     16  C        107.3660  148.2450   44.9280 C.2    66  SER66       0.2314
     17  O        106.1710  148.2350   45.3840 O.2    66  SER66      -0.2863
     18  CB       108.6810  150.2330   44.3150 C.3    66  SER66       0.2116
     19  OG       109.4380  150.8820   43.2810 O.3    66  SER66      -0.2180
     20  N        109.0440  142.6000   46.0510 N.3    69  HIS69      -0.1226
     21  CA       109.0530  141.7030   44.8650 C.3    69  HIS69       0.1752
     22  C        110.0030  142.1870   43.8080 C.2    69  HIS69       0.2595
     23  O        110.3660  141.4160   42.8930 O.2    69  HIS69      -0.2718
     24  CB       107.6210  141.6630   44.2710 C.3    69  HIS69       0.0759
     25  CG       107.1900  142.9820   43.7350 C.ar   69  HIS69       0.0818
     26  ND1      106.7280  143.9880   44.5630 N.ar   69  HIS69      -0.2268
     27  CD2      107.2250  143.4900   42.4830 C.ar   69  HIS69       0.1154
     28  CE1      106.5110  145.0640   43.8240 C.ar   69  HIS69       0.1986
     29  NE2      106.7280  144.7600   42.5560 N.ar   69  HIS69      -0.2212
     30  N        110.4020  143.4740   43.8220 N.am   70  GLU70      -0.1979
     31  CA       111.3360  144.0070   42.8400 C.3    70  GLU70       0.1602
     32  C        112.7240  143.2890   42.9220 C.2    70  GLU70       0.2287
     33  O        113.5130  143.3390   41.9400 O.2    70  GLU70      -0.2864
     34  CB       111.6460  145.5430   43.0400 C.3    70  GLU70       0.0415
     35  CG       112.5920  146.1190   42.0310 C.3    70  GLU70       0.1163
     36  CD       112.8200  147.5970   42.1090 C.2    70  GLU70       0.3649
     37  OE1      112.3190  148.2390   43.0080 O.co2  70  GLU70      -0.2457
     38  OE2      113.6360  148.1790   41.3780 O.co2  70  GLU70      -0.2457
     39  N        112.9610  139.8890   43.7680 N.3    72  THR72      -0.1203
     40  CA       112.8460  138.4170   43.6100 C.3    72  THR72       0.1994
     41  C        113.9870  137.8900   42.7070 C.2    72  THR72       0.2617
     42  O        114.5850  136.8420   43.0370 O.2    72  THR72      -0.2717
     43  CB       111.4420  138.0350   43.2010 C.3    72  THR72       0.1784
     44  OG1      110.6290  138.3340   44.3490 O.3    72  THR72      -0.2211
     45  CG2      111.3350  136.5730   42.9520 C.3    72  THR72       0.0376
     46  N        114.2260  138.5140   41.5770 N.am   73  ARG73      -0.1979
     47  CA       115.2330  138.0130   40.6340 C.3    73  ARG73       0.1597
     48  C        116.6360  138.1070   41.2220 C.2    73  ARG73       0.2287
     49  O        117.3860  137.1440   41.1610 O.2    73  ARG73      -0.2864
     50  CB       115.1710  138.6510   39.2800 C.3    73  ARG73       0.0334
     51  CG       113.8650  138.2810   38.5730 C.3    73  ARG73       0.0492
     52  CD       113.7970  138.8760   37.2310 C.3    73  ARG73       0.2205
     53  NE       112.6200  138.4390   36.5010 N.pl3  73  ARG73      -0.0865
     54  CZ       111.4720  139.1270   36.3930 C.cat  73  ARG73       0.5346
     55  NH1      111.3310  140.3350   36.9160 N.pl3  73  ARG73       0.1354
     56  NH2      110.4700  138.6090   35.6870 N.pl3  73  ARG73       0.1354
     57  N        117.6580  150.4880   44.4720 N.3   127  HIS127     -0.1226
     58  CA       117.6830  150.7760   43.0240 C.3   127  HIS127      0.1752
     59  C        116.9120  152.0650   42.7560 C.2   127  HIS127      0.2596
     60  O        115.8360  152.2720   43.2980 O.2   127  HIS127     -0.2718
     61  CB       117.0380  149.6380   42.2440 C.3   127  HIS127      0.0759
     62  CG       116.8090  149.9080   40.7850 C.ar  127  HIS127      0.0818
     63  ND1      115.5370  150.1490   40.2920 N.ar  127  HIS127     -0.2268
     64  CD2      117.6460  149.9750   39.7100 C.ar  127  HIS127      0.1154
     65  CE1      115.6040  150.3580   38.9850 C.ar  127  HIS127      0.1986
     66  NE2      116.8660  150.2460   38.6070 N.ar  127  HIS127     -0.2212
     67  N        117.4800  152.9620   41.9220 N.am  128  SER128     -0.1952
     68  CA       116.8350  154.2020   41.5430 C.3   128  SER128      0.1924
     69  C        116.5510  155.0460   42.7730 C.2   128  SER128      0.2314
     70  O        117.4190  155.1110   43.6010 O.2   128  SER128     -0.2863
     71  CB       115.5820  153.9370   40.6640 C.3   128  SER128      0.2116
     72  OG       115.1860  155.1730   40.0230 O.3   128  SER128     -0.2180
     73  N        106.9890  151.8630   32.9900 N.3   176  LEU176     -0.1245
     74  CA       106.3890  151.4050   34.2350 C.3   176  LEU176      0.1561
     75  C        105.0800  150.7520   33.9500 C.2   176  LEU176      0.2260
     76  O        104.7820  149.6980   34.5230 O.2   176  LEU176     -0.2867
     77  CB       106.2330  152.5850   35.2290 C.3   176  LEU176      0.0270
     78  CG       107.4970  153.1630   35.8140 C.3   176  LEU176      0.0019
     79  CD1      107.2770  154.5400   36.4610 C.3   176  LEU176      0.0001
     80  CD2      108.0290  152.1700   36.8690 C.3   176  LEU176      0.0001
     81  N        105.7390  147.3450   32.4810 N.3   179  ARG179     -0.1245
     82  CA       106.2790  146.4320   33.4850 C.3   179  ARG179      0.1563
     83  C        105.4740  146.3890   34.8180 C.2   179  ARG179      0.2260
     84  O        105.9990  146.0670   35.8800 O.2   179  ARG179     -0.2867
     85  CB       107.7350  146.7730   33.7180 C.3   179  ARG179      0.0307
     86  CG       108.5020  146.7140   32.4230 C.3   179  ARG179      0.0489
     87  CD       109.9730  147.2080   32.6120 C.3   179  ARG179      0.2205
     88  NE       110.7660  146.2770   33.3490 N.pl3 179  ARG179     -0.0865
     89  CZ       111.5000  145.2750   32.8220 C.cat 179  ARG179      0.5346
     90  NH1      111.5990  145.0660   31.5340 N.pl3 179  ARG179      0.1354
     91  NH2      112.1750  144.4690   33.6450 N.pl3 179  ARG179      0.1354
     92  N        103.8360  144.7200   37.1300 N.3   181  THR181     -0.1203
     93  CA       103.5580  143.3980   37.6440 C.3   181  THR181      0.1994
     94  C        102.8310  143.5240   39.0000 C.2   181  THR181      0.2617
     95  O        102.2490  142.5790   39.4220 O.2   181  THR181     -0.2717
     96  CB       104.8230  142.5980   37.8380 C.3   181  THR181      0.1784
     97  OG1      105.6590  143.3750   38.6380 O.3   181  THR181     -0.2211
     98  CG2      105.4990  142.2830   36.4680 C.3   181  THR181      0.0376
     99  N        102.8270  144.7080   39.6360 N.am  182  VAL182     -0.1979
    100  CA       101.9800  144.9880   40.7630 C.3   182  VAL182      0.1595
    101  C        101.1570  146.1820   40.3020 C.2   182  VAL182      0.2287
    102  O        101.7600  147.1950   39.8170 O.2   182  VAL182     -0.2864
    103  CB       102.8850  145.3030   41.9770 C.3   182  VAL182      0.0276
    104  CG1      102.1730  146.0290   43.0370 C.3   182  VAL182      0.0022
    105  CG2      103.4710  143.9700   42.4700 C.3   182  VAL182      0.0022
    106  N        118.1240  151.1620   32.6820 N.3   245  HIS245     -0.1226
    107  CA       117.6040  151.4980   34.0390 C.3   245  HIS245      0.1752
    108  C        116.6870  150.4440   34.6130 C.2   245  HIS245      0.2596
    109  O        116.7780  150.1200   35.7710 O.2   245  HIS245     -0.2718
    110  CB       116.9250  152.8770   33.9940 C.3   245  HIS245      0.0759
    111  CG       116.5010  153.3940   35.3310 C.ar  245  HIS245      0.0818
    112  ND1      117.4160  153.7400   36.2920 N.ar  245  HIS245     -0.2268
    113  CD2      115.2870  153.6130   35.8700 C.ar  245  HIS245      0.1154
    114  CE1      116.7840  154.1830   37.3700 C.ar  245  HIS245      0.1986
    115  NE2      115.4880  154.0970   37.1360 N.ar  245  HIS245     -0.2212
    116  N        115.8190  149.8540   33.7900 N.am  246  PHE246     -0.1976
    117  CA       114.8550  148.8180   34.2170 C.3   246  PHE246      0.1639
    118  C        115.3900  147.3850   34.1050 C.2   246  PHE246      0.2290
    119  O        115.2310  146.5990   35.0330 O.2   246  PHE246     -0.2864
    120  CB       113.5500  148.9460   33.3830 C.3   246  PHE246      0.0560
    121  CG       112.7580  150.1590   33.7150 C.ar  246  PHE246     -0.0200
    122  CD1      111.8090  150.1290   34.7060 C.ar  246  PHE246     -0.0042
    123  CD2      112.9300  151.3100   32.9810 C.ar  246  PHE246     -0.0042
    124  CE1      111.0500  151.2830   34.9780 C.ar  246  PHE246     -0.0003
    125  CE2      112.2020  152.4370   33.2510 C.ar  246  PHE246     -0.0003
    126  CZ       111.2890  152.4210   34.2790 C.ar  246  PHE246     -0.0000
    127  N        118.1980  145.2290   36.5250 N.3   249  VAL249     -0.1231
    128  CA       117.9290  144.6550   37.8630 C.3   249  VAL249      0.1692
    129  C        116.8810  143.4990   37.7880 C.2   249  VAL249      0.2591
    130  O        116.5550  142.8310   38.7800 O.2   249  VAL249     -0.2718
    131  CB       117.6660  145.8450   38.8630 C.3   249  VAL249      0.0266
    132  CG1      116.3190  146.5330   38.5500 C.3   249  VAL249      0.0020
    133  CG2      117.8200  145.3730   40.2630 C.3   249  VAL249      0.0020
    134  N        116.4600  143.1880   36.5630 N.am  250  GLN250     -0.1979
    135  CA       115.4600  142.1850   36.3550 C.3   250  GLN250      0.1601
    136  C        116.0580  141.1350   35.3990 C.2   250  GLN250      0.2287
    137  O        116.7250  140.1660   35.8640 O.2   250  GLN250     -0.2864
    138  CB       114.1230  142.7920   35.8790 C.3   250  GLN250      0.0394
    139  CG       113.5380  143.7700   36.8810 C.3   250  GLN250      0.0908
    140  CD       113.1680  143.1260   38.2320 C.2   250  GLN250      0.2608
    141  OE1      112.9250  141.9220   38.3490 O.2   250  GLN250     -0.2717
    142  NE2      113.0940  143.9710   39.2530 N.am  250  GLN250     -0.0878
@<TRIPOS>BOND
     1    90    89    1
     2    86    87    1
     3    86    85    1
     4    81    82    1
     5    87    88    1
     6   106   107    1
     7    89    88    2
     8    89    91    1
     9   123   125   ar
    10   123   121   ar
    11    73    74    1
    12   125   126   ar
    13   120   121    1
    14   120   117    1
    15    82    85    1
    16    82    83    1
    17   121   122   ar
    18   116   117    1
    19   116   108   am
    20    75    74    1
    21    75    76    2
    22   110   107    1
    23   110   111    1
    24   107   108    1
    25   118   117    1
    26   118   119    2
    27    74    77    1
    28   126   124   ar
    29   108   109    2
    30   122   124   ar
    31    83    84    2
    32    77    78    1
    33   111   113   ar
    34   111   112   ar
    35   136   137    2
    36   136   135    1
    37    56    54    1
    38    78    79    1
    39    78    80    1
    40   113   115   ar
    41   138   135    1
    42   138   139    1
    43   112   114   ar
    44   135   134    1
    45    54    53    2
    46    54    55    1
    47    98    96    1
    48    53    52    1
    49   127   128    1
    50   134   129   am
    51   139   140    1
    52    92    93    1
    53   115   114   ar
    54    52    51    1
    55    93    96    1
    56    93    94    1
    57    13    11    1
    58   129   128    1
    59   129   130    2
    60    96    97    1
    61   128   131    1
    62   140   141    2
    63   140   142   am
    64   132   131    1
    65    51    50    1
    66    66    65   ar
    67    66    64   ar
    68    12    10    1
    69   131   133    1
    70    65    63   ar
    71    94    95    2
    72    94    99   am
    73    11    10    1
    74    50    47    1
    75    99   100    1
    76    10     7    1
    77    64    62   ar
    78   102   101    2
    79    72    71    1
    80    63    62   ar
    81   101   100    1
    82    47    48    1
    83    47    46    1
    84    71    68    1
    85   100   103    1
    86    62    61    1
    87     5     2    1
    88     7     6    1
    89     7     8    1
    90    49    48    2
    91    38    36   ar
    92    68    67    1
    93    68    69    1
    94    46    41   am
    95    67    59   am
    96    33    32    2
    97     9     8    2
    98   103   105    1
    99   103   104    1
   100    35    36    1
   101    35    34    1
   102     8    14   am
   103    36    37   ar
   104     2     3    1
   105     2     1    1
   106    61    58    1
   107    27    29   ar
   108    27    25   ar
   109     3     4    2
   110    29    28   ar
   111    41    42    2
   112    41    40    1
   113    59    58    1
   114    59    60    2
   115    69    70    2
   116    31    32    1
   117    31    34    1
   118    31    30    1
   119    23    22    2
   120    45    43    1
   121    14    15    1
   122    58    57    1
   123    43    40    1
   124    43    44    1
   125    19    18    1
   126    40    39    1
   127    25    24    1
   128    25    26   ar
   129    15    18    1
   130    15    16    1
   131    22    30   am
   132    22    21    1
   133    28    26   ar
   134    24    21    1
   135    21    20    1
   136    16    17    2
