@<TRIPOS>MOLECULE
tmp/5d3mF00.pdb
 131 125 0 0 0
SMALL
GASTEIGER

@<TRIPOS>ATOM
      1  N         13.2060   32.0250  -59.5810 N.3    11  TYR11      -0.1227
      2  CA        11.8140   32.2950  -59.9050 C.3    11  TYR11       0.1736
      3  C         10.9120   31.4440  -59.0260 C.2    11  TYR11       0.2596
      4  O         11.3480   30.4180  -58.5070 O.2    11  TYR11      -0.2718
      5  CB        11.5310   31.9950  -61.3770 C.3    11  TYR11       0.0548
      6  CG        12.0340   33.0370  -62.3500 C.ar   11  TYR11      -0.0200
      7  CD1       11.3100   34.1960  -62.6000 C.ar   11  TYR11      -0.0009
      8  CD2       13.2270   32.8520  -63.0360 C.ar   11  TYR11      -0.0009
      9  CE1       11.7680   35.1460  -63.4980 C.ar   11  TYR11       0.0417
     10  CE2       13.6920   33.7950  -63.9340 C.ar   11  TYR11       0.0417
     11  CZ        12.9590   34.9400  -64.1610 C.ar   11  TYR11       0.1957
     12  OH        13.4170   35.8820  -65.0540 O.3    11  TYR11      -0.2866
     13  N          9.6640   31.8760  -58.8600 N.am   12  SER12      -0.1952
     14  CA         8.6550   31.0990  -58.1390 C.3    12  SER12       0.1924
     15  C          9.1120   30.5520  -56.7850 C.2    12  SER12       0.2314
     16  O          9.0510   29.3450  -56.5580 O.2    12  SER12      -0.2863
     17  CB         8.1910   29.9310  -59.0120 C.3    12  SER12       0.2116
     18  OG         7.9550   30.3520  -60.3440 O.3    12  SER12      -0.2180
     19  N          8.3970   25.0860  -58.4060 N.3    17  LEU17      -0.1245
     20  CA         8.9850   25.3210  -59.7210 C.3    17  LEU17       0.1561
     21  C         10.4460   25.6850  -59.4940 C.2    17  LEU17       0.2260
     22  O         11.3560   24.9360  -59.8640 O.2    17  LEU17      -0.2867
     23  CB         8.2310   26.4060  -60.4880 C.3    17  LEU17       0.0270
     24  CG         7.0320   25.8360  -61.2570 C.3    17  LEU17       0.0019
     25  CD1        5.7100   26.4860  -60.8540 C.3    17  LEU17       0.0001
     26  CD2        7.2480   25.9300  -62.7660 C.3    17  LEU17       0.0001
     27  N         12.6670   27.8960  -60.7400 N.3    19  ALA19      -0.1231
     28  CA        13.6380   27.9690  -61.8180 C.3    19  ALA19       0.1694
     29  C         14.6870   28.9800  -61.3900 C.2    19  ALA19       0.2592
     30  O         14.3560   30.0060  -60.7970 O.2    19  ALA19      -0.2718
     31  CB        12.9780   28.3710  -63.1270 C.3    19  ALA19       0.0304
     32  N         15.9470   28.7060  -61.6920 N.am   20  ILE20      -0.1966
     33  CA        17.0040   29.5960  -61.2530 C.3    20  ILE20       0.1727
     34  C         17.4680   30.4570  -62.4150 C.2    20  ILE20       0.2616
     35  O         18.1160   29.9730  -63.3420 O.2    20  ILE20      -0.2715
     36  CB        18.1880   28.8060  -60.6740 C.3    20  ILE20       0.0290
     37  CG1       18.3300   27.4830  -61.4310 C.3    20  ILE20       0.0022
     38  CG2       17.9760   28.5390  -59.1840 C.3    20  ILE20       0.0023
     39  CD1       19.4530   26.6040  -60.9510 C.3    20  ILE20       0.0001
     40  N         17.1270   31.7370  -62.3590 N.am   21  GLY21      -0.1955
     41  CA        17.5510   32.6760  -63.3740 C.3    21  GLY21       0.1869
     42  C         19.0330   32.9490  -63.2700 C.2    21  GLY21       0.2309
     43  O         19.7740   32.8550  -64.2480 O.2    21  GLY21      -0.2863
     44  N         20.4120   30.4610  -75.4150 N.3    41  THR41      -0.1203
     45  CA        19.0890   30.9940  -75.1170 C.3    41  THR41       0.1994
     46  C         18.5690   30.3540  -73.8320 C.2    41  THR41       0.2618
     47  O         18.9130   29.2140  -73.5090 O.2    41  THR41      -0.2717
     48  CB        18.0910   30.7720  -76.2730 C.3    41  THR41       0.1784
     49  OG1       16.9840   31.6710  -76.1290 O.3    41  THR41      -0.2211
     50  CG2       17.5850   29.3360  -76.2970 C.3    41  THR41       0.0376
     51  N         17.7620   31.1030  -73.0870 N.am   42  GLY42      -0.1942
     52  CA        17.3770   30.7120  -71.7430 C.3    42  GLY42       0.2014
     53  C         18.5850   30.6370  -70.8270 C.2    42  GLY42       0.2640
     54  O         18.6550   29.7930  -69.9320 O.2    42  GLY42      -0.2714
     55  N         19.5470   31.5210  -71.0640 N.am   43  SER43      -0.1935
     56  CA        20.6930   31.6620  -70.1750 C.3    43  SER43       0.2055
     57  C         20.2810   32.3860  -68.9010 C.2    43  SER43       0.2644
     58  O         20.8210   32.1270  -67.8270 O.2    43  SER43      -0.2714
     59  CB        21.8270   32.4200  -70.8640 C.3    43  SER43       0.2130
     60  OG        21.3230   33.4620  -71.6850 O.3    43  SER43      -0.2179
     61  N         19.3190   33.2980  -69.0330 N.am   44  GLY44      -0.1939
     62  CA        18.9670   34.1970  -67.9510 C.3    44  GLY44       0.2014
     63  C         19.5230   35.5920  -68.1560 C.2    44  GLY44       0.2639
     64  O         19.5660   36.3960  -67.2250 O.2    44  GLY44      -0.2714
     65  N         19.9550   35.8790  -69.3780 N.am   45  LYS45      -0.1963
     66  CA        20.5170   37.1850  -69.6990 C.3    45  LYS45       0.1728
     67  C         19.4740   38.3150  -69.7010 C.2    45  LYS45       0.2617
     68  O         19.7860   39.4400  -69.3110 O.2    45  LYS45      -0.2715
     69  CB        21.2540   37.1160  -71.0420 C.3    45  LYS45       0.0311
     70  CG        20.4180   36.7340  -72.2530 C.3    45  LYS45       0.0038
     71  CD        21.3310   36.5490  -73.4650 C.3    45  LYS45       0.0206
     72  CE        20.5500   36.3320  -74.7550 C.3    45  LYS45       0.1093
     73  NZ        19.7310   35.0860  -74.7260 N.3    45  LYS45      -0.1314
     74  N         18.2470   38.0260  -70.1320 N.am   46  SER46      -0.1936
     75  CA        17.1740   39.0250  -70.0620 C.3    46  SER46       0.2055
     76  C         16.6960   39.2480  -68.6290 C.2    46  SER46       0.2643
     77  O         16.2140   40.3280  -68.2880 O.2    46  SER46      -0.2714
     78  CB        15.9940   38.6240  -70.9490 C.3    46  SER46       0.2130
     79  OG        16.1890   39.0760  -72.2750 O.3    46  SER46      -0.2179
     80  N         16.8100   38.2160  -67.7980 N.am   47  THR47      -0.1950
     81  CA        16.5820   38.3720  -66.3650 C.3    47  THR47       0.1897
     82  C         17.5460   39.4120  -65.8090 C.2    47  THR47       0.2313
     83  O         17.1400   40.3640  -65.1410 O.2    47  THR47      -0.2863
     84  CB        16.7600   37.0520  -65.6090 C.3    47  THR47       0.1794
     85  OG1       15.8100   36.0930  -66.0930 O.3    47  THR47      -0.2208
     86  CG2       16.5450   37.2610  -64.1200 C.3    47  THR47       0.0378
     87  N         16.6140   43.1680  -66.4130 N.3    50  GLN50      -0.1245
     88  CA        15.6460   43.8380  -65.5560 C.3    50  GLN50       0.1566
     89  C         16.0210   43.7640  -64.0750 C.2    50  GLN50       0.2260
     90  O         15.2580   44.2040  -63.2160 O.2    50  GLN50      -0.2867
     91  CB        14.2470   43.2640  -65.7970 C.3    50  GLN50       0.0367
     92  CG        14.1370   41.7500  -65.7230 C.3    50  GLN50       0.0905
     93  CD        12.8230   41.2490  -66.3020 C.2    50  GLN50       0.2608
     94  OE1       11.8820   42.0220  -66.4890 O.2    50  GLN50      -0.2717
     95  NE2       12.7560   39.9560  -66.5960 N.am   50  GLN50      -0.0878
     96  N         13.4640   43.6400  -76.1260 N.3    91  GLN91      -0.1245
     97  CA        13.6830   42.9990  -77.4220 C.3    91  GLN91       0.1566
     98  C         12.8380   43.6110  -78.5270 C.2    91  GLN91       0.2260
     99  O         13.3510   43.9370  -79.5940 O.2    91  GLN91      -0.2867
    100  CB        13.3880   41.5010  -77.3260 C.3    91  GLN91       0.0367
    101  CG        13.5140   40.7720  -78.6510 C.3    91  GLN91       0.0905
    102  CD        14.1310   39.4020  -78.5010 C.2    91  GLN91       0.2608
    103  OE1       14.9730   39.1770  -77.6320 O.2    91  GLN91      -0.2717
    104  NE2       13.7070   38.4710  -79.3440 N.am   91  GLN91      -0.0878
    105  N         18.2250   44.8310  -75.0320 N.3   169  ASP169     -0.1225
    106  CA        18.2720   43.4410  -75.4530 C.3   169  ASP169      0.1805
    107  C         17.9000   43.3230  -76.9260 C.2   169  ASP169      0.2597
    108  O         16.7790   43.6500  -77.3110 O.2   169  ASP169     -0.2718
    109  CB        17.3270   42.5950  -74.6020 C.3   169  ASP169      0.1424
    110  CG        17.2390   41.1620  -75.0790 C.2   169  ASP169      0.3668
    111  OD1       18.2840   40.5950  -75.4640 O.co2 169  ASP169     -0.2456
    112  OD2       16.1220   40.6040  -75.0760 O.co2 169  ASP169     -0.2456
    113  N         18.8480   42.8490  -77.7330 N.am  170  GLU170     -0.1979
    114  CA        18.6190   42.5730  -79.1510 C.3   170  GLU170      0.1602
    115  C         17.9310   43.7190  -79.8940 C.2   170  GLU170      0.2287
    116  O         16.8930   43.5110  -80.5200 O.2   170  GLU170     -0.2864
    117  CB        17.7860   41.2940  -79.2990 C.3   170  GLU170      0.0415
    118  CG        18.4220   40.0560  -78.6790 C.3   170  GLU170      0.1163
    119  CD        19.3670   39.3370  -79.6250 C.2   170  GLU170      0.3649
    120  OE1       19.9650   39.9970  -80.5030 O.co2 170  GLU170     -0.2457
    121  OE2       19.5170   38.1050  -79.4790 O.co2 170  GLU170     -0.2457
    122  N         22.9450   37.9260  -79.6980 N.3   202  HIS202     -0.1241
    123  CA        23.6060   36.7050  -80.1360 C.3   202  HIS202      0.1621
    124  C         24.6790   37.0280  -81.1620 C.2   202  HIS202      0.2264
    125  O         25.6720   36.3100  -81.2740 O.2   202  HIS202     -0.2867
    126  CB        22.5980   35.7210  -80.7230 C.3   202  HIS202      0.0745
    127  CG        21.6060   35.2100  -79.7260 C.ar  202  HIS202      0.0817
    128  ND1       20.3610   35.7760  -79.5610 N.ar  202  HIS202     -0.2268
    129  CD2       21.6740   34.1850  -78.8450 C.ar  202  HIS202      0.1154
    130  CE1       19.7050   35.1250  -78.6170 C.ar  202  HIS202      0.1986
    131  NE2       20.4790   34.1530  -78.1670 N.ar  202  HIS202     -0.2212
@<TRIPOS>BOND
     1   125   124    2
     2   124   123    1
     3   126   123    1
     4   126   127    1
     5   116   115    2
     6   120   119   ar
     7   123   122    1
     8   115   114    1
     9   127   128   ar
    10   127   129   ar
    11   119   121   ar
    12   119   118    1
    13    99    98    2
    14   128   130   ar
    15   104   102   am
    16   117   114    1
    17   117   118    1
    18   114   113    1
    19   129   131   ar
    20   101   102    1
    21   101   100    1
    22   130   131   ar
    23    98    97    1
    24   102   103    2
    25   113   107   am
    26    97   100    1
    27    97    96    1
    28   108   107    2
    29   107   106    1
    30    50    48    1
    31    48    49    1
    32    48    45    1
    33   111   110   ar
    34   106   105    1
    35   106   109    1
    36    44    45    1
    37    45    46    1
    38   110   112   ar
    39   110   109    1
    40    72    73    1
    41    72    71    1
    42    46    47    2
    43    46    51   am
    44    71    70    1
    45    51    52    1
    46    79    78    1
    47    70    69    1
    48    52    53    1
    49    60    59    1
    50    55    53   am
    51    55    56    1
    52    69    66    1
    53    78    75    1
    54    59    56    1
    55    53    54    2
    56    56    57    1
    57    74    75    1
    58    74    67   am
    59    75    76    1
    60    67    66    1
    61    67    68    2
    62    66    65    1
    63    65    63   am
    64    61    57   am
    65    61    62    1
    66    57    58    2
    67    76    77    2
    68    76    80   am
    69    63    62    1
    70    63    64    2
    71    80    81    1
    72    95    93   am
    73    94    93    2
    74    87    88    1
    75    81    82    1
    76    81    84    1
    77    93    92    1
    78    85    84    1
    79    82    83    2
    80    91    92    1
    81    91    88    1
    82    84    86    1
    83    88    89    1
    84    12    11    1
    85    43    42    2
    86    11    10   ar
    87    11     9   ar
    88    89    90    2
    89    10     8   ar
    90     9     7   ar
    91    41    42    1
    92    41    40    1
    93    35    34    2
    94    31    28    1
    95     8     6   ar
    96    26    24    1
    97     7     6   ar
    98    34    40   am
    99    34    33    1
   100     6     5    1
   101    28    29    1
   102    28    27    1
   103    32    29   am
   104    32    33    1
   105    37    39    1
   106    37    36    1
   107    29    30    2
   108     5     2    1
   109    24    25    1
   110    24    23    1
   111    33    36    1
   112    36    38    1
   113    23    20    1
   114    18    17    1
   115     2     1    1
   116     2     3    1
   117    22    21    2
   118    20    21    1
   119    20    19    1
   120     3    13   am
   121     3     4    2
   122    17    14    1
   123    13    14    1
   124    14    15    1
   125    15    16    2
