@<TRIPOS>MOLECULE
tmp/5d3mA00.pdb
 116 110 0 0 0
SMALL
GASTEIGER

@<TRIPOS>ATOM
      1  N         -1.5840   49.1830    1.1710 N.3    13  PHE13      -0.1227
      2  CA        -2.2540   49.4400   -0.1240 C.3    13  PHE13       0.1736
      3  C         -2.2360   48.1990   -1.0430 C.2    13  PHE13       0.2596
      4  O         -1.2570   47.4530   -1.0530 O.2    13  PHE13      -0.2718
      5  CB        -1.6370   50.6300   -0.8660 C.3    13  PHE13       0.0547
      6  CG        -0.2010   50.8590   -0.5570 C.ar   13  PHE13      -0.0202
      7  CD1        0.7240   49.8390   -0.6920 C.ar   13  PHE13      -0.0042
      8  CD2        0.2340   52.1090   -0.1650 C.ar   13  PHE13      -0.0042
      9  CE1        2.0460   50.0530   -0.4020 C.ar   13  PHE13      -0.0003
     10  CE2        1.5530   52.3280    0.1150 C.ar   13  PHE13      -0.0003
     11  CZ         2.4630   51.2990   -0.0040 C.ar   13  PHE13      -0.0000
     12  N         -3.3120   47.9620   -1.8020 N.am   14  THR14      -0.1953
     13  CA        -4.4560   48.8640   -1.8840 C.3    14  THR14       0.1897
     14  C         -5.4280   48.4790   -0.8050 C.2    14  THR14       0.2313
     15  O         -6.0840   47.4430   -0.9360 O.2    14  THR14      -0.2863
     16  CB        -5.2040   48.7400   -3.2380 C.3    14  THR14       0.1794
     17  OG1       -6.1630   47.6770   -3.1540 O.3    14  THR14      -0.2208
     18  CG2       -4.2570   48.4290   -4.3710 C.3    14  THR14       0.0378
     19  N          1.6840   44.1740    3.1450 N.3    21  PRO21      -0.2116
     20  CA         2.2440   45.4340    2.6730 C.3    21  PRO21       0.1372
     21  C          2.2800   46.3680    3.8600 C.2    21  PRO21       0.2244
     22  O          1.3510   46.3270    4.6680 O.2    21  PRO21      -0.2868
     23  CB         1.2370   45.8950    1.6200 C.3    21  PRO21       0.0268
     24  CG        -0.0500   45.3840    2.1360 C.3    21  PRO21       0.0207
     25  CD         0.2870   44.0300    2.6900 C.3    21  PRO21       0.0892
     26  N         14.1570   49.5580   -4.4360 N.3    42  ASN42      -0.1225
     27  CA        12.8770   49.7290   -5.1050 C.3    42  ASN42       0.1785
     28  C         11.8220   48.9040   -4.3880 C.2    42  ASN42       0.2597
     29  O         11.9350   47.6820   -4.2930 O.2    42  ASN42      -0.2718
     30  CB        12.9640   49.3260   -6.5780 C.3    42  ASN42       0.1169
     31  CG        13.8890   50.2200   -7.3740 C.2    42  ASN42       0.2627
     32  OD1       13.8260   51.4450   -7.2730 O.2    42  ASN42      -0.2716
     33  ND2       14.7460   49.6120   -8.1830 N.am   42  ASN42      -0.0877
     34  N         10.7910   49.5790   -3.8950 N.am   43  GLY43      -0.1957
     35  CA         9.7760   48.9240   -3.0940 C.3    43  GLY43       0.1869
     36  C         10.0680   48.8760   -1.6070 C.2    43  GLY43       0.2309
     37  O          9.5470   48.0220   -0.8920 O.2    43  GLY43      -0.2863
     38  N          9.2730   51.4340    0.2350 N.3    45  GLY45      -0.1210
     39  CA         8.2370   52.2720    0.8130 C.3    45  GLY45       0.1956
     40  C          8.5080   53.7650    0.8760 C.2    45  GLY45       0.2612
     41  O          7.9190   54.4670    1.6970 O.2    45  GLY45      -0.2717
     42  N          9.3960   54.2540    0.0170 N.am   46  LYS46      -0.1965
     43  CA         9.7680   55.6650    0.0380 C.3    46  LYS46       0.1728
     44  C          8.6540   56.5920   -0.4620 C.2    46  LYS46       0.2617
     45  O          8.5380   57.7290    0.0000 O.2    46  LYS46      -0.2715
     46  CB        11.0350   55.8910   -0.7930 C.3    46  LYS46       0.0311
     47  CG        12.2280   55.0640   -0.3470 C.3    46  LYS46       0.0038
     48  CD        13.2190   54.8630   -1.4810 C.3    46  LYS46       0.0206
     49  CE        12.5560   54.2250   -2.6870 C.3    46  LYS46       0.1093
     50  NZ        11.7400   53.0390   -2.3140 N.3    46  LYS46      -0.1314
     51  N          7.8450   56.1200   -1.4050 N.am   47  SER47      -0.1936
     52  CA         6.7340   56.9200   -1.9220 C.3    47  SER47       0.2055
     53  C          5.6460   57.1370   -0.8790 C.2    47  SER47       0.2643
     54  O          5.0740   58.2230   -0.7810 O.2    47  SER47      -0.2714
     55  CB         6.1210   56.2630   -3.1580 C.3    47  SER47       0.2130
     56  OG         5.4490   55.0620   -2.8160 O.3    47  SER47      -0.2179
     57  N          5.3520   56.0880   -0.1190 N.am   48  THR48      -0.1950
     58  CA         4.2760   56.1130    0.8610 C.3    48  THR48       0.1897
     59  C          4.5150   57.1920    1.8990 C.2    48  THR48       0.2313
     60  O          3.5950   57.9130    2.2820 O.2    48  THR48      -0.2863
     61  CB         4.1400   54.7640    1.5690 C.3    48  THR48       0.1794
     62  OG1        4.1780   53.7080    0.6000 O.3    48  THR48      -0.2208
     63  CG2        2.8440   54.7100    2.3600 C.3    48  THR48       0.0378
     64  N          3.4140   60.4510    0.6370 N.3    51  LYS51      -0.1245
     65  CA         1.9590   60.5480    0.5730 C.3    51  LYS51       0.1561
     66  C          1.3220   60.5070    1.9640 C.2    51  LYS51       0.2260
     67  O          0.2620   61.0940    2.1850 O.2    51  LYS51      -0.2867
     68  CB         1.3860   59.4370   -0.3080 C.3    51  LYS51       0.0271
     69  CG         1.8770   59.4940   -1.7480 C.3    51  LYS51       0.0035
     70  CD         1.2050   58.4530   -2.6300 C.3    51  LYS51       0.0206
     71  CE         1.6930   57.0520   -2.3030 C.3    51  LYS51       0.1093
     72  NZ         0.9590   56.0130   -3.0780 N.3    51  LYS51      -0.1314
     73  N          8.3390   62.5620   -9.5820 N.3    91  GLN91      -0.1245
     74  CA         9.1100   62.2160  -10.7620 C.3    91  GLN91       0.1566
     75  C          8.1700   62.1520  -11.9560 C.2    91  GLN91       0.2260
     76  O          6.9520   62.0460  -11.7850 O.2    91  GLN91      -0.2867
     77  CB         9.8050   60.8760  -10.5870 C.3    91  GLN91       0.0367
     78  CG         8.8220   59.7240  -10.4970 C.3    91  GLN91       0.0905
     79  CD         9.4710   58.3850  -10.7600 C.2    91  GLN91       0.2608
     80  OE1        9.8870   58.0970  -11.8840 O.2    91  GLN91      -0.2717
     81  NE2        9.5860   57.5650   -9.7210 N.am   91  GLN91      -0.0878
     82  N         10.0520   63.8110   -5.0000 N.3   168  ASP168     -0.1225
     83  CA         9.9870   62.3670   -5.1260 C.3   168  ASP168      0.1805
     84  C         10.6020   61.9500   -6.4440 C.2   168  ASP168      0.2597
     85  O          9.9300   61.8930   -7.4760 O.2   168  ASP168     -0.2718
     86  CB         8.5350   61.8880   -5.0470 C.3   168  ASP168      0.1424
     87  CG         8.4210   60.4220   -4.6750 C.2   168  ASP168      0.3668
     88  OD1        9.3400   59.6380   -4.9960 O.co2 168  ASP168     -0.2456
     89  OD2        7.3970   60.0490   -4.0660 O.co2 168  ASP168     -0.2456
     90  N         11.8980   61.6500   -6.3730 N.am  169  GLU169     -0.1979
     91  CA        12.6990   61.1590   -7.4870 C.3   169  GLU169      0.1602
     92  C         12.5130   62.0780   -8.7050 C.2   169  GLU169      0.2287
     93  O         12.6770   61.6520   -9.8450 O.2   169  GLU169     -0.2864
     94  CB        12.3330   59.7000   -7.7800 C.3   169  GLU169      0.0415
     95  CG        13.4060   58.8910   -8.5000 C.3   169  GLU169      0.1163
     96  CD        12.8370   57.7320   -9.2930 C.2   169  GLU169      0.3649
     97  OE1       12.2270   57.9630  -10.3500 O.co2 169  GLU169     -0.2457
     98  OE2       12.9830   56.5790   -8.8370 O.co2 169  GLU169     -0.2457
     99  N         13.9940   62.5730   -2.1110 N.3   200  ILE200     -0.1245
    100  CA        14.0340   61.1310   -2.2840 C.3   200  ILE200      0.1561
    101  C         14.8010   60.8560   -3.5640 C.2   200  ILE200      0.2260
    102  O         14.4960   61.4320   -4.6090 O.2   200  ILE200     -0.2867
    103  CB        12.6250   60.5180   -2.3510 C.3   200  ILE200      0.0252
    104  CG1       11.9050   60.6810   -1.0110 C.3   200  ILE200      0.0019
    105  CG2       12.6940   59.0550   -2.7450 C.3   200  ILE200      0.0019
    106  CD1       10.4280   60.3810   -1.0650 C.3   200  ILE200      0.0001
    107  N         17.6250   57.8360   -5.7780 N.3   202  HIS202     -0.1241
    108  CA        18.5080   56.6840   -5.8990 C.3   202  HIS202      0.1621
    109  C         19.9500   57.1170   -6.1420 C.2   202  HIS202      0.2264
    110  O         20.8620   56.2920   -6.1170 O.2   202  HIS202     -0.2867
    111  CB        18.0380   55.7550   -7.0200 C.3   202  HIS202      0.0745
    112  CG        16.7780   55.0130   -6.6990 C.ar  202  HIS202      0.0817
    113  ND1       15.6150   55.1690   -7.4210 N.ar  202  HIS202     -0.2268
    114  CD2       16.5010   54.1030   -5.7340 C.ar  202  HIS202      0.1154
    115  CE1       14.6750   54.3910   -6.9140 C.ar  202  HIS202      0.1986
    116  NE2       15.1870   53.7330   -5.8890 N.ar  202  HIS202     -0.2212
@<TRIPOS>BOND
     1    75    76    2
     2    75    74    1
     3    80    79    2
     4    74    77    1
     5    74    73    1
     6    79    78    1
     7    79    81   am
     8    77    78    1
     9    97    96   ar
    10    93    92    2
    11    96    98   ar
    12    96    95    1
    13    92    91    1
    14    95    94    1
    15    33    31   am
    16    94    91    1
    17    91    90    1
    18    85    84    2
    19   113   115   ar
    20   113   112   ar
    21    31    32    2
    22    31    30    1
    23   111   112    1
    24   111   108    1
    25   115   116   ar
    26   112   114   ar
    27    30    27    1
    28    84    90   am
    29    84    83    1
    30   109   110    2
    31   109   108    1
    32   108   107    1
    33   116   114   ar
    34    83    86    1
    35    83    82    1
    36    27    26    1
    37    27    28    1
    38    86    87    1
    39    88    87   ar
    40    87    89   ar
    41   102   101    2
    42    28    29    2
    43    28    34   am
    44    18    16    1
    45    34    35    1
    46   101   100    1
    47    16    17    1
    48    16    13    1
    49    55    56    1
    50    55    52    1
    51    35    36    1
    52    72    71    1
    53   105   103    1
    54    49    50    1
    55    49    48    1
    56    70    71    1
    57    70    69    1
    58   103   100    1
    59   103   104    1
    60   100    99    1
    61    52    51    1
    62    52    53    1
    63    13    12    1
    64    13    14    1
    65    12     3   am
    66    69    68    1
    67    36    37    2
    68    48    47    1
    69    51    44   am
    70   106   104    1
    71     4     3    2
    72     3     2    1
    73    15    14    2
    74    53    54    2
    75    53    57   am
    76     5     6    1
    77     5     2    1
    78    46    47    1
    79    46    43    1
    80     7     6   ar
    81     7     9   ar
    82     6     8   ar
    83    44    45    2
    84    44    43    1
    85     9    11   ar
    86    68    65    1
    87     8    10   ar
    88     2     1    1
    89    57    58    1
    90    11    10   ar
    91    42    43    1
    92    42    40   am
    93    38    39    1
    94    65    64    1
    95    65    66    1
    96    62    61    1
    97    39    40    1
    98    58    61    1
    99    58    59    1
   100    40    41    2
   101    61    63    1
   102    23    24    1
   103    23    20    1
   104    59    60    2
   105    66    67    2
   106    24    25    1
   107    20    19    1
   108    20    21    1
   109    25    19    1
   110    21    22    2
