@<TRIPOS>MOLECULE
tmp/5d3nA00.pdb
 135 131 0 0 0
SMALL
GASTEIGER

@<TRIPOS>ATOM
      1  N         -3.7700    0.3620    1.9080 N.3    39  TRP39      -0.1228
      2  CA        -3.5530    1.7160    2.4600 C.3    39  TRP39       0.1722
      3  C         -4.8280    2.6130    2.6210 C.2    39  TRP39       0.2437
      4  O         -4.9410    3.3350    3.6110 O.2    39  TRP39      -0.2733
      5  CB        -2.4160    2.4810    1.7310 C.3    39  TRP39       0.0563
      6  CG        -2.7070    2.7920    0.3170 C.ar   39  TRP39       0.0003
      7  CD1       -2.3630    2.0410   -0.7650 C.ar   39  TRP39       0.0946
      8  CD2       -3.4280    3.9350   -0.1980 C.ar   39  TRP39       0.0152
      9  NE1       -2.8340    2.6290   -1.9220 N.ar   39  TRP39      -0.2442
     10  CE2       -3.4910    3.7870   -1.6060 C.ar   39  TRP39       0.0810
     11  CE3       -4.0530    5.0440    0.3960 C.ar   39  TRP39       0.0012
     12  CZ2       -4.1210    4.7060   -2.4210 C.ar   39  TRP39       0.0191
     13  CZ3       -4.6930    5.9590   -0.4200 C.ar   39  TRP39       0.0001
     14  CH2       -4.7160    5.7890   -1.8140 C.ar   39  TRP39       0.0015
     15  N         -5.7710    2.5640    1.6630 N.am   40  PRO40      -0.2718
     16  CA        -7.0110    3.3220    1.8300 C.3    40  PRO40       0.1535
     17  C         -7.8560    2.9040    3.0290 C.2    40  PRO40       0.2598
     18  O         -8.6440    3.6970    3.5090 O.2    40  PRO40      -0.2715
     19  CB        -7.7830    3.0480    0.5390 C.3    40  PRO40       0.0310
     20  CG        -6.7600    2.5680   -0.4330 C.3    40  PRO40       0.0237
     21  CD        -5.7820    1.7950    0.4050 C.3    40  PRO40       0.0939
     22  N         -7.6920    1.6680    3.4880 N.am   41  PHE41      -0.1974
     23  CA        -8.4770    1.1000    4.5680 C.3    41  PHE41       0.1639
     24  C         -7.7150    1.0580    5.9020 C.2    41  PHE41       0.2290
     25  O         -8.2120    0.5290    6.8820 O.2    41  PHE41      -0.2864
     26  CB        -8.9170   -0.3060    4.1630 C.3    41  PHE41       0.0560
     27  CG        -9.6430   -0.3360    2.8550 C.ar   41  PHE41      -0.0200
     28  CD1      -11.0020   -0.0680    2.7980 C.ar   41  PHE41      -0.0042
     29  CD2       -8.9550   -0.5850    1.6640 C.ar   41  PHE41      -0.0042
     30  CE1      -11.6700   -0.0540    1.5760 C.ar   41  PHE41      -0.0003
     31  CE2       -9.6190   -0.5810    0.4450 C.ar   41  PHE41      -0.0003
     32  CZ       -10.9780   -0.3090    0.4030 C.ar   41  PHE41      -0.0000
     33  N         -6.9250    3.4740    7.8690 N.3    43  GLN43      -0.1245
     34  CA        -7.3620    4.5260    8.7840 C.3    43  GLN43       0.1566
     35  C         -8.7680    5.0070    8.4240 C.2    43  GLN43       0.2260
     36  O         -9.2680    4.7100    7.3360 O.2    43  GLN43      -0.2867
     37  CB        -6.3980    5.7090    8.7640 C.3    43  GLN43       0.0367
     38  CG        -6.2490    6.4240    7.4190 C.3    43  GLN43       0.0905
     39  CD        -5.5120    5.5860    6.4050 C.2    43  GLN43       0.2608
     40  OE1       -4.3550    5.1990    6.6370 O.2    43  GLN43      -0.2717
     41  NE2       -6.1630    5.2930    5.2740 N.am   43  GLN43      -0.0878
     42  N        -11.7030    7.2130    7.0340 N.3    45  VAL45      -0.1231
     43  CA       -11.7750    8.0840    5.8850 C.3    45  VAL45       0.1692
     44  C        -11.7440    9.5370    6.4020 C.2    45  VAL45       0.2592
     45  O        -12.6240    9.9660    7.1370 O.2    45  VAL45      -0.2718
     46  CB       -13.0530    7.8190    5.0560 C.3    45  VAL45       0.0266
     47  CG1      -13.2020    8.8890    3.9910 C.3    45  VAL45       0.0020
     48  CG2      -13.0270    6.4230    4.4380 C.3    45  VAL45       0.0020
     49  N        -10.6980   10.2690    6.0490 N.am   46  ASP46      -0.1974
     50  CA       -10.6530   11.6930    6.3390 C.3    46  ASP46       0.1709
     51  C        -11.3860   12.4350    5.2240 C.2    46  ASP46       0.2293
     52  O        -10.8040   12.8280    4.2020 O.2    46  ASP46      -0.2864
     53  CB        -9.2110   12.1430    6.4800 C.3    46  ASP46       0.1436
     54  CG        -9.0770   13.6120    6.7810 C.2    46  ASP46       0.3671
     55  OD1      -10.0590   14.3720    6.7200 O.co2  46  ASP46      -0.2456
     56  OD2       -7.9410   13.9850    7.0640 O.co2  46  ASP46      -0.2456
     57  N        -10.1350   16.0610    4.3040 N.3    49  LYS49      -0.1231
     58  CA        -8.9480   16.1010    3.4560 C.3    49  LYS49       0.1693
     59  C         -9.2570   15.7050    2.0260 C.2    49  LYS49       0.2591
     60  O         -8.6990   16.2670    1.0920 O.2    49  LYS49      -0.2718
     61  CB        -7.8490   15.1810    3.9990 C.3    49  LYS49       0.0285
     62  CG        -6.5690   15.2790    3.1800 C.3    49  LYS49       0.0035
     63  CD        -5.4590   14.4040    3.7340 C.3    49  LYS49       0.0206
     64  CE        -4.1120   14.7750    3.1210 C.3    49  LYS49       0.1093
     65  NZ        -3.1950   13.6110    3.2460 N.3    49  LYS49      -0.1314
     66  N        -10.1240   14.7030    1.8700 N.am   50  LEU50      -0.1980
     67  CA       -10.5190   14.2320    0.5550 C.3    50  LEU50       0.1596
     68  C        -11.6500   15.0410   -0.0540 C.2    50  LEU50       0.2287
     69  O        -12.0850   14.7640   -1.1580 O.2    50  LEU50      -0.2864
     70  CB       -10.9260   12.7750    0.6450 C.3    50  LEU50       0.0297
     71  CG        -9.7970   11.8380    1.0430 C.3    50  LEU50       0.0022
     72  CD1      -10.3970   10.5030    1.4750 C.3    50  LEU50       0.0001
     73  CD2       -8.8170   11.6820   -0.1150 C.3    50  LEU50       0.0001
     74  N        -14.8610   15.1520    0.7800 N.3    52  LEU52      -0.1245
     75  CA       -16.0700   14.3280    0.6800 C.3    52  LEU52       0.1561
     76  C        -17.0260   14.7340    1.7850 C.2    52  LEU52       0.2260
     77  O        -17.1260   14.0550    2.7960 O.2    52  LEU52      -0.2867
     78  CB       -15.7180   12.8320    0.7950 C.3    52  LEU52       0.0270
     79  CG       -14.6720   12.2550   -0.1740 C.3    52  LEU52       0.0019
     80  CD1      -14.5180   10.7820    0.0890 C.3    52  LEU52       0.0001
     81  CD2      -15.0240   12.4700   -1.6390 C.3    52  LEU52       0.0001
     82  N        -19.8460   12.0080    2.6890 N.3    55  TYR55      -0.1241
     83  CA       -19.4850   10.6410    3.0730 C.3    55  TYR55       0.1605
     84  C        -20.1240   10.1940    4.3870 C.2    55  TYR55       0.2264
     85  O        -20.7570    9.1350    4.4850 O.2    55  TYR55      -0.2867
     86  CB       -17.9470   10.4890    3.1780 C.3    55  TYR55       0.0534
     87  CG       -17.5310    9.0700    3.4950 C.ar   55  TYR55      -0.0201
     88  CD1      -17.4900    8.0940    2.5000 C.ar   55  TYR55      -0.0009
     89  CD2      -17.2220    8.6920    4.8020 C.ar   55  TYR55      -0.0009
     90  CE1      -17.1570    6.7840    2.7930 C.ar   55  TYR55       0.0417
     91  CE2      -16.8650    7.3850    5.1140 C.ar   55  TYR55       0.0417
     92  CZ       -16.8300    6.4310    4.1090 C.ar   55  TYR55       0.1957
     93  OH       -16.4850    5.1210    4.4250 O.3    55  TYR55      -0.2866
     94  N        -16.8770   -2.4920    6.8600 N.3    90  MET90      -0.1245
     95  CA       -15.8550   -1.7900    6.1040 C.3    90  MET90       0.1570
     96  C        -16.0160   -1.9840    4.6150 C.2    90  MET90       0.2261
     97  O        -15.9330   -1.0060    3.8550 O.2    90  MET90      -0.2867
     98  CB       -14.4820   -2.2880    6.5230 C.3    90  MET90       0.0387
     99  CG       -13.3530   -1.5980    5.8100 C.3    90  MET90       0.0595
    100  SD       -11.7240   -2.0740    6.3870 S.3    90  MET90      -0.1393
    101  CE       -11.5530   -3.6430    5.5580 C.3    90  MET90       0.0692
    102  N        -17.8360    0.6590    1.6380 N.3    94  CYS94      -0.1235
    103  CA       -17.1170    1.0590    0.4490 C.3    94  CYS94       0.1677
    104  C        -17.9700    0.8490   -0.7900 C.2    94  CYS94       0.2270
    105  O        -17.9760    1.6990   -1.6850 O.2    94  CYS94      -0.2867
    106  CB       -15.8020    0.2770    0.3410 C.3    94  CYS94       0.0956
    107  SG       -14.8280    0.7290   -1.0820 S.3    94  CYS94      -0.0801
    108  N        -20.9250    3.7180   -0.8410 N.3    97  TYR97      -0.1227
    109  CA       -20.5440    5.1030   -1.1550 C.3    97  TYR97       0.1736
    110  C        -20.0380    5.2990   -2.5740 C.2    97  TYR97       0.2595
    111  O        -20.2560    6.3500   -3.1670 O.2    97  TYR97      -0.2718
    112  CB       -19.5100    5.6340   -0.1810 C.3    97  TYR97       0.0548
    113  CG       -19.1670    7.0740   -0.4520 C.ar   97  TYR97      -0.0200
    114  CD1      -20.0150    8.1040   -0.0480 C.ar   97  TYR97      -0.0009
    115  CD2      -17.9900    7.4080   -1.1290 C.ar   97  TYR97      -0.0009
    116  CE1      -19.7120    9.4250   -0.3300 C.ar   97  TYR97       0.0417
    117  CE2      -17.6650    8.7230   -1.3940 C.ar   97  TYR97       0.0417
    118  CZ       -18.5250    9.7360   -1.0080 C.ar   97  TYR97       0.1957
    119  OH       -18.1690   11.0430   -1.2760 O.3    97  TYR97      -0.2866
    120  N        -19.3620    4.2800   -3.1020 N.am   98  ASN98      -0.1974
    121  CA       -18.6850    4.3570   -4.3830 C.3    98  ASN98       0.1688
    122  C        -19.4120    3.6180   -5.4790 C.2    98  ASN98       0.2292
    123  O        -20.1840    2.7210   -5.1890 O.2    98  ASN98      -0.2864
    124  CB       -17.2620    3.7820   -4.2350 C.3    98  ASN98       0.1181
    125  CG       -16.4540    4.5050   -3.1870 C.2    98  ASN98       0.2629
    126  OD1      -15.9920    5.6120   -3.4270 O.2    98  ASN98      -0.2716
    127  ND2      -16.2960    3.8900   -2.0020 N.am   98  ASN98      -0.0877
    128  N        -11.2340    2.0400   -5.8270 N.3   104  ILE104     -0.1245
    129  CA       -11.4050    1.7330   -4.4120 C.3   104  ILE104      0.1561
    130  C        -12.2210    0.4440   -4.2280 C.2   104  ILE104      0.2260
    131  O        -11.9030   -0.3830   -3.3820 O.2   104  ILE104     -0.2867
    132  CB       -12.0450    2.9040   -3.6560 C.3   104  ILE104      0.0252
    133  CG1      -11.9470    2.6840   -2.1380 C.3   104  ILE104      0.0019
    134  CG2      -13.4920    3.1130   -4.0800 C.3   104  ILE104      0.0019
    135  CD1      -10.6060    3.0720   -1.5580 C.3   104  ILE104      0.0001
@<TRIPOS>BOND
     1   128   129    1
     2   122   123    2
     3   122   121    1
     4   129   130    1
     5   129   132    1
     6   121   124    1
     7   121   120    1
     8   124   125    1
     9   130   131    2
    10   134   132    1
    11   132   133    1
    12   126   125    2
    13   125   127   am
    14   111   110    2
    15   120   110   am
    16   110   109    1
    17    12    14   ar
    18    12    10   ar
    19   133   135    1
    20     9    10   ar
    21     9     7   ar
    22    14    13   ar
    23   105   104    2
    24    81    79    1
    25    10     8   ar
    26   117   115   ar
    27   117   118   ar
    28   119   118    1
    29    69    68    2
    30   109   108    1
    31   109   112    1
    32   115   113   ar
    33   107   106    1
    34   118   116   ar
    35   104   103    1
    36     7     6   ar
    37   113   112    1
    38   113   114   ar
    39    20    21    1
    40    20    19    1
    41    13    11   ar
    42   116   114   ar
    43     8     6   ar
    44     8    11   ar
    45    79    80    1
    46    79    78    1
    47    73    71    1
    48    68    67    1
    49     6     5    1
    50   106   103    1
    51    32    31   ar
    52    32    30   ar
    53    21    15    1
    54    31    29   ar
    55   103   102    1
    56    19    16    1
    57    67    70    1
    58    67    66    1
    59    70    71    1
    60    75    74    1
    61    75    78    1
    62    75    76    1
    63    71    72    1
    64    60    59    2
    65    30    28   ar
    66    15    16    1
    67    15     3   am
    68    29    27   ar
    69     5     2    1
    70    76    77    2
    71    16    17    1
    72    66    59   am
    73     1     2    1
    74    59    58    1
    75     2     3    1
    76    88    90   ar
    77    88    87   ar
    78     3     4    2
    79    82    83    1
    80    90    92   ar
    81    28    27   ar
    82    27    26    1
    83    17    22   am
    84    17    18    2
    85    83    86    1
    86    83    84    1
    87    64    65    1
    88    64    63    1
    89    86    87    1
    90    62    63    1
    91    62    61    1
    92    58    61    1
    93    58    57    1
    94    22    23    1
    95    87    89   ar
    96    97    96    2
    97    47    46    1
    98    92    93    1
    99    92    91   ar
   100    26    23    1
   101    52    51    2
   102    84    85    2
   103    48    46    1
   104    23    24    1
   105    96    95    1
   106    89    91   ar
   107    46    43    1
   108    51    50    1
   109    41    39   am
   110   101   100    1
   111    99   100    1
   112    99    98    1
   113    43    44    1
   114    43    42    1
   115    24    25    2
   116    49    50    1
   117    49    44   am
   118    95    98    1
   119    95    94    1
   120    50    53    1
   121    44    45    2
   122    39    40    2
   123    39    38    1
   124    53    54    1
   125    55    54   ar
   126    54    56   ar
   127    36    35    2
   128    38    37    1
   129    33    34    1
   130    35    34    1
   131    37    34    1
