@<TRIPOS>MOLECULE
tmp/5d3pA00.pdb
 151 145 0 0 0
SMALL
GASTEIGER

@<TRIPOS>ATOM
      1  N         -2.8810    0.5700    2.6330 N.3    40  TRP40      -0.1228
      2  CA        -2.7140    1.9340    3.1600 C.3    40  TRP40       0.1722
      3  C         -3.9890    2.8270    3.2220 C.2    40  TRP40       0.2437
      4  O         -4.1600    3.5620    4.2060 O.2    40  TRP40      -0.2733
      5  CB        -1.5380    2.6630    2.4830 C.3    40  TRP40       0.0563
      6  CG        -1.7320    2.9380    1.0260 C.ar   40  TRP40       0.0003
      7  CD1       -1.2720    2.1870   -0.0090 C.ar   40  TRP40       0.0946
      8  CD2       -2.4460    4.0330    0.4430 C.ar   40  TRP40       0.0152
      9  NE1       -1.6530    2.7430   -1.1960 N.ar   40  TRP40      -0.2442
     10  CE2       -2.3830    3.8710   -0.9490 C.ar   40  TRP40       0.0810
     11  CE3       -3.1430    5.1330    0.9670 C.ar   40  TRP40       0.0012
     12  CZ2       -2.9800    4.7730   -1.8420 C.ar   40  TRP40       0.0191
     13  CZ3       -3.7500    6.0260    0.0780 C.ar   40  TRP40       0.0001
     14  CH2       -3.6580    5.8410   -1.3040 C.ar   40  TRP40       0.0015
     15  N         -4.8850    2.7620    2.2060 N.am   41  PRO41      -0.2718
     16  CA        -6.0870    3.6040    2.2750 C.3    41  PRO41       0.1535
     17  C         -7.0530    3.2050    3.4140 C.2    41  PRO41       0.2598
     18  O         -7.9880    3.9730    3.7290 O.2    41  PRO41      -0.2715
     19  CB        -6.7710    3.3930    0.9110 C.3    41  PRO41       0.0310
     20  CG        -5.7430    2.7490    0.0330 C.3    41  PRO41       0.0237
     21  CD        -4.8810    1.9450    0.9840 C.3    41  PRO41       0.0939
     22  N         -6.8290    2.0320    3.9930 N.am   42  PHE42      -0.1974
     23  CA        -7.6930    1.4510    5.0140 C.3    42  PHE42       0.1639
     24  C         -7.0060    1.3580    6.3790 C.2    42  PHE42       0.2290
     25  O         -7.5870    0.8470    7.3310 O.2    42  PHE42      -0.2864
     26  CB        -8.1450    0.0530    4.5520 C.3    42  PHE42       0.0560
     27  CG        -8.7560    0.0490    3.1790 C.ar   42  PHE42      -0.0200
     28  CD1      -10.1050    0.3580    2.9940 C.ar   42  PHE42      -0.0042
     29  CD2       -7.9760   -0.2090    2.0660 C.ar   42  PHE42      -0.0042
     30  CE1      -10.6620    0.3820    1.7140 C.ar   42  PHE42      -0.0003
     31  CE2       -8.5210   -0.1820    0.7920 C.ar   42  PHE42      -0.0003
     32  CZ        -9.8740    0.1160    0.6210 C.ar   42  PHE42      -0.0000
     33  N         -6.1870    3.8250    8.3670 N.3    44  GLN44      -0.1245
     34  CA        -6.6800    4.8740    9.2620 C.3    44  GLN44       0.1566
     35  C         -8.0550    5.3490    8.7870 C.2    44  GLN44       0.2260
     36  O         -8.4400    5.0730    7.6470 O.2    44  GLN44      -0.2867
     37  CB        -5.6990    6.0360    9.3250 C.3    44  GLN44       0.0367
     38  CG        -5.4920    6.7670    7.9970 C.3    44  GLN44       0.0905
     39  CD        -4.7150    5.9280    7.0170 C.2    44  GLN44       0.2608
     40  OE1       -3.6350    5.4470    7.3400 O.2    44  GLN44      -0.2717
     41  NE2       -5.2900    5.6970    5.8290 N.am   44  GLN44      -0.0878
     42  N        -10.9240    7.6180    7.1520 N.3    46  VAL46      -0.1231
     43  CA       -10.8960    8.5400    6.0320 C.3    46  VAL46       0.1692
     44  C        -10.8230    9.9680    6.5590 C.2    46  VAL46       0.2592
     45  O        -11.6750   10.3880    7.3580 O.2    46  VAL46      -0.2718
     46  CB       -12.1310    8.3750    5.1360 C.3    46  VAL46       0.0266
     47  CG1      -12.1240    9.4180    4.0350 C.3    46  VAL46       0.0020
     48  CG2      -12.1620    6.9810    4.5380 C.3    46  VAL46       0.0020
     49  N         -9.7910   10.7030    6.1390 N.am   47  ASP47      -0.1974
     50  CA        -9.6700   12.1080    6.4740 C.3    47  ASP47       0.1709
     51  C        -10.3940   12.8970    5.3720 C.2    47  ASP47       0.2293
     52  O         -9.8140   13.2330    4.3410 O.2    47  ASP47      -0.2864
     53  CB        -8.1990   12.5350    6.5810 C.3    47  ASP47       0.1436
     54  CG        -8.0440   13.9740    7.0590 C.2    47  ASP47       0.3671
     55  OD1       -9.0090   14.7510    6.9400 O.co2  47  ASP47      -0.2456
     56  OD2       -6.9630   14.3350    7.5610 O.co2  47  ASP47      -0.2456
     57  N         -8.8760   16.5240    4.5970 N.3    50  LYS50      -0.1231
     58  CA        -7.6950   16.4990    3.7130 C.3    50  LYS50       0.1693
     59  C         -8.0560   16.1220    2.2810 C.2    50  LYS50       0.2591
     60  O         -7.5630   16.7370    1.3370 O.2    50  LYS50      -0.2718
     61  CB        -6.6240   15.5330    4.2380 C.3    50  LYS50       0.0285
     62  CG        -5.3530   15.5550    3.4040 C.3    50  LYS50       0.0035
     63  CD        -4.3280   14.5420    3.9030 C.3    50  LYS50       0.0206
     64  CE        -2.9710   14.7880    3.2570 C.3    50  LYS50       0.1093
     65  NZ        -1.9290   13.8600    3.7840 N.3    50  LYS50      -0.1314
     66  N         -8.9340   15.1320    2.1350 N.am   51  LEU51      -0.1980
     67  CA        -9.3450   14.6180    0.8310 C.3    51  LEU51       0.1596
     68  C        -10.4660   15.4280    0.1730 C.2    51  LEU51       0.2287
     69  O        -10.8300   15.1600   -0.9800 O.2    51  LEU51      -0.2864
     70  CB        -9.7620   13.1610    0.9670 C.3    51  LEU51       0.0297
     71  CG        -8.6310   12.2180    1.3400 C.3    51  LEU51       0.0022
     72  CD1       -9.1580   10.8740    1.7970 C.3    51  LEU51       0.0001
     73  CD2       -7.6800   12.0220    0.1640 C.3    51  LEU51       0.0001
     74  N        -13.7600   15.6350    0.8740 N.3    53  LEU53      -0.1245
     75  CA       -14.9410   14.8030    0.6750 C.3    53  LEU53       0.1561
     76  C        -15.9880   15.1800    1.7180 C.2    53  LEU53       0.2260
     77  O        -16.2720   14.4040    2.6190 O.2    53  LEU53      -0.2867
     78  CB       -14.5500   13.3160    0.8050 C.3    53  LEU53       0.0270
     79  CG       -13.4170   12.8460   -0.1220 C.3    53  LEU53       0.0019
     80  CD1      -13.0220   11.4090    0.2020 C.3    53  LEU53       0.0001
     81  CD2      -13.7860   12.9660   -1.5920 C.3    53  LEU53       0.0001
     82  N        -18.8020   12.6020    2.6450 N.3    56  TYR56      -0.1241
     83  CA       -18.4760   11.2410    3.0840 C.3    56  TYR56       0.1605
     84  C        -19.1660   10.8170    4.3810 C.2    56  TYR56       0.2264
     85  O        -19.8320    9.7810    4.4360 O.2    56  TYR56      -0.2867
     86  CB       -16.9540   11.0500    3.2310 C.3    56  TYR56       0.0534
     87  CG       -16.6120    9.6300    3.5740 C.ar   56  TYR56      -0.0201
     88  CD1      -16.5540    8.6530    2.5800 C.ar   56  TYR56      -0.0009
     89  CD2      -16.3980    9.2420    4.8830 C.ar   56  TYR56      -0.0009
     90  CE1      -16.2840    7.3480    2.8940 C.ar   56  TYR56       0.0417
     91  CE2      -16.1040    7.9290    5.2000 C.ar   56  TYR56       0.0417
     92  CZ       -16.0620    6.9820    4.1960 C.ar   56  TYR56       0.1957
     93  OH       -15.7860    5.6450    4.5010 O.3    56  TYR56      -0.2866
     94  N        -15.5520    2.6840    9.4470 N.3    64  MET64      -0.1245
     95  CA       -14.6490    1.7110   10.0540 C.3    64  MET64       0.1570
     96  C        -13.4010    1.5820    9.1990 C.2    64  MET64       0.2261
     97  O        -13.4420    1.8000    7.9840 O.2    64  MET64      -0.2867
     98  CB       -15.3570    0.3570   10.1800 C.3    64  MET64       0.0387
     99  CG       -14.5760   -0.7120   10.9420 C.3    64  MET64       0.0595
    100  SD       -14.0080   -0.1710   12.5590 S.3    64  MET64      -0.1393
    101  CE       -15.5690    0.1640   13.3630 C.3    64  MET64       0.0692
    102  N        -16.3250   -2.0210    6.9160 N.3    91  MET91      -0.1245
    103  CA       -15.2830   -1.2850    6.1980 C.3    91  MET91       0.1570
    104  C        -15.3980   -1.4460    4.6830 C.2    91  MET91       0.2261
    105  O        -15.3670   -0.4630    3.9390 O.2    91  MET91      -0.2867
    106  CB       -13.8970   -1.7340    6.6560 C.3    91  MET91       0.0387
    107  CG       -12.7410   -0.9990    5.9810 C.3    91  MET91       0.0595
    108  SD       -11.1480   -1.5910    6.5700 S.3    91  MET91      -0.1393
    109  CE       -11.0440   -3.1380    5.6630 C.3    91  MET91       0.0692
    110  N        -16.9940    1.2810    1.6250 N.3    95  CYS95      -0.1235
    111  CA       -16.2130    1.5980    0.4310 C.3    95  CYS95       0.1677
    112  C        -17.0370    1.4360   -0.8390 C.2    95  CYS95       0.2270
    113  O        -17.0270    2.3180   -1.7220 O.2    95  CYS95      -0.2867
    114  CB       -14.9430    0.7430    0.3560 C.3    95  CYS95       0.0956
    115  SG       -13.8440    1.2450   -0.9970 S.3    95  CYS95      -0.0801
    116  N        -19.9810    4.2180   -1.0240 N.3    98  TYR98      -0.1227
    117  CA       -19.5600    5.5830   -1.3250 C.3    98  TYR98       0.1736
    118  C        -18.9320    5.7590   -2.7210 C.2    98  TYR98       0.2595
    119  O        -19.2010    6.7570   -3.3880 O.2    98  TYR98      -0.2718
    120  CB       -18.5740    6.0910   -0.2710 C.3    98  TYR98       0.0548
    121  CG       -18.1440    7.5110   -0.5270 C.ar   98  TYR98      -0.0200
    122  CD1      -18.9750    8.5710   -0.2020 C.ar   98  TYR98      -0.0009
    123  CD2      -16.9230    7.7950   -1.1300 C.ar   98  TYR98      -0.0009
    124  CE1      -18.5990    9.8770   -0.4550 C.ar   98  TYR98       0.0417
    125  CE2      -16.5280    9.1000   -1.3730 C.ar   98  TYR98       0.0417
    126  CZ       -17.3740   10.1420   -1.0320 C.ar   98  TYR98       0.1957
    127  OH       -17.0010   11.4540   -1.2650 O.3    98  TYR98      -0.2866
    128  N        -18.1100    4.7990   -3.1460 N.am   99  ASN99      -0.1974
    129  CA       -17.3510    4.8990   -4.3960 C.3    99  ASN99       0.1688
    130  C        -18.0040    4.1420   -5.5780 C.2    99  ASN99       0.2292
    131  O        -18.8210    3.2330   -5.3890 O.2    99  ASN99      -0.2864
    132  CB       -15.9280    4.4010   -4.1520 C.3    99  ASN99       0.1181
    133  CG       -15.2450    5.1390   -2.9900 C.2    99  ASN99       0.2629
    134  OD1      -14.7230    6.2500   -3.1500 O.2    99  ASN99      -0.2716
    135  ND2      -15.2560    4.5280   -1.8150 N.am   99  ASN99      -0.0877
    136  N        -10.0410    2.7720   -5.3660 N.3   105  ILE105     -0.1245
    137  CA       -10.2750    2.4030   -3.9690 C.3   105  ILE105      0.1561
    138  C        -11.1350    1.1330   -3.8740 C.2   105  ILE105      0.2260
    139  O        -10.8800    0.2800   -3.0380 O.2   105  ILE105     -0.2867
    140  CB       -10.9220    3.5640   -3.1790 C.3   105  ILE105      0.0252
    141  CG1      -10.9200    3.2640   -1.6740 C.3   105  ILE105      0.0019
    142  CG2      -12.3220    3.8890   -3.7090 C.3   105  ILE105      0.0019
    143  CD1       -9.5350    3.3560   -1.0680 C.3   105  ILE105      0.0001
    144  N         -9.0490   -1.8870   -4.8170 N.3   108  MET108     -0.1245
    145  CA        -8.1750   -2.1480   -3.6960 C.3   108  MET108      0.1570
    146  C         -8.9220   -2.8560   -2.5680 C.2   108  MET108      0.2261
    147  O         -8.3970   -3.8080   -1.9800 O.2   108  MET108     -0.2867
    148  CB        -7.5520   -0.8330   -3.2190 C.3   108  MET108      0.0387
    149  CG        -6.5790   -0.2370   -4.2420 C.3   108  MET108      0.0595
    150  SD        -5.9660    1.3870   -3.7720 S.3   108  MET108     -0.1393
    151  CE        -4.4610    0.9650   -2.9030 C.3   108  MET108      0.0692
@<TRIPOS>BOND
     1   130   131    2
     2   130   129    1
     3   136   137    1
     4   144   145    1
     5   129   132    1
     6   129   128    1
     7   149   150    1
     8   149   148    1
     9   132   133    1
    10   137   138    1
    11   137   140    1
    12   138   139    2
    13   150   151    1
    14   142   140    1
    15   145   148    1
    16   145   146    1
    17   119   118    2
    18   140   141    1
    19   134   133    2
    20   128   118   am
    21   133   135   am
    22   118   117    1
    23   146   147    2
    24    12    14   ar
    25    12    10   ar
    26   113   112    2
    27   141   143    1
    28    81    79    1
    29   125   123   ar
    30   125   126   ar
    31   117   116    1
    32   117   120    1
    33    14    13   ar
    34   127   126    1
    35     9    10   ar
    36     9     7   ar
    37   123   121   ar
    38   126   124   ar
    39   115   114    1
    40    69    68    2
    41    10     8   ar
    42   112   111    1
    43   121   120    1
    44   121   122   ar
    45   124   122   ar
    46    79    80    1
    47    79    78    1
    48     7     6   ar
    49    20    19    1
    50    20    21    1
    51    13    11   ar
    52    73    71    1
    53    68    67    1
    54   114   111    1
    55   111   110    1
    56     8    11   ar
    57     8     6   ar
    58    32    31   ar
    59    32    30   ar
    60    75    78    1
    61    75    74    1
    62    75    76    1
    63    31    29   ar
    64    67    70    1
    65    67    66    1
    66    19    16    1
    67    70    71    1
    68    21    15    1
    69     6     5    1
    70    60    59    2
    71    71    72    1
    72    30    28   ar
    73    76    77    2
    74    29    27   ar
    75    66    59   am
    76    15    16    1
    77    15     3   am
    78    16    17    1
    79    59    58    1
    80     5     2    1
    81    88    90   ar
    82    88    87   ar
    83     1     2    1
    84    82    83    1
    85    90    92   ar
    86    28    27   ar
    87    83    86    1
    88    83    84    1
    89     2     3    1
    90    27    26    1
    91     3     4    2
    92    86    87    1
    93    64    65    1
    94    64    63    1
    95    62    63    1
    96    62    61    1
    97    17    18    2
    98    17    22   am
    99    87    89   ar
   100    58    61    1
   101    58    57    1
   102   105   104    2
   103    22    23    1
   104    47    46    1
   105    92    93    1
   106    92    91   ar
   107    52    51    2
   108    84    85    2
   109    48    46    1
   110    26    23    1
   111   104   103    1
   112    89    91   ar
   113    23    24    1
   114    46    43    1
   115    51    50    1
   116   109   108    1
   117    41    39   am
   118   107   108    1
   119   107   106    1
   120    43    44    1
   121    43    42    1
   122    49    50    1
   123    49    44   am
   124   103   106    1
   125   103   102    1
   126    24    25    2
   127    50    53    1
   128    44    45    2
   129    53    54    1
   130    55    54   ar
   131    39    40    2
   132    39    38    1
   133    54    56   ar
   134    36    35    2
   135    97    96    2
   136    38    37    1
   137    33    34    1
   138    35    34    1
   139    96    95    1
   140    34    37    1
   141    94    95    1
   142    95    98    1
   143    98    99    1
   144    99   100    1
   145   100   101    1
