@<TRIPOS>MOLECULE
tmp/5d3rA00.pdb
 135 131 0 0 0
SMALL
GASTEIGER

@<TRIPOS>ATOM
      1  N          9.4110   -1.7760   -7.5560 N.3    40  TRP40      -0.1228
      2  CA        10.8390   -1.5800   -7.8690 C.3    40  TRP40       0.1722
      3  C         11.6410   -2.8510   -8.1840 C.2    40  TRP40       0.2437
      4  O         12.4820   -2.8290   -9.0870 O.2    40  TRP40      -0.2733
      5  CB        11.5430   -0.7350   -6.7890 C.3    40  TRP40       0.0563
      6  CG        11.4420   -1.2660   -5.3850 C.ar   40  TRP40       0.0003
      7  CD1       10.4420   -1.0250   -4.4940 C.ar   40  TRP40       0.0946
      8  CD2       12.3740   -2.1280   -4.7170 C.ar   40  TRP40       0.0152
      9  NE1       10.6900   -1.6770   -3.3160 N.ar   40  TRP40      -0.2442
     10  CE2       11.8680   -2.3670   -3.4280 C.ar   40  TRP40       0.0810
     11  CE3       13.5810   -2.7300   -5.0880 C.ar   40  TRP40       0.0012
     12  CZ2       12.5310   -3.1810   -2.4990 C.ar   40  TRP40       0.0191
     13  CZ3       14.2410   -3.5400   -4.1610 C.ar   40  TRP40       0.0001
     14  CH2       13.7120   -3.7550   -2.8870 C.ar   40  TRP40       0.0015
     15  N         11.3780   -3.9580   -7.4710 N.am   41  PRO41      -0.2718
     16  CA        12.1220   -5.1840   -7.7870 C.3    41  PRO41       0.1535
     17  C         11.8580   -5.7400   -9.1910 C.2    41  PRO41       0.2598
     18  O         12.7200   -6.4130   -9.7450 O.2    41  PRO41      -0.2715
     19  CB        11.6450   -6.1830   -6.7200 C.3    41  PRO41       0.0310
     20  CG        11.0030   -5.3580   -5.6590 C.3    41  PRO41       0.0237
     21  CD        10.4320   -4.1710   -6.3650 C.3    41  PRO41       0.0939
     22  N         10.6910   -5.4460   -9.7570 N.am   42  PHE42      -0.1974
     23  CA        10.2990   -5.9460  -11.0780 C.3    42  PHE42       0.1639
     24  C         10.3610   -4.8830  -12.1770 C.2    42  PHE42       0.2290
     25  O          9.9210   -5.1180  -13.3020 O.2    42  PHE42      -0.2864
     26  CB         8.8900   -6.5280  -10.9780 C.3    42  PHE42       0.0560
     27  CG         8.7380   -7.5030   -9.8540 C.ar   42  PHE42      -0.0200
     28  CD1        9.0170   -8.8460  -10.0440 C.ar   42  PHE42      -0.0042
     29  CD2        8.3580   -7.0730   -8.5960 C.ar   42  PHE42      -0.0042
     30  CE1        8.9010   -9.7500   -9.0000 C.ar   42  PHE42      -0.0003
     31  CE2        8.2390   -7.9710   -7.5470 C.ar   42  PHE42      -0.0003
     32  CZ         8.5170   -9.3110   -7.7480 C.ar   42  PHE42      -0.0000
     33  N         13.0180   -3.5280  -13.6140 N.3    44  GLN44      -0.1245
     34  CA        14.1200   -3.7480  -14.5490 C.3    44  GLN44       0.1566
     35  C         14.4730   -5.2230  -14.5380 C.2    44  GLN44       0.2260
     36  O         14.0710   -5.9420  -13.6230 O.2    44  GLN44      -0.2867
     37  CB        15.3530   -2.9320  -14.1450 C.3    44  GLN44       0.0367
     38  CG        15.8620   -3.2220  -12.7390 C.3    44  GLN44       0.0905
     39  CD        14.8710   -2.8150  -11.6680 C.2    44  GLN44       0.2608
     40  OE1       14.1730   -1.8150  -11.8120 O.2    44  GLN44      -0.2717
     41  NE2       14.7810   -3.6040  -10.6020 N.am   44  GLN44      -0.0878
     42  N         16.4380   -8.5190  -13.6990 N.3    46  VAL46      -0.1231
     43  CA        17.2410   -8.8430  -12.5180 C.3    46  VAL46       0.1692
     44  C         18.7170   -8.7300  -12.8800 C.2    46  VAL46       0.2592
     45  O         19.1700   -9.3630  -13.8270 O.2    46  VAL46      -0.2718
     46  CB        16.9550  -10.2660  -11.9930 C.3    46  VAL46       0.0266
     47  CG1       17.9430  -10.6650  -10.8940 C.3    46  VAL46       0.0020
     48  CG2       15.5210  -10.3670  -11.4960 C.3    46  VAL46       0.0020
     49  N         19.4530   -7.9110  -12.1360 N.am   47  ASP47      -0.1974
     50  CA        20.8910   -7.7730  -12.3310 C.3    47  ASP47       0.1709
     51  C         21.6220   -8.7530  -11.4190 C.2    47  ASP47       0.2293
     52  O         21.8720   -8.4630  -10.2460 O.2    47  ASP47      -0.2864
     53  CB        21.3360   -6.3400  -12.0460 C.3    47  ASP47       0.1436
     54  CG        22.7970   -6.1040  -12.3930 C.2    47  ASP47       0.3671
     55  OD1       23.6230   -7.0360  -12.2530 O.co2  47  ASP47      -0.2456
     56  OD2       23.1270   -4.9730  -12.7900 O.co2  47  ASP47      -0.2456
     57  N         25.1910   -7.3810  -10.1280 N.3    50  LYS50      -0.1231
     58  CA        25.1140   -6.3560   -9.0920 C.3    50  LYS50       0.1693
     59  C         24.5280   -6.9370   -7.8080 C.2    50  LYS50       0.2591
     60  O         25.0070   -6.6430   -6.7250 O.2    50  LYS50      -0.2718
     61  CB        24.2720   -5.1640   -9.5650 C.3    50  LYS50       0.0285
     62  CG        24.7570   -4.5130  -10.8560 C.3    50  LYS50       0.0035
     63  CD        25.7800   -3.4140  -10.6330 C.3    50  LYS50       0.0206
     64  CE        25.1310   -2.0360  -10.6050 C.3    50  LYS50       0.1093
     65  NZ        24.9490   -1.4460  -11.9650 N.3    50  LYS50      -0.1314
     66  N         23.5020   -7.7760   -7.9350 N.am   51  LEU51      -0.1980
     67  CA        22.8610   -8.4010   -6.7750 C.3    51  LEU51       0.1596
     68  C         23.6240   -9.6330   -6.2950 C.2    51  LEU51       0.2287
     69  O         23.2570  -10.2350   -5.2870 O.2    51  LEU51      -0.2864
     70  CB        21.4100   -8.7790   -7.1060 C.3    51  LEU51       0.0297
     71  CG        20.4720   -7.6240   -7.4770 C.3    51  LEU51       0.0022
     72  CD1       19.1690   -8.1480   -8.0660 C.3    51  LEU51       0.0001
     73  CD2       20.2000   -6.7490   -6.2620 C.3    51  LEU51       0.0001
     74  N         23.8650  -12.7550   -7.4600 N.3    53  LEU53      -0.1245
     75  CA        23.1830  -14.0480   -7.5160 C.3    53  LEU53       0.1561
     76  C         23.7120  -14.8380   -8.7170 C.2    53  LEU53       0.2260
     77  O         23.2030  -14.6820   -9.8270 O.2    53  LEU53      -0.2867
     78  CB        21.6700  -13.8510   -7.6320 C.3    53  LEU53       0.0270
     79  CG        21.0390  -12.8730   -6.6350 C.3    53  LEU53       0.0019
     80  CD1       19.6920  -12.4000   -7.1570 C.3    53  LEU53       0.0001
     81  CD2       20.8940  -13.4940   -5.2500 C.3    53  LEU53       0.0001
     82  N         21.0910  -17.4060  -10.6550 N.3    56  TYR56      -0.1241
     83  CA        19.7510  -16.9480  -11.0840 C.3    56  TYR56       0.1605
     84  C         19.4140  -17.2620  -12.5370 C.2    56  TYR56       0.2264
     85  O         18.3190  -17.7250  -12.8350 O.2    56  TYR56      -0.2867
     86  CB        19.5390  -15.4480  -10.8410 C.3    56  TYR56       0.0534
     87  CG        18.1700  -14.9920  -11.2870 C.ar   56  TYR56      -0.0201
     88  CD1       17.9360  -14.6060  -12.6030 C.ar   56  TYR56      -0.0009
     89  CD2       17.0970  -14.9880  -10.4020 C.ar   56  TYR56      -0.0009
     90  CE1       16.6790  -14.2080  -13.0210 C.ar   56  TYR56       0.0417
     91  CE2       15.8390  -14.5860  -10.8050 C.ar   56  TYR56       0.0417
     92  CZ        15.6300  -14.2050  -12.1170 C.ar   56  TYR56       0.1957
     93  OH        14.3690  -13.8210  -12.5110 O.3    56  TYR56      -0.2866
     94  N          7.1190  -13.3320  -15.7260 N.3    91  MET91      -0.1245
     95  CA         7.8020  -12.5700  -14.6790 C.3    91  MET91       0.1570
     96  C          7.4170  -13.0480  -13.2690 C.2    91  MET91       0.2261
     97  O          8.2860  -13.2770  -12.4320 O.2    91  MET91      -0.2867
     98  CB         7.5030  -11.0750  -14.8400 C.3    91  MET91       0.0387
     99  CG         8.0400  -10.1880  -13.7280 C.3    91  MET91       0.0595
    100  SD         7.4430   -8.4920  -13.8230 S.3    91  MET91      -0.1393
    101  CE         5.7530   -8.6940  -13.2590 C.3    91  MET91       0.0692
    102  N          9.7010  -15.4630  -10.4230 N.3    95  CYS95      -0.1235
    103  CA         9.8880  -15.1020   -9.0250 C.3    95  CYS95       0.1677
    104  C          9.5770  -16.2770   -8.1020 C.2    95  CYS95       0.2270
    105  O         10.3290  -16.5620   -7.1740 O.2    95  CYS95      -0.2867
    106  CB         9.0190  -13.8940   -8.6700 C.3    95  CYS95       0.0956
    107  SG         9.4690  -13.1360   -7.1070 S.3    95  CYS95      -0.0801
    108  N         12.3210  -19.1940   -8.5000 N.3    98  TYR98      -0.1227
    109  CA        13.6080  -18.9080   -7.8760 C.3    98  TYR98       0.1736
    110  C         13.5110  -18.7930   -6.3490 C.2    98  TYR98       0.2595
    111  O         14.4110  -19.2270   -5.6350 O.2    98  TYR98      -0.2718
    112  CB        14.2310  -17.6320   -8.4600 C.3    98  TYR98       0.0548
    113  CG        15.6550  -17.4150   -7.9930 C.ar   98  TYR98      -0.0200
    114  CD1       16.6970  -18.1610   -8.5280 C.ar   98  TYR98      -0.0009
    115  CD2       15.9550  -16.4950   -6.9940 C.ar   98  TYR98      -0.0009
    116  CE1       18.0020  -17.9860   -8.0950 C.ar   98  TYR98       0.0417
    117  CE2       17.2590  -16.3120   -6.5550 C.ar   98  TYR98       0.0417
    118  CZ        18.2770  -17.0620   -7.1110 C.ar   98  TYR98       0.1957
    119  OH        19.5730  -16.8930   -6.6880 O.3    98  TYR98      -0.2866
    120  N         12.4080  -18.2370   -5.8570 N.am   99  ASN99      -0.1974
    121  CA        12.2970  -17.8470   -4.4540 C.3    99  ASN99       0.1688
    122  C         11.3480  -18.7160   -3.6200 C.2    99  ASN99       0.2292
    123  O         10.3380  -19.2210   -4.1120 O.2    99  ASN99      -0.2864
    124  CB        11.8730  -16.3770   -4.3830 C.3    99  ASN99       0.1181
    125  CG        12.8670  -15.4500   -5.0640 C.2    99  ASN99       0.2629
    126  OD1       14.0400  -15.4090   -4.7040 O.2    99  ASN99      -0.2716
    127  ND2       12.4030  -14.7040   -6.0570 N.am   99  ASN99      -0.0877
    128  N         10.4140  -10.8950   -1.4610 N.3   105  ILE105     -0.1245
    129  CA        10.1880  -10.7460   -2.9020 C.3   105  ILE105      0.1561
    130  C          8.9450  -11.5110   -3.3870 C.2   105  ILE105      0.2260
    131  O          8.1860  -11.0140   -4.2140 O.2   105  ILE105     -0.2867
    132  CB        11.4460  -11.1590   -3.7110 C.3   105  ILE105      0.0252
    133  CG1       11.2770  -10.8450   -5.2010 C.3   105  ILE105      0.0019
    134  CG2       11.7620  -12.6390   -3.5400 C.3   105  ILE105      0.0019
    135  CD1       11.2230   -9.3730   -5.5280 C.3   105  ILE105      0.0001
@<TRIPOS>BOND
     1    94    95    1
     2    98    95    1
     3    98    99    1
     4    95    96    1
     5    34    35    1
     6    34    37    1
     7    34    33    1
     8    35    36    2
     9    37    38    1
    10    45    44    2
    11   100    99    1
    12   100   101    1
    13    42    43    1
    14    25    24    2
    15    96    97    2
    16    90    88   ar
    17    90    92   ar
    18    44    43    1
    19    44    49   am
    20    85    84    2
    21    56    54   ar
    22    38    39    1
    23    88    87   ar
    24    84    83    1
    25    43    46    1
    26    93    92    1
    27    54    55   ar
    28    54    53    1
    29    50    49    1
    30    50    53    1
    31    50    51    1
    32    24    23    1
    33    92    91   ar
    34    46    48    1
    35    46    47    1
    36    65    64    1
    37    40    39    2
    38    39    41   am
    39    51    52    2
    40    87    86    1
    41    87    89   ar
    42    83    86    1
    43    83    82    1
    44    23    26    1
    45    23    22    1
    46    26    27    1
    47    62    63    1
    48    62    61    1
    49    91    89   ar
    50    63    64    1
    51   102   103    1
    52    57    58    1
    53    28    27   ar
    54    28    30   ar
    55    27    29   ar
    56    77    76    2
    57    22    17   am
    58    18    17    2
    59    61    58    1
    60    17    16    1
    61    58    59    1
    62     4     3    2
    63   103   106    1
    64   103   104    1
    65    30    32   ar
    66    76    75    1
    67   106   107    1
    68    29    31   ar
    69   114   116   ar
    70   114   113   ar
    71   108   109    1
    72   112   113    1
    73   112   109    1
    74     3     2    1
    75     3    15   am
    76   104   105    2
    77   116   118   ar
    78    72    71    1
    79   113   115   ar
    80    66    59   am
    81    66    67    1
    82   109   110    1
    83     2     1    1
    84     2     5    1
    85    59    60    2
    86    16    15    1
    87    16    19    1
    88    32    31   ar
    89    78    75    1
    90    78    79    1
    91    75    74    1
    92    71    70    1
    93    71    73    1
    94    15    21    1
    95    80    79    1
    96   118   119    1
    97   118   117   ar
    98    70    67    1
    99   115   117   ar
   100     5     6    1
   101    67    68    1
   102    19    20    1
   103    79    81    1
   104    21    20    1
   105   110   120   am
   106   110   111    2
   107    68    69    2
   108   127   125   am
   109   120   121    1
   110   135   133    1
   111     6     8   ar
   112     6     7   ar
   113   133   132    1
   114    11     8   ar
   115    11    13   ar
   116   125   126    2
   117   125   124    1
   118     8    10   ar
   119     7     9   ar
   120   121   124    1
   121   121   122    1
   122   131   130    2
   123    13    14   ar
   124   123   122    2
   125   132   134    1
   126   132   129    1
   127    10     9   ar
   128    10    12   ar
   129   130   129    1
   130   129   128    1
   131    14    12   ar
