@<TRIPOS>MOLECULE
tmp/5d3sA00.pdb
 135 131 0 0 0
SMALL
GASTEIGER

@<TRIPOS>ATOM
      1  N          9.2310   -2.1900   -7.6890 N.3    39  TRP39      -0.1228
      2  CA        10.6810   -2.0360   -7.9350 C.3    39  TRP39       0.1722
      3  C         11.4480   -3.3270   -8.2680 C.2    39  TRP39       0.2437
      4  O         12.2820   -3.3130   -9.1570 O.2    39  TRP39      -0.2733
      5  CB        11.4050   -1.2230   -6.8250 C.3    39  TRP39       0.0563
      6  CG        11.1600   -1.6510   -5.3980 C.ar   39  TRP39       0.0003
      7  CD1       10.1270   -1.2790   -4.6160 C.ar   39  TRP39       0.0946
      8  CD2       11.9580   -2.5350   -4.6110 C.ar   39  TRP39       0.0152
      9  NE1       10.2210   -1.8710   -3.3800 N.ar   39  TRP39      -0.2442
     10  CE2       11.3340   -2.6600   -3.3590 C.ar   39  TRP39       0.0810
     11  CE3       13.1140   -3.2710   -4.8560 C.ar   39  TRP39       0.0012
     12  CZ2       11.8530   -3.4570   -2.3380 C.ar   39  TRP39       0.0191
     13  CZ3       13.6260   -4.0690   -3.8410 C.ar   39  TRP39       0.0001
     14  CH2       13.0030   -4.1480   -2.6010 C.ar   39  TRP39       0.0015
     15  N         11.1460   -4.4580   -7.5930 N.am   40  PRO40      -0.2718
     16  CA        11.8830   -5.6750   -7.9340 C.3    40  PRO40       0.1535
     17  C         11.5820   -6.2220   -9.3300 C.2    40  PRO40       0.2598
     18  O         12.2750   -7.1250   -9.7850 O.2    40  PRO40      -0.2715
     19  CB        11.3880   -6.6910   -6.8990 C.3    40  PRO40       0.0310
     20  CG        10.7810   -5.8820   -5.8240 C.3    40  PRO40       0.0237
     21  CD        10.1840   -4.7090   -6.5130 C.3    40  PRO40       0.0939
     22  N         10.5460   -5.6910   -9.9720 N.am   41  PHE41      -0.1974
     23  CA        10.0600   -6.2040  -11.2490 C.3    41  PHE41       0.1639
     24  C         10.2370   -5.2270  -12.4080 C.2    41  PHE41       0.2290
     25  O          9.8340   -5.5230  -13.5290 O.2    41  PHE41      -0.2864
     26  CB         8.5820   -6.5830  -11.0940 C.3    41  PHE41       0.0560
     27  CG         8.3440   -7.5710   -9.9870 C.ar   41  PHE41      -0.0200
     28  CD1        8.6080   -8.9240  -10.1770 C.ar   41  PHE41      -0.0042
     29  CD2        7.9040   -7.1440   -8.7430 C.ar   41  PHE41      -0.0042
     30  CE1        8.4260   -9.8160   -9.1380 C.ar   41  PHE41      -0.0003
     31  CE2        7.7070   -8.0390   -7.7020 C.ar   41  PHE41      -0.0003
     32  CZ         7.9710   -9.3740   -7.9000 C.ar   41  PHE41      -0.0000
     33  N         12.9700   -4.2470  -13.9380 N.3    43  GLN43      -0.1245
     34  CA        14.0950   -4.5550  -14.8090 C.3    43  GLN43       0.1566
     35  C         14.4320   -6.0540  -14.7010 C.2    43  GLN43       0.2260
     36  O         14.0490   -6.7240  -13.7360 O.2    43  GLN43      -0.2867
     37  CB        15.3110   -3.7150  -14.4180 C.3    43  GLN43       0.0367
     38  CG        15.7980   -3.9010  -12.9880 C.3    43  GLN43       0.0905
     39  CD        14.8700   -3.3060  -11.9460 C.2    43  GLN43       0.2608
     40  OE1       14.5280   -2.1140  -12.0020 O.2    43  GLN43      -0.2717
     41  NE2       14.4640   -4.1210  -10.9770 N.am   43  GLN43      -0.0878
     42  N         16.2680   -9.4400  -13.6930 N.3    45  VAL45      -0.1231
     43  CA        17.0420   -9.8350  -12.5320 C.3    45  VAL45       0.1692
     44  C         18.5340   -9.8130  -12.8710 C.2    45  VAL45       0.2592
     45  O         18.9740  -10.4710  -13.8100 O.2    45  VAL45      -0.2718
     46  CB        16.6320  -11.2380  -12.0380 C.3    45  VAL45       0.0266
     47  CG1       17.6150  -11.7450  -10.9840 C.3    45  VAL45       0.0020
     48  CG2       15.2190  -11.2020  -11.4920 C.3    45  VAL45       0.0020
     49  N         19.3010   -9.0240  -12.1310 N.am   46  ASP46      -0.1974
     50  CA        20.7540   -8.9530  -12.3390 C.3    46  ASP46       0.1709
     51  C         21.3790   -9.9340  -11.3570 C.2    46  ASP46       0.2293
     52  O         21.6280   -9.6050  -10.1980 O.2    46  ASP46      -0.2864
     53  CB        21.2810   -7.5290  -12.1260 C.3    46  ASP46       0.1436
     54  CG        22.7620   -7.3890  -12.4830 C.2    46  ASP46       0.3671
     55  OD1       23.4990   -8.3820  -12.3270 O.co2  46  ASP46      -0.2456
     56  OD2       23.1950   -6.2810  -12.8950 O.co2  46  ASP46      -0.2456
     57  N         24.9640   -8.8160   -9.9120 N.3    49  LYS49      -0.1231
     58  CA        24.8860   -7.7650   -8.9190 C.3    49  LYS49       0.1693
     59  C         24.2350   -8.2510   -7.6240 C.2    49  LYS49       0.2591
     60  O         24.6920   -7.9150   -6.5330 O.2    49  LYS49      -0.2718
     61  CB        24.0980   -6.6040   -9.4780 C.3    49  LYS49       0.0285
     62  CG        24.1650   -5.3310   -8.6720 C.3    49  LYS49       0.0035
     63  CD        23.3400   -4.2450   -9.3420 C.3    49  LYS49       0.0206
     64  CE        24.0080   -3.7080  -10.6040 C.3    49  LYS49       0.1093
     65  NZ        25.1410   -2.8060  -10.2920 N.3    49  LYS49      -0.1314
     66  N         23.1750   -9.0360   -7.7500 N.am   50  LEU50      -0.1980
     67  CA        22.4830   -9.5620   -6.5880 C.3    50  LEU50       0.1596
     68  C         23.1020  -10.8580   -6.0750 C.2    50  LEU50       0.2287
     69  O         22.6860  -11.3730   -5.0580 O.2    50  LEU50      -0.2864
     70  CB        21.0110   -9.7640   -6.9160 C.3    50  LEU50       0.0297
     71  CG        20.2650   -8.5090   -7.3700 C.3    50  LEU50       0.0022
     72  CD1       18.8570   -8.8980   -7.7630 C.3    50  LEU50       0.0001
     73  CD2       20.2490   -7.4650   -6.2630 C.3    50  LEU50       0.0001
     74  N         23.1320  -14.0440   -7.2580 N.3    52  LEU52      -0.1245
     75  CA        22.2430  -15.2110   -7.3460 C.3    52  LEU52       0.1561
     76  C         22.6970  -16.0760   -8.5170 C.2    52  LEU52       0.2260
     77  O         22.0470  -16.1170   -9.5570 O.2    52  LEU52      -0.2867
     78  CB        20.7910  -14.7600   -7.5160 C.3    52  LEU52       0.0270
     79  CG        20.2830  -13.8920   -6.3690 C.3    52  LEU52       0.0019
     80  CD1       18.8980  -13.3690   -6.7120 C.3    52  LEU52       0.0001
     81  CD2       20.2840  -14.6120   -5.0260 C.3    52  LEU52       0.0001
     82  N         20.2770  -18.3630  -10.4770 N.3    55  TYR55      -0.1241
     83  CA        19.0090  -17.8240  -11.0010 C.3    55  TYR55       0.1605
     84  C         18.6980  -18.2350  -12.4480 C.2    55  TYR55       0.2264
     85  O         17.5830  -18.6820  -12.7300 O.2    55  TYR55      -0.2867
     86  CB        18.9190  -16.2950  -10.8690 C.3    55  TYR55       0.0534
     87  CG        17.5480  -15.7760  -11.2470 C.ar   55  TYR55      -0.0201
     88  CD1       16.4970  -15.7740  -10.3300 C.ar   55  TYR55      -0.0009
     89  CD2       17.2770  -15.3240  -12.5310 C.ar   55  TYR55      -0.0009
     90  CE1       15.2310  -15.3310  -10.6890 C.ar   55  TYR55       0.0417
     91  CE2       16.0200  -14.8720  -12.8850 C.ar   55  TYR55       0.0417
     92  CZ        15.0000  -14.8760  -11.9620 C.ar   55  TYR55       0.1957
     93  OH        13.7540  -14.4600  -12.3430 O.3    55  TYR55      -0.2866
     94  N          6.4570  -13.6430  -15.8020 N.3    90  MET90      -0.1245
     95  CA         7.1720  -12.8910  -14.7580 C.3    90  MET90       0.1570
     96  C          6.7950  -13.3590  -13.3570 C.2    90  MET90       0.2261
     97  O          7.6670  -13.6350  -12.5110 O.2    90  MET90      -0.2867
     98  CB         6.8540  -11.4040  -14.8730 C.3    90  MET90       0.0387
     99  CG         7.6080  -10.5540  -13.8810 C.3    90  MET90       0.0595
    100  SD         7.1170   -8.8420  -14.0290 S.3    90  MET90      -0.1393
    101  CE         5.5060   -8.8300  -13.2290 C.3    90  MET90       0.0692
    102  N          8.8670  -15.9940  -10.3800 N.3    94  CYS94      -0.1235
    103  CA         8.9400  -15.6800   -8.9780 C.3    94  CYS94       0.1677
    104  C          8.7130  -16.8670   -8.0900 C.2    94  CYS94       0.2270
    105  O          9.4850  -17.1470   -7.1780 O.2    94  CYS94      -0.2867
    106  CB         7.8420  -14.6980   -8.6870 C.3    94  CYS94       0.0956
    107  SG         8.4500  -13.0450   -8.9060 S.3    94  CYS94      -0.0801
    108  N         11.4890  -19.6960   -8.3500 N.3    97  TYR97      -0.1227
    109  CA        12.8080  -19.4910   -7.7510 C.3    97  TYR97       0.1736
    110  C         12.7270  -19.2850   -6.2290 C.2    97  TYR97       0.2595
    111  O         13.6530  -19.6670   -5.4960 O.2    97  TYR97      -0.2718
    112  CB        13.5540  -18.3200   -8.4190 C.3    97  TYR97       0.0548
    113  CG        14.9640  -18.1640   -7.9030 C.ar   97  TYR97      -0.0200
    114  CD1       16.0040  -18.9600   -8.3910 C.ar   97  TYR97      -0.0009
    115  CD2       15.2640  -17.2440   -6.8970 C.ar   97  TYR97      -0.0009
    116  CE1       17.2890  -18.8540   -7.8760 C.ar   97  TYR97       0.0417
    117  CE2       16.5440  -17.1120   -6.4050 C.ar   97  TYR97       0.0417
    118  CZ        17.5540  -17.9290   -6.8890 C.ar   97  TYR97       0.1957
    119  OH        18.8260  -17.7990   -6.3960 O.3    97  TYR97      -0.2866
    120  N         11.6390  -18.6700   -5.7620 N.am   98  ASN98      -0.1974
    121  CA        11.5810  -18.2090   -4.3670 C.3    98  ASN98       0.1688
    122  C         10.6840  -19.1010   -3.5230 C.2    98  ASN98       0.2292
    123  O         10.0610  -20.0190   -4.0430 O.2    98  ASN98      -0.2864
    124  CB        11.1510  -16.7370   -4.3170 C.3    98  ASN98       0.1181
    125  CG        12.1060  -15.8340   -5.0670 C.2    98  ASN98       0.2629
    126  OD1       13.1870  -15.5290   -4.5840 O.2    98  ASN98      -0.2716
    127  ND2       11.7110  -15.3970   -6.2540 N.am   98  ASN98      -0.0877
    128  N          9.7550  -11.1550   -1.7290 N.3   104  ILE104     -0.1245
    129  CA         9.4970  -11.0510   -3.1840 C.3   104  ILE104      0.1561
    130  C          8.2130  -11.7850   -3.5860 C.2   104  ILE104      0.2260
    131  O          7.4860  -11.3390   -4.4620 O.2   104  ILE104     -0.2867
    132  CB        10.7000  -11.5330   -4.0320 C.3   104  ILE104      0.0252
    133  CG1       10.5170  -11.1950   -5.5250 C.3   104  ILE104      0.0019
    134  CG2       10.9630  -13.0330   -3.8540 C.3   104  ILE104      0.0019
    135  CD1       10.8290   -9.7620   -5.8490 C.3   104  ILE104      0.0001
@<TRIPOS>BOND
     1    94    95    1
     2    98    95    1
     3    98    99    1
     4    34    35    1
     5    34    37    1
     6    34    33    1
     7    95    96    1
     8    35    36    2
     9    37    38    1
    10   100    99    1
    11   100   101    1
    12    45    44    2
    13    42    43    1
    14    25    24    2
    15    96    97    2
    16    38    39    1
    17    56    54   ar
    18    91    89   ar
    19    91    92   ar
    20    44    43    1
    21    44    49   am
    22    85    84    2
    23    43    46    1
    24    89    87   ar
    25    54    55   ar
    26    54    53    1
    27    84    83    1
    28    24    23    1
    29    93    92    1
    30    50    49    1
    31    50    53    1
    32    50    51    1
    33    46    48    1
    34    46    47    1
    35    40    39    2
    36    92    90   ar
    37    39    41   am
    38    51    52    2
    39    23    26    1
    40    23    22    1
    41    87    86    1
    42    87    88   ar
    43    26    27    1
    44    83    86    1
    45    83    82    1
    46    90    88   ar
    47    64    65    1
    48    64    63    1
    49   102   103    1
    50    28    27   ar
    51    28    30   ar
    52    27    29   ar
    53    22    17   am
    54    57    58    1
    55    18    17    2
    56    77    76    2
    57    61    58    1
    58    61    62    1
    59    63    62    1
    60    17    16    1
    61     4     3    2
    62    30    32   ar
    63   103   106    1
    64   103   104    1
    65    58    59    1
    66   107   106    1
    67    29    31   ar
    68    76    75    1
    69   112   113    1
    70   112   109    1
    71   114   113   ar
    72   114   116   ar
    73   108   109    1
    74     3     2    1
    75     3    15   am
    76   104   105    2
    77     2     1    1
    78     2     5    1
    79    16    15    1
    80    16    19    1
    81   113   115   ar
    82    32    31   ar
    83   116   118   ar
    84    72    71    1
    85   109   110    1
    86    66    59   am
    87    66    67    1
    88    59    60    2
    89    15    21    1
    90    78    75    1
    91    78    79    1
    92    71    70    1
    93    71    73    1
    94    75    74    1
    95    70    67    1
    96    19    20    1
    97   115   117   ar
    98   118   117   ar
    99   118   119    1
   100     5     6    1
   101    80    79    1
   102    67    68    1
   103    21    20    1
   104    79    81    1
   105   127   125   am
   106   110   120   am
   107   110   111    2
   108    68    69    2
   109   135   133    1
   110   120   121    1
   111   133   132    1
   112     6     7   ar
   113     6     8   ar
   114   125   126    2
   115   125   124    1
   116    11     8   ar
   117    11    13   ar
   118     7     9   ar
   119     8    10   ar
   120   131   130    2
   121   121   124    1
   122   121   122    1
   123   123   122    2
   124   132   134    1
   125   132   129    1
   126    13    14   ar
   127   130   129    1
   128     9    10   ar
   129    10    12   ar
   130   129   128    1
   131    14    12   ar
