@<TRIPOS>MOLECULE
tmp/5d3tA00.pdb
 142 140 0 0 0
SMALL
GASTEIGER

@<TRIPOS>ATOM
      1  N          3.1460   -0.1080   -2.5080 N.3    40  TRP40      -0.1228
      2  CA         3.0130    1.3040   -2.8960 C.3    40  TRP40       0.1722
      3  C          4.3200    2.1520   -2.9020 C.2    40  TRP40       0.2437
      4  O          4.5020    2.9740   -3.8080 O.2    40  TRP40      -0.2733
      5  CB         1.8620    2.0080   -2.1230 C.3    40  TRP40       0.0563
      6  CG         2.0830    2.1280   -0.6460 C.ar   40  TRP40       0.0003
      7  CD1        1.7580    1.2080    0.2960 C.ar   40  TRP40       0.0946
      8  CD2        2.7320    3.2020    0.0440 C.ar   40  TRP40       0.0152
      9  NE1        2.1430    1.6450    1.5440 N.ar   40  TRP40      -0.2442
     10  CE2        2.7510    2.8650    1.4150 C.ar   40  TRP40       0.0810
     11  CE3        3.2930    4.4220   -0.3590 C.ar   40  TRP40       0.0012
     12  CZ2        3.3110    3.7020    2.3890 C.ar   40  TRP40       0.0191
     13  CZ3        3.8470    5.2590    0.6150 C.ar   40  TRP40       0.0001
     14  CH2        3.8520    4.8940    1.9700 C.ar   40  TRP40       0.0015
     15  N          5.2350    1.9550   -1.9250 N.am   41  PRO41      -0.2718
     16  CA         6.4680    2.7240   -1.9740 C.3    41  PRO41       0.1535
     17  C          7.3980    2.3180   -3.1150 C.2    41  PRO41       0.2598
     18  O          8.3830    2.9860   -3.3400 O.2    41  PRO41      -0.2715
     19  CB         7.1430    2.4020   -0.6300 C.3    41  PRO41       0.0310
     20  CG         6.0770    1.8220    0.2220 C.3    41  PRO41       0.0237
     21  CD         5.2240    1.0770   -0.7480 C.3    41  PRO41       0.0939
     22  N          7.0760    1.2340   -3.8140 N.am   42  PHE42      -0.1974
     23  CA         7.9300    0.6820   -4.8550 C.3    42  PHE42       0.1639
     24  C          7.3190    0.7220   -6.2540 C.2    42  PHE42       0.2290
     25  O          7.9050    0.1880   -7.1900 O.2    42  PHE42      -0.2864
     26  CB         8.3070   -0.7580   -4.4780 C.3    42  PHE42       0.0560
     27  CG         8.9610   -0.8690   -3.1360 C.ar   42  PHE42      -0.0200
     28  CD1       10.3280   -0.6220   -2.9820 C.ar   42  PHE42      -0.0042
     29  CD2        8.2010   -1.1470   -1.9990 C.ar   42  PHE42      -0.0042
     30  CE1       10.9210   -0.6930   -1.7300 C.ar   42  PHE42      -0.0003
     31  CE2        8.7960   -1.2450   -0.7530 C.ar   42  PHE42      -0.0003
     32  CZ        10.1540   -1.0090   -0.6150 C.ar   42  PHE42      -0.0000
     33  N          6.7380    3.2720   -8.2230 N.3    44  GLN44      -0.1231
     34  CA         7.2290    4.3540   -9.0630 C.3    44  GLN44       0.1683
     35  C          8.6600    4.7010   -8.6350 C.2    44  GLN44       0.2434
     36  O          9.0770    4.3410   -7.5380 O.2    44  GLN44      -0.2733
     37  CB         6.3230    5.5850   -8.9560 C.3    44  GLN44       0.0380
     38  CG         6.1560    6.1640   -7.5640 C.3    44  GLN44       0.0905
     39  CD         5.3700    5.2630   -6.6150 C.2    44  GLN44       0.2608
     40  OE1        4.2530    4.8780   -6.9040 O.2    44  GLN44      -0.2717
     41  NE2        5.9830    4.8980   -5.4850 N.am   44  GLN44      -0.0878
     42  N          9.4110    5.3990   -9.5020 N.am   45  PRO45      -0.2718
     43  CA        10.7560    5.8040   -9.0930 C.3    45  PRO45       0.1535
     44  C         10.7160    6.6460   -7.8330 C.2    45  PRO45       0.2598
     45  O          9.7940    7.4550   -7.6470 O.2    45  PRO45      -0.2715
     46  CB        11.2520    6.6430  -10.2760 C.3    45  PRO45       0.0310
     47  CG        10.5150    6.0930  -11.4680 C.3    45  PRO45       0.0237
     48  CD         9.1680    5.6580  -10.9350 C.3    45  PRO45       0.0939
     49  N         11.7190    6.4750   -6.9900 N.am   46  VAL46      -0.1964
     50  CA        11.8240    7.2990   -5.8080 C.3    46  VAL46       0.1727
     51  C         11.8680    8.7720   -6.2300 C.2    46  VAL46       0.2616
     52  O         12.7060    9.1730   -7.0410 O.2    46  VAL46      -0.2715
     53  CB        13.0830    6.9630   -4.9710 C.3    46  VAL46       0.0290
     54  CG1       13.2590    7.9900   -3.8600 C.3    46  VAL46       0.0023
     55  CG2       12.9870    5.5520   -4.4010 C.3    46  VAL46       0.0023
     56  N         10.9320    9.5520   -5.6970 N.am   47  ASP47      -0.1971
     57  CA        10.8750   10.9840   -5.9280 C.3    47  ASP47       0.1709
     58  C         11.5620   11.6680   -4.7610 C.2    47  ASP47       0.2293
     59  O         10.9370   12.0060   -3.7540 O.2    47  ASP47      -0.2864
     60  CB         9.4270   11.4560   -6.1080 C.3    47  ASP47       0.1436
     61  CG         9.3250   12.9230   -6.4740 C.2    47  ASP47       0.3671
     62  OD1       10.2330   13.7190   -6.1410 O.co2  47  ASP47      -0.2456
     63  OD2        8.3010   13.3050   -7.0700 O.co2  47  ASP47      -0.2456
     64  N         10.2180   15.2600   -3.7880 N.3    50  LYS50      -0.1231
     65  CA         9.0010   15.2020   -2.9680 C.3    50  LYS50       0.1693
     66  C          9.2610   14.6980   -1.5540 C.2    50  LYS50       0.2591
     67  O          8.6950   15.2090   -0.5860 O.2    50  LYS50      -0.2718
     68  CB         7.9580   14.3010   -3.6050 C.3    50  LYS50       0.0285
     69  CG         6.5560   14.6380   -3.1500 C.3    50  LYS50       0.0035
     70  CD         5.8620   15.6200   -4.0760 C.3    50  LYS50       0.0206
     71  CE         5.6100   15.0610   -5.4680 C.3    50  LYS50       0.1093
     72  NZ         4.9630   13.7200   -5.4890 N.3    50  LYS50      -0.1314
     73  N         10.1280   13.7020   -1.4480 N.am   51  LEU51      -0.1980
     74  CA        10.4450   13.0720   -0.1630 C.3    51  LEU51       0.1596
     75  C         11.5080   13.7920    0.6480 C.2    51  LEU51       0.2287
     76  O         11.8440   13.3620    1.7600 O.2    51  LEU51      -0.2864
     77  CB        10.8830   11.6160   -0.3980 C.3    51  LEU51       0.0297
     78  CG         9.7170   10.6880   -0.7050 C.3    51  LEU51       0.0022
     79  CD1       10.1790    9.4370   -1.4380 C.3    51  LEU51       0.0001
     80  CD2        8.9940   10.3600    0.6030 C.3    51  LEU51       0.0001
     81  N         14.8070   13.9410    0.1060 N.3    53  LEU53      -0.1245
     82  CA        15.9800   13.0680    0.2740 C.3    53  LEU53       0.1561
     83  C         17.0710   13.4890   -0.7130 C.2    53  LEU53       0.2260
     84  O         17.3930   12.7580   -1.6650 O.2    53  LEU53      -0.2867
     85  CB        15.5810   11.6090    0.0660 C.3    53  LEU53       0.0270
     86  CG        14.5550   11.0310    1.0400 C.3    53  LEU53       0.0019
     87  CD1       14.2700    9.5890    0.6570 C.3    53  LEU53       0.0001
     88  CD2       15.0240   11.1410    2.4800 C.3    53  LEU53       0.0001
     89  N         19.7190   11.0190   -1.9500 N.3    56  TYR56      -0.1241
     90  CA        19.3180    9.6890   -2.4130 C.3    56  TYR56       0.1605
     91  C         20.0820    9.2820   -3.6780 C.2    56  TYR56       0.2264
     92  O         20.6320    8.1880   -3.7550 O.2    56  TYR56      -0.2867
     93  CB        17.7980    9.5990   -2.6600 C.3    56  TYR56       0.0534
     94  CG        17.3920    8.2020   -3.0770 C.ar   56  TYR56      -0.0201
     95  CD1       17.1790    7.2110   -2.1230 C.ar   56  TYR56      -0.0009
     96  CD2       17.2940    7.8480   -4.4170 C.ar   56  TYR56      -0.0009
     97  CE1       16.8430    5.9160   -2.4860 C.ar   56  TYR56       0.0417
     98  CE2       16.9470    6.5540   -4.7930 C.ar   56  TYR56       0.0417
     99  CZ        16.7150    5.5900   -3.8270 C.ar   56  TYR56       0.1957
    100  OH        16.4090    4.2870   -4.1750 O.3    56  TYR56      -0.2866
    101  N         16.2660   -3.0740   -7.1560 N.3    91  MET91      -0.1245
    102  CA        15.3050   -2.3340   -6.3410 C.3    91  MET91       0.1570
    103  C         15.4440   -2.6700   -4.8580 C.2    91  MET91       0.2261
    104  O         15.5050   -1.7740   -4.0230 O.2    91  MET91      -0.2867
    105  CB        13.8950   -2.6550   -6.8050 C.3    91  MET91       0.0387
    106  CG        12.7910   -2.0260   -5.9910 C.3    91  MET91       0.0595
    107  SD        11.2040   -2.4850   -6.6700 S.3    91  MET91      -0.1393
    108  CE        10.9650   -4.0680   -5.8700 C.3    91  MET91       0.0692
    109  N         17.2020   -0.2490   -1.6570 N.3    95  CYS95      -0.1235
    110  CA        16.4930    0.0310   -0.4090 C.3    95  CYS95       0.1677
    111  C         17.3470   -0.3100    0.8140 C.2    95  CYS95       0.2270
    112  O         17.4520    0.4850    1.7520 O.2    95  CYS95      -0.2867
    113  CB        15.1880   -0.7480   -0.3950 C.3    95  CYS95       0.0956
    114  SG        14.1140   -0.3460    1.0000 S.3    95  CYS95      -0.0801
    115  N         20.4150    2.1660    1.0550 N.3    98  TYR98      -0.1227
    116  CA        20.0910    3.5420    1.4160 C.3    98  TYR98       0.1736
    117  C         19.5550    3.6770    2.8460 C.2    98  TYR98       0.2595
    118  O         19.9260    4.5980    3.5710 O.2    98  TYR98      -0.2718
    119  CB        19.1060    4.1850    0.4140 C.3    98  TYR98       0.0548
    120  CG        18.8550    5.6280    0.7710 C.ar   98  TYR98      -0.0200
    121  CD1       19.8200    6.6010    0.5400 C.ar   98  TYR98      -0.0009
    122  CD2       17.6910    6.0060    1.4160 C.ar   98  TYR98      -0.0009
    123  CE1       19.6140    7.9130    0.9130 C.ar   98  TYR98       0.0417
    124  CE2       17.4760    7.3130    1.7890 C.ar   98  TYR98       0.0417
    125  CZ        18.4390    8.2610    1.5490 C.ar   98  TYR98       0.1957
    126  OH        18.2120    9.5600    1.9230 O.3    98  TYR98      -0.2866
    127  N         18.6910    2.7600    3.2530 N.am   99  ASN99      -0.1974
    128  CA        17.9670    2.9120    4.5090 C.3    99  ASN99       0.1688
    129  C         18.6490    2.1440    5.6560 C.2    99  ASN99       0.2292
    130  O         19.5300    1.3120    5.4280 O.2    99  ASN99      -0.2864
    131  CB        16.5170    2.4760    4.2940 C.3    99  ASN99       0.1181
    132  CG        15.7990    3.3350    3.2410 C.2    99  ASN99       0.2629
    133  OD1       15.4130    4.4600    3.5130 O.2    99  ASN99      -0.2716
    134  ND2       15.6320    2.8060    2.0470 N.am   99  ASN99      -0.0877
    135  N         10.5060    1.0880    5.6700 N.3   105  ILE105     -0.1245
    136  CA        10.6730    0.8290    4.2350 C.3   105  ILE105      0.1561
    137  C         11.4290   -0.4900    3.9910 C.2   105  ILE105      0.2260
    138  O         11.1040   -1.2260    3.0540 O.2   105  ILE105     -0.2867
    139  CB        11.3410    2.0210    3.5060 C.3   105  ILE105      0.0252
    140  CG1       11.2500    1.8710    1.9860 C.3   105  ILE105      0.0019
    141  CG2       12.7990    2.1850    3.9330 C.3   105  ILE105      0.0019
    142  CD1        9.8400    1.8760    1.4480 C.3   105  ILE105      0.0001
@<TRIPOS>BOND
     1    47    48    1
     2    47    46    1
     3    48    42    1
     4    46    43    1
     5    42    43    1
     6    42    35   am
     7    43    44    1
     8    34    37    1
     9    34    35    1
    10    34    33    1
    11    37    38    1
    12    35    36    2
    13    44    45    2
    14    44    49   am
    15    38    39    1
    16    25    24    2
    17   101   102    1
    18    63    61   ar
    19    52    51    2
    20    49    50    1
    21    40    39    2
    22   105   102    1
    23   105   106    1
    24   107   106    1
    25   107   108    1
    26    39    41   am
    27    61    62   ar
    28    61    60    1
    29   102   103    1
    30    24    23    1
    31    51    50    1
    32    51    56   am
    33    60    57    1
    34    57    56    1
    35    57    58    1
    36    50    53    1
    37    72    71    1
    38    71    70    1
    39    53    55    1
    40    53    54    1
    41   103   104    2
    42    23    26    1
    43    23    22    1
    44    98    96   ar
    45    98    99   ar
    46    58    59    2
    47    26    27    1
    48    96    94   ar
    49   100    99    1
    50    70    69    1
    51    99    97   ar
    52    22    17   am
    53     4     3    2
    54    64    65    1
    55    92    91    2
    56    91    90    1
    57    68    69    1
    58    68    65    1
    59    18    17    2
    60    27    28   ar
    61    27    29   ar
    62    17    16    1
    63    94    93    1
    64    94    95   ar
    65    28    30   ar
    66    65    66    1
    67     3     2    1
    68     3    15   am
    69     2     1    1
    70     2     5    1
    71    93    90    1
    72    97    95   ar
    73    90    89    1
    74     5     6    1
    75    29    31   ar
    76    16    15    1
    77    16    19    1
    78    15    21    1
    79    30    32   ar
    80    84    83    2
    81   109   110    1
    82    66    73   am
    83    66    67    2
    84    73    74    1
    85    79    78    1
    86    31    32   ar
    87    21    20    1
    88    83    82    1
    89    78    77    1
    90    78    80    1
    91     6     8   ar
    92     6     7   ar
    93    19    20    1
    94   110   113    1
    95   110   111    1
    96    77    74    1
    97   113   114    1
    98    11     8   ar
    99    11    13   ar
   100    74    75    1
   101     8    10   ar
   102    85    82    1
   103    85    86    1
   104    81    82    1
   105     7     9   ar
   106   119   120    1
   107   119   116    1
   108   121   120   ar
   109   121   123   ar
   110    13    14   ar
   111    75    76    2
   112    87    86    1
   113   120   122   ar
   114   111   112    2
   115   123   125   ar
   116    86    88    1
   117   115   116    1
   118    10     9   ar
   119    10    12   ar
   120   122   124   ar
   121   116   117    1
   122   142   140    1
   123   125   124   ar
   124   125   126    1
   125    14    12   ar
   126   140   139    1
   127   134   132   am
   128   117   127   am
   129   117   118    2
   130   138   137    2
   131   132   133    2
   132   132   131    1
   133   127   128    1
   134   139   141    1
   135   139   136    1
   136   137   136    1
   137   136   135    1
   138   131   128    1
   139   128   129    1
   140   130   129    2
