@<TRIPOS>MOLECULE
tmp/5d3xA00.pdb
 100 92 0 0 0
SMALL
GASTEIGER

@<TRIPOS>ATOM
      1  N          2.4420   -2.1670    3.4470 N.3    39  LYS39      -0.1245
      2  CA         3.6640   -1.6070    4.0100 C.3    39  LYS39       0.1561
      3  C          3.3320   -0.7490    5.2330 C.2    39  LYS39       0.2260
      4  O          2.4740    0.1220    5.1460 O.2    39  LYS39      -0.2867
      5  CB         4.3990   -0.7690    2.9430 C.3    39  LYS39       0.0271
      6  CG         5.6090    0.0010    3.4490 C.3    39  LYS39       0.0035
      7  CD         6.3270    0.6610    2.2720 C.3    39  LYS39       0.0206
      8  CE         7.3240    1.7130    2.7880 C.3    39  LYS39       0.1093
      9  NZ         6.5380    2.9710    3.1120 N.3    39  LYS39      -0.1314
     10  N          5.0250    1.8110    7.7910 N.3    41  SER41      -0.1202
     11  CA         6.2350    2.5960    7.9650 C.3    41  SER41       0.2020
     12  C          5.9170    3.8390    8.7630 C.2    41  SER41       0.2618
     13  O          4.9190    4.5060    8.4940 O.2    41  SER41      -0.2717
     14  CB         6.7880    2.9840    6.5890 C.3    41  SER41       0.2103
     15  OG         8.0420    3.6460    6.6810 O.3    41  SER41      -0.2182
     16  N          6.8020    4.1600    9.7030 N.am   42  ALA42      -0.1979
     17  CA         6.6950    5.3890   10.5040 C.3    42  ALA42       0.1597
     18  C          5.2640    5.6610   10.9710 C.2    42  ALA42       0.2287
     19  O          4.7840    6.7970   10.9080 O.2    42  ALA42      -0.2864
     20  CB         7.2180    6.5550    9.7160 C.3    42  ALA42       0.0319
     21  N          2.5170    4.5100    9.6100 N.3    44  ASN44      -0.1240
     22  CA         1.5760    4.6060    8.5090 C.3    44  ASN44       0.1653
     23  C          1.3750    3.2590    7.8050 C.2    44  ASN44       0.2266
     24  O          2.3500    2.6200    7.4390 O.2    44  ASN44      -0.2867
     25  CB         2.0780    5.6480    7.5220 C.3    44  ASN44       0.1155
     26  CG         0.9650    6.3650    6.8240 C.2    44  ASN44       0.2627
     27  OD1        0.8120    6.2520    5.6100 O.2    44  ASN44      -0.2716
     28  ND2        0.1770    7.1200    7.5830 N.am   44  ASN44      -0.0877
     29  N          0.0230    1.4330    4.4850 N.3    46  GLN46      -0.1245
     30  CA        -0.2200    1.7440    3.0750 C.3    46  GLN46       0.1566
     31  C          0.0400    0.5430    2.1790 C.2    46  GLN46       0.2260
     32  O          1.0840   -0.0650    2.2780 O.2    46  GLN46      -0.2867
     33  CB         0.6840    2.8860    2.6020 C.3    46  GLN46       0.0367
     34  CG         0.6270    4.1500    3.4320 C.3    46  GLN46       0.0905
     35  CD        -0.5730    5.0170    3.1020 C.2    46  GLN46       0.2608
     36  OE1       -1.3800    4.6810    2.2360 O.2    46  GLN46      -0.2717
     37  NE2       -0.6940    6.1420    3.7960 N.am   46  GLN46      -0.0878
     38  N          1.2620   -1.0290   -1.2370 N.3    48  ARG48      -0.1245
     39  CA         2.2280   -0.5900   -2.2480 C.3    48  ARG48       0.1563
     40  C          2.4800   -1.7240   -3.2240 C.2    48  ARG48       0.2260
     41  O          2.4140   -2.8850   -2.8370 O.2    48  ARG48      -0.2867
     42  CB         3.5700   -0.1980   -1.6050 C.3    48  ARG48       0.0307
     43  CG         3.4760    1.0220   -0.6430 C.3    48  ARG48       0.0489
     44  CD         3.3280    2.2690   -1.4890 C.3    48  ARG48       0.2205
     45  NE         3.2500    3.5000   -0.6960 N.pl3  48  ARG48      -0.0865
     46  CZ         2.1160    4.1680   -0.4990 C.cat  48  ARG48       0.5346
     47  NH1        0.9710    3.6980   -0.9840 N.pl3  48  ARG48       0.1354
     48  NH2        2.1160    5.3180    0.1930 N.pl3  48  ARG48       0.1354
     49  N          9.3040    0.5270   -4.5020 N.3    59  TYR59      -0.1241
     50  CA         7.9000    0.4250   -4.1390 C.3    59  TYR59       0.1605
     51  C          7.1480    1.6760   -4.5600 C.2    59  TYR59       0.2264
     52  O          7.7110    2.7760   -4.5710 O.2    59  TYR59      -0.2867
     53  CB         7.7150    0.1470   -2.6350 C.3    59  TYR59       0.0534
     54  CG         8.4530    1.0830   -1.7030 C.ar   59  TYR59      -0.0201
     55  CD1        9.7530    0.8050   -1.3240 C.ar   59  TYR59      -0.0009
     56  CD2        7.8340    2.2280   -1.1930 C.ar   59  TYR59      -0.0009
     57  CE1       10.4350    1.6400   -0.4530 C.ar   59  TYR59       0.0417
     58  CE2        8.5000    3.0640   -0.3260 C.ar   59  TYR59       0.0417
     59  CZ         9.8030    2.7700    0.0330 C.ar   59  TYR59       0.1957
     60  OH        10.5070    3.5920    0.8960 O.3    59  TYR59      -0.2866
     61  N          7.3740    5.7560   -5.0240 N.3    73  ARG73      -0.1245
     62  CA         7.4310    6.1910   -3.6290 C.3    73  ARG73       0.1563
     63  C          8.8050    5.9880   -3.0190 C.2    73  ARG73       0.2260
     64  O          9.2860    6.8350   -2.2570 O.2    73  ARG73      -0.2867
     65  CB         6.3820    5.4620   -2.7870 C.3    73  ARG73       0.0307
     66  CG         4.9530    5.8530   -3.1130 C.3    73  ARG73       0.0489
     67  CD         4.6740    7.3570   -2.9570 C.3    73  ARG73       0.2205
     68  NE         5.3110    7.8860   -1.7660 N.pl3  73  ARG73      -0.0865
     69  CZ         5.9640    9.0430   -1.7120 C.cat  73  ARG73       0.5346
     70  NH1        6.0570    9.8080   -2.7940 N.pl3  73  ARG73       0.1354
     71  NH2        6.5220    9.4320   -0.5710 N.pl3  73  ARG73       0.1354
     72  N         19.4510    4.6430    4.9910 N.3   111  LYS111     -0.1245
     73  CA        18.6320    5.6250    5.6930 C.3   111  LYS111      0.1561
     74  C         18.3230    5.3160    7.1560 C.2   111  LYS111      0.2260
     75  O         17.5580    6.0490    7.7810 O.2   111  LYS111     -0.2867
     76  CB        17.3110    5.8320    4.9530 C.3   111  LYS111      0.0271
     77  CG        17.4850    6.3810    3.5640 C.3   111  LYS111      0.0035
     78  CD        16.1710    6.8590    2.9990 C.3   111  LYS111      0.0206
     79  CE        16.3530    7.3670    1.5850 C.3   111  LYS111      0.1093
     80  NZ        15.0880    7.9220    1.0370 N.3   111  LYS111     -0.1314
     81  N         16.3230    3.1380    8.2240 N.3   113  LYS113     -0.1245
     82  CA        14.8730    3.1450    8.1850 C.3   113  LYS113      0.1561
     83  C         14.3830    1.7030    8.2020 C.2   113  LYS113      0.2260
     84  O         14.9030    0.8990    7.4660 O.2   113  LYS113     -0.2867
     85  CB        14.4380    3.8790    6.9120 C.3   113  LYS113      0.0271
     86  CG        12.9710    3.8360    6.5830 C.3   113  LYS113      0.0035
     87  CD        12.1500    4.6710    7.5200 C.3   113  LYS113      0.0206
     88  CE        10.7130    4.3430    7.2610 C.3   113  LYS113      0.1093
     89  NZ         9.7170    5.1800    7.9940 N.3   113  LYS113     -0.1314
     90  N         10.8140   -0.8920    7.9190 N.3   115  PHE115     -0.1241
     91  CA         9.3640   -0.9480    7.7630 C.3   115  PHE115      0.1605
     92  C          8.9200   -2.3930    7.6700 C.2   115  PHE115      0.2264
     93  O          9.7380   -3.3070    7.4780 O.2   115  PHE115     -0.2867
     94  CB         8.8630   -0.1580    6.5470 C.3   115  PHE115      0.0534
     95  CG         9.4810   -0.5530    5.2160 C.ar  115  PHE115     -0.0203
     96  CD1        8.9790   -1.5970    4.4600 C.ar  115  PHE115     -0.0042
     97  CD2       10.4940    0.2280    4.6720 C.ar  115  PHE115     -0.0042
     98  CE1        9.5340   -1.9070    3.2250 C.ar  115  PHE115     -0.0003
     99  CE2       11.0410   -0.0560    3.4190 C.ar  115  PHE115     -0.0003
    100  CZ        10.5680   -1.1250    2.6960 C.ar  115  PHE115     -0.0000
@<TRIPOS>BOND
     1    61    62    1
     2    52    51    2
     3    51    50    1
     4    49    50    1
     5    50    53    1
     6    62    63    1
     7    62    65    1
     8    40    41    2
     9    40    39    1
    10    66    67    1
    11    66    65    1
    12    63    64    2
    13    67    68    1
    14    70    69    1
    15    53    54    1
    16    39    42    1
    17    39    38    1
    18    68    69    2
    19    69    71    1
    20    54    55   ar
    21    54    56   ar
    22    42    43    1
    23    44    45    1
    24    44    43    1
    25    55    57   ar
    26    56    58   ar
    27    47    46    1
    28    45    46    2
    29    46    48    1
    30    57    59   ar
    31    58    59   ar
    32    59    60    1
    33    80    79    1
    34    79    78    1
    35    31    32    2
    36    31    30    1
    37    36    35    2
    38     7     8    1
    39     7     6    1
    40    33    30    1
    41    33    34    1
    42   100    98   ar
    43   100    99   ar
    44     8     9    1
    45     5     6    1
    46     5     2    1
    47    78    77    1
    48    30    29    1
    49    35    34    1
    50    35    37   am
    51    98    96   ar
    52    99    97   ar
    53     1     2    1
    54    77    76    1
    55     2     3    1
    56    96    95   ar
    57    97    95   ar
    58    76    73    1
    59    72    73    1
    60     4     3    2
    61    95    94    1
    62    27    26    2
    63    73    74    1
    64    94    91    1
    65    86    85    1
    66    86    87    1
    67    14    15    1
    68    14    11    1
    69    26    25    1
    70    26    28   am
    71    85    82    1
    72    74    75    2
    73    88    87    1
    74    88    89    1
    75    24    23    2
    76    84    83    2
    77    93    92    2
    78    25    22    1
    79    92    91    1
    80    91    90    1
    81    10    11    1
    82    23    22    1
    83    11    12    1
    84    82    83    1
    85    82    81    1
    86    13    12    2
    87    22    21    1
    88    12    16   am
    89    16    17    1
    90    20    17    1
    91    17    18    1
    92    19    18    2
