@<TRIPOS>MOLECULE
tmp/5d40B01.pdb
 163 158 0 0 0
SMALL
GASTEIGER

@<TRIPOS>ATOM
      1  N          9.3620  -96.0680   82.8740 N.3    56  ARG56      -0.1245
      2  CA        10.1450  -97.2050   83.4490 C.3    56  ARG56       0.1563
      3  C         11.6120  -96.8330   83.7050 C.2    56  ARG56       0.2260
      4  O         12.4350  -97.6620   84.1080 O.2    56  ARG56      -0.2867
      5  CB        10.0840  -98.3550   82.4810 C.3    56  ARG56       0.0307
      6  CG        10.8010  -98.0910   81.1220 C.3    56  ARG56       0.0489
      7  CD        10.3320  -99.1950   80.2570 C.3    56  ARG56       0.2205
      8  NE        10.8310  -99.1960   78.8880 N.pl3  56  ARG56      -0.0865
      9  CZ        10.1140  -98.8840   77.8250 C.cat  56  ARG56       0.5346
     10  NH1       10.5140  -99.2830   76.6240 N.pl3  56  ARG56       0.1354
     11  NH2        8.9550  -98.2230   77.9430 N.pl3  56  ARG56       0.1354
     12  N         14.2220  -99.2890   85.5130 N.3    60  VAL60      -0.1245
     13  CA        15.2730  -99.8970   84.6800 C.3    60  VAL60       0.1561
     14  C         16.6930  -99.4370   85.0970 C.2    60  VAL60       0.2260
     15  O         17.6670 -100.2160   85.1460 O.2    60  VAL60      -0.2867
     16  CB        14.9550  -99.7790   83.1750 C.3    60  VAL60       0.0252
     17  CG1       16.0510 -100.3750   82.3340 C.3    60  VAL60       0.0019
     18  CG2       13.6440 -100.4430   82.9300 C.3    60  VAL60       0.0019
     19  N          9.3560  -92.7270   73.8510 N.3    85  MET85      -0.1230
     20  CA         9.6270  -94.1040   74.1930 C.3    85  MET85       0.1702
     21  C          9.2330  -94.4520   75.6480 C.2    85  MET85       0.2592
     22  O          8.8240  -95.5820   75.9370 O.2    85  MET85      -0.2718
     23  CB        11.1240  -94.3190   74.0130 C.3    85  MET85       0.0401
     24  CG        11.6100  -95.7630   74.2190 C.3    85  MET85       0.0596
     25  SD        11.1570  -96.8190   72.8280 S.3    85  MET85      -0.1393
     26  CE        12.4040  -96.3250   71.6310 C.3    85  MET85       0.0692
     27  N          9.3490  -93.4680   76.5450 N.am   86  TYR86      -0.1976
     28  CA         9.3060  -93.6870   77.9620 C.3    86  TYR86       0.1639
     29  C          8.2000  -92.8630   78.6320 C.2    86  TYR86       0.2290
     30  O          8.1990  -92.6950   79.8480 O.2    86  TYR86      -0.2864
     31  CB        10.6770  -93.4050   78.5650 C.3    86  TYR86       0.0560
     32  CG        11.7650  -94.2200   78.0280 C.ar   86  TYR86      -0.0198
     33  CD1       11.7800  -95.5940   78.2090 C.ar   86  TYR86      -0.0009
     34  CD2       12.7970  -93.6630   77.3390 C.ar   86  TYR86      -0.0009
     35  CE1       12.7960  -96.3440   77.7120 C.ar   86  TYR86       0.0417
     36  CE2       13.7910  -94.4210   76.7790 C.ar   86  TYR86       0.0417
     37  CZ        13.7990  -95.7710   76.9780 C.ar   86  TYR86       0.1957
     38  OH        14.8160  -96.5340   76.4890 O.3    86  TYR86      -0.2866
     39  N         24.6180  -96.7480   74.1160 N.3   170  MET170     -0.1301
     40  CA        23.8970  -97.9880   73.9150 C.3   170  MET170      0.1256
     41  C         24.4070  -99.1030   74.8440 C.3   170  MET170      0.2010
     42  O         23.6750 -100.1590   75.0350 O.3   170  MET170     -0.2188
     43  CB        23.9740  -98.4680   72.4430 C.3   170  MET170      0.0333
     44  CG        23.0330  -97.6910   71.5460 C.3   170  MET170      0.0592
     45  SD        21.3260  -97.7510   72.0670 S.3   170  MET170     -0.1393
     46  CE        20.9880  -99.4950   72.0140 C.3   170  MET170      0.0692
     47  N         24.2490  -98.9160   77.8940 N.3   172  TYR172     -0.1227
     48  CA        23.2250  -98.9820   78.9190 C.3   172  TYR172      0.1736
     49  C         22.4220 -100.3070   78.7010 C.2   172  TYR172      0.2595
     50  O         22.0230 -100.9740   79.6260 O.2   172  TYR172     -0.2718
     51  CB        22.3200  -97.7880   78.7810 C.3   172  TYR172      0.0548
     52  CG        21.1470  -97.7120   79.7170 C.ar  172  TYR172     -0.0200
     53  CD1       21.2760  -97.1130   80.9720 C.ar  172  TYR172     -0.0009
     54  CD2       19.8840  -98.1060   79.3290 C.ar  172  TYR172     -0.0009
     55  CE1       20.1860  -96.9680   81.8260 C.ar  172  TYR172      0.0417
     56  CE2       18.8230  -98.0080   80.1720 C.ar  172  TYR172      0.0417
     57  CZ        18.9600  -97.4190   81.4280 C.ar  172  TYR172      0.1957
     58  OH        17.8330  -97.2860   82.2360 O.3   172  TYR172     -0.2866
     59  N         22.1100 -100.5540   77.4210 N.am  173  TYR173     -0.1976
     60  CA        21.2550 -101.6670   77.0480 C.3   173  TYR173      0.1639
     61  C         22.0860 -102.9070   76.6840 C.2   173  TYR173      0.2290
     62  O         22.1350 -103.3030   75.5310 O.2   173  TYR173     -0.2864
     63  CB        20.3550 -101.2840   75.8640 C.3   173  TYR173      0.0560
     64  CG        19.6020  -99.9620   76.0510 C.ar  173  TYR173     -0.0198
     65  CD1       18.2980  -99.9310   76.5120 C.ar  173  TYR173     -0.0009
     66  CD2       20.1830  -98.7600   75.5910 C.ar  173  TYR173     -0.0009
     67  CE1       17.5570  -98.7190   76.6190 C.ar  173  TYR173      0.0417
     68  CE2       19.4830  -97.5630   75.6750 C.ar  173  TYR173      0.0417
     69  CZ        18.1940  -97.5210   76.2650 C.ar  173  TYR173      0.1957
     70  OH        17.4680  -96.3070   76.2810 O.3   173  TYR173     -0.2866
     71  N         16.9130  -88.9340   71.2880 N.3   238  LEU238     -0.1245
     72  CA        16.4040  -90.2960   71.1310 C.3   238  LEU238      0.1561
     73  C         16.5260  -90.7990   69.6930 C.2   238  LEU238      0.2260
     74  O         16.9410  -91.9120   69.4520 O.2   238  LEU238     -0.2867
     75  CB        14.9720  -90.4090   71.6270 C.3   238  LEU238      0.0270
     76  CG        14.2440  -91.7320   71.3060 C.3   238  LEU238      0.0019
     77  CD1       14.9170  -92.8760   71.9970 C.3   238  LEU238      0.0001
     78  CD2       12.8100  -91.6090   71.6730 C.3   238  LEU238      0.0001
     79  N         20.1140  -91.7600   68.9640 N.3   241  ILE241     -0.1231
     80  CA        20.4720  -93.0250   69.6090 C.3   241  ILE241      0.1692
     81  C         19.8800  -94.1670   68.7970 C.2   241  ILE241      0.2591
     82  O         20.5750  -95.1460   68.4710 O.2   241  ILE241     -0.2718
     83  CB        19.9820  -93.0240   71.0530 C.3   241  ILE241      0.0266
     84  CG1       20.8190  -92.0510   71.8760 C.3   241  ILE241      0.0019
     85  CG2       20.0260  -94.4270   71.6240 C.3   241  ILE241      0.0020
     86  CD1       20.1790  -91.6270   73.1710 C.3   241  ILE241      0.0001
     87  N         18.6010  -94.0800   68.4510 N.am  242  ALA242     -0.1980
     88  CA        17.9800  -95.1640   67.6920 C.3   242  ALA242      0.1597
     89  C         18.5560  -95.3450   66.2840 C.2   242  ALA242      0.2287
     90  O         18.6720  -96.5090   65.7720 O.2   242  ALA242     -0.2864
     91  CB        16.5070  -94.9440   67.6250 C.3   242  ALA242      0.0319
     92  N         22.0370  -97.0800   66.8160 N.3   245  ALA245     -0.1245
     93  CA        21.9270  -98.3340   67.5880 C.3   245  ALA245      0.1562
     94  C         22.2290  -99.5130   66.6650 C.2   245  ALA245      0.2260
     95  O         22.0160  -99.4290   65.4350 O.2   245  ALA245     -0.2867
     96  CB        20.5110  -98.4810   68.1700 C.3   245  ALA245      0.0290
     97  N         20.4490 -101.9460   66.0330 N.3   247  THR247     -0.1218
     98  CA        19.2250 -102.5430   65.5720 C.3   247  THR247      0.1862
     99  C         19.1360 -102.7550   64.0640 C.2   247  THR247      0.2287
    100  O         18.8310 -103.8410   63.5850 O.2   247  THR247     -0.2866
    101  CB        17.9970 -101.6900   65.9210 C.3   247  THR247      0.1770
    102  OG1       18.2940 -100.3470   65.5840 O.3   247  THR247     -0.2211
    103  CG2       17.6230 -101.7810   67.3260 C.3   247  THR247      0.0375
    104  N         16.1700 -106.0090   68.8150 N.3   290  ASN290     -0.1240
    105  CA        15.8960 -105.7340   70.2310 C.3   290  ASN290      0.1653
    106  C         15.1450 -106.9240   70.7870 C.2   290  ASN290      0.2266
    107  O         13.9630 -107.0830   70.5540 O.2   290  ASN290     -0.2867
    108  CB        15.1530 -104.3850   70.3830 C.3   290  ASN290      0.1155
    109  CG        15.0460 -103.8860   71.8140 C.2   290  ASN290      0.2627
    110  OD1       14.1560 -103.0220   72.0640 O.2   290  ASN290     -0.2716
    111  ND2       15.9130 -104.3200   72.7240 N.am  290  ASN290     -0.0877
    112  N         14.4670 -108.1090   73.7410 N.3   292  PHE292     -0.1227
    113  CA        13.5130 -107.8840   74.8030 C.3   292  PHE292      0.1736
    114  C         13.4080 -106.3720   75.0510 C.2   292  PHE292      0.2596
    115  O         14.3950 -105.6450   74.9200 O.2   292  PHE292     -0.2718
    116  CB        13.8690 -108.7230   76.0760 C.3   292  PHE292      0.0547
    117  CG        15.0110 -108.2100   76.8890 C.ar  292  PHE292     -0.0202
    118  CD1       14.8250 -107.2360   77.8580 C.ar  292  PHE292     -0.0042
    119  CD2       16.2930 -108.7560   76.7230 C.ar  292  PHE292     -0.0042
    120  CE1       15.9590 -106.8370   78.6060 C.ar  292  PHE292     -0.0003
    121  CE2       17.3680 -108.3470   77.4700 C.ar  292  PHE292     -0.0003
    122  CZ        17.1840 -107.4060   78.4270 C.ar  292  PHE292     -0.0000
    123  N         12.2120 -105.9820   75.4590 N.am  293  THR293     -0.1939
    124  CA        11.9390 -104.6280   75.8070 C.3   293  THR293      0.2028
    125  C         11.3170 -104.5690   77.1860 C.2   293  THR293      0.2642
    126  O         10.7590 -105.5390   77.6770 O.2   293  THR293     -0.2714
    127  CB        11.0900 -103.9500   74.7470 C.3   293  THR293      0.1808
    128  OG1       11.2210 -102.5340   74.9590 O.3   293  THR293     -0.2208
    129  CG2        9.6140 -104.3350   74.7870 C.3   293  THR293      0.0379
    130  N         11.4840 -103.4570   77.8330 N.am  294  TRP294     -0.1973
    131  CA        11.1310 -103.3260   79.2430 C.3   294  TRP294      0.1640
    132  C          9.6990 -102.7190   79.4330 C.2   294  TRP294      0.2290
    133  O          9.2800 -101.8540   78.6570 O.2   294  TRP294     -0.2864
    134  CB        12.1420 -102.4660   79.9600 C.3   294  TRP294      0.0576
    135  CG        13.5880 -102.9380   79.9640 C.ar  294  TRP294      0.0006
    136  CD1       14.5410 -102.6870   79.0050 C.ar  294  TRP294      0.0946
    137  CD2       14.2090 -103.6390   81.0010 C.ar  294  TRP294      0.0152
    138  NE1       15.7190 -103.2130   79.4130 N.ar  294  TRP294     -0.2442
    139  CE2       15.5480 -103.8340   80.6210 C.ar  294  TRP294      0.0810
    140  CE3       13.7810 -104.0950   82.2500 C.ar  294  TRP294      0.0012
    141  CZ2       16.4610 -104.4580   81.4060 C.ar  294  TRP294      0.0191
    142  CZ3       14.7170 -104.7440   83.0730 C.ar  294  TRP294      0.0001
    143  CH2       16.0710 -104.8930   82.6440 C.ar  294  TRP294      0.0015
    144  N         20.3730 -108.1230   74.6820 N.3   391  GLU391     -0.1182
    145  CA        19.3020 -107.0860   74.6350 C.3   391  GLU391      0.1915
    146  C         19.1930 -106.4500   73.2220 C.2   391  GLU391      0.2634
    147  O         18.1110 -106.3490   72.6830 O.2   391  GLU391     -0.2714
    148  CB        19.5350 -106.0010   75.7790 C.2   391  GLU391      0.0085
    149  CG        18.3710 -105.0140   76.0060 C.2   391  GLU391      0.0835
    150  CD        18.5170 -104.1090   77.2280 C.2   391  GLU391      0.3877
    151  OE1       19.4450 -104.3660   78.0070 O.co2 391  GLU391     -0.2406
    152  OE2       17.6380 -103.1890   77.4260 O.co2 391  GLU391     -0.2406
    153  N         20.3170 -105.9640   72.7270 N.am  392  PHE392     -0.1973
    154  CA        20.4360 -105.5180   71.3470 C.3   392  PHE392      0.1639
    155  C         21.3790 -106.4690   70.7190 C.2   392  PHE392      0.2290
    156  O         22.5850 -106.3500   70.8780 O.2   392  PHE392     -0.2864
    157  CB        20.9190 -104.0590   71.2840 C.3   392  PHE392      0.0560
    158  CG        19.8190 -103.0970   71.5680 C.ar  392  PHE392     -0.0200
    159  CD1       19.4790 -102.7600   72.8780 C.ar  392  PHE392     -0.0042
    160  CD2       19.0710 -102.5680   70.5740 C.ar  392  PHE392     -0.0042
    161  CE1       18.4160 -101.8760   73.1450 C.ar  392  PHE392     -0.0003
    162  CE2       18.0060 -101.7160   70.8430 C.ar  392  PHE392     -0.0003
    163  CZ        17.6810 -101.3640   72.1080 C.ar  392  PHE392     -0.0000
@<TRIPOS>BOND
     1   100    99    2
     2    99    98    1
     3    95    94    2
     4    98   101    1
     5    98    97    1
     6   102   101    1
     7    90    89    2
     8   101   103    1
     9    89    88    1
    10    94    93    1
    11    92    93    1
    12    93    96    1
    13    91    88    1
    14    88    87    1
    15    87    81   am
    16    82    81    2
    17    81    80    1
    18   104   105    1
    19    79    80    1
    20    74    73    2
    21    80    83    1
    22    73    72    1
    23   105   108    1
    24   105   106    1
    25   108   109    1
    26   107   106    2
    27   160   162   ar
    28   160   158   ar
    29   155   156    2
    30   155   154    1
    31   162   163   ar
    32    83    85    1
    33    83    84    1
    34    72    71    1
    35    72    75    1
    36   157   154    1
    37   157   158    1
    38    76    75    1
    39    76    78    1
    40    76    77    1
    41   154   153    1
    42    44    45    1
    43    44    43    1
    44   158   159   ar
    45    26    25    1
    46   109   110    2
    47   109   111   am
    48    84    86    1
    49    46    45    1
    50   163   161   ar
    51    43    40    1
    52   147   146    2
    53   153   146   am
    54    25    24    1
    55   159   161   ar
    56   146   145    1
    57   112   113    1
    58    19    20    1
    59    40    39    1
    60    40    41    1
    61    23    20    1
    62    23    24    1
    63    20    21    1
    64   145   144    1
    65   145   148    1
    66   127   129    1
    67   127   128    1
    68   127   124    1
    69   113   114    1
    70   113   116    1
    71    41    42    1
    72   115   114    2
    73   114   123   am
    74   123   124    1
    75    62    61    2
    76    66    68   ar
    77    66    64   ar
    78    21    22    2
    79    21    27   am
    80    68    69   ar
    81   148   149    2
    82   124   125    1
    83    63    64    1
    84    63    60    1
    85   149   150    1
    86    64    65   ar
    87   116   117    1
    88    69    70    1
    89    69    67   ar
    90    38    37    1
    91    65    67   ar
    92    27    28    1
    93    10     9    1
    94    61    60    1
    95   119   117   ar
    96   119   121   ar
    97    36    37   ar
    98    36    34   ar
    99   117   118   ar
   100    37    35   ar
   101    60    59    1
   102   125   126    2
   103   125   130   am
   104   150   152   ar
   105   150   151   ar
   106    34    32   ar
   107    59    49   am
   108   121   122   ar
   109    35    33   ar
   110     9    11    1
   111     9     8    2
   112   130   131    1
   113   118   120   ar
   114    47    48    1
   115    28    31    1
   116    28    29    1
   117    32    33   ar
   118    32    31    1
   119   122   120   ar
   120    29    30    2
   121   133   132    2
   122    49    48    1
   123    49    50    2
   124    51    48    1
   125    51    52    1
   126     8     7    1
   127   136   138   ar
   128   136   135   ar
   129   131   132    1
   130   131   134    1
   131    54    52   ar
   132    54    56   ar
   133   138   139   ar
   134    52    53   ar
   135   134   135    1
   136   135   137   ar
   137    56    57   ar
   138     7     6    1
   139   139   137   ar
   140   139   141   ar
   141    53    55   ar
   142   137   140   ar
   143     6     5    1
   144   141   143   ar
   145    57    55   ar
   146    57    58    1
   147   140   142   ar
   148    17    16    1
   149     5     2    1
   150   143   142   ar
   151     1     2    1
   152    18    16    1
   153    16    13    1
   154     2     3    1
   155     3     4    2
   156    13    14    1
   157    13    12    1
   158    14    15    2
