@<TRIPOS>MOLECULE
tmp/5d41A01.pdb
 153 143 0 0 0
SMALL
GASTEIGER

@<TRIPOS>ATOM
      1  N        -22.4640   38.0950   19.8590 N.3    26  PHE26      -0.1241
      2  CA       -21.4040   37.8410   18.8940 C.3    26  PHE26       0.1605
      3  C        -21.4790   38.7670   17.6940 C.2    26  PHE26       0.2264
      4  O        -20.4700   39.0050   17.0300 O.2    26  PHE26      -0.2867
      5  CB       -21.4430   36.3820   18.4350 C.3    26  PHE26       0.0534
      6  CG       -21.6200   35.4140   19.5580 C.ar   26  PHE26      -0.0203
      7  CD1      -22.8990   35.0600   19.9930 C.ar   26  PHE26      -0.0042
      8  CD2      -20.5190   34.8700   20.2010 C.ar   26  PHE26      -0.0042
      9  CE1      -23.0750   34.1750   21.0460 C.ar   26  PHE26      -0.0003
     10  CE2      -20.6850   33.9790   21.2560 C.ar   26  PHE26      -0.0003
     11  CZ       -21.9650   33.6290   21.6780 C.ar   26  PHE26      -0.0000
     12  N        -27.3000   41.1510   13.3070 N.3    29  VAL29      -0.1245
     13  CA       -27.9760   40.4930   12.2190 C.3    29  VAL29       0.1561
     14  C        -28.6360   41.5220   11.3230 C.2    29  VAL29       0.2260
     15  O        -29.3490   42.4110   11.8060 O.2    29  VAL29      -0.2867
     16  CB       -29.0360   39.5200   12.7290 C.3    29  VAL29       0.0252
     17  CG1      -29.8620   38.9650   11.5660 C.3    29  VAL29       0.0019
     18  CG2      -28.3790   38.4110   13.5310 C.3    29  VAL29       0.0019
     19  N        -30.3690   36.5520    5.3850 N.3    46  ALA46      -0.1245
     20  CA       -29.9970   37.0810    6.6960 C.3    46  ALA46       0.1562
     21  C        -28.4770   37.1290    6.7930 C.2    46  ALA46       0.2260
     22  O        -27.7900   36.1710    6.4230 O.2    46  ALA46      -0.2867
     23  CB       -30.5790   36.2290    7.8170 C.3    46  ALA46       0.0290
     24  N        -25.1860   37.9310    9.3970 N.3    48  LYS48      -0.1245
     25  CA       -24.6580   38.2820   10.7090 C.3    48  LYS48       0.1561
     26  C        -23.2570   38.8010   10.5090 C.2    48  LYS48       0.2260
     27  O        -22.4350   38.1390    9.8960 O.2    48  LYS48      -0.2867
     28  CB       -24.6530   37.0920   11.6830 C.3    48  LYS48       0.0271
     29  CG       -23.8640   37.3760   12.9490 C.3    48  LYS48       0.0035
     30  CD       -24.0130   36.3060   14.0310 C.3    48  LYS48       0.0206
     31  CE       -25.4640   36.1750   14.4670 C.3    48  LYS48       0.1093
     32  NZ       -25.6700   35.1970   15.5800 N.3    48  LYS48      -0.1314
     33  N        -19.8630   39.8070   12.4670 N.3    50  LEU50      -0.1245
     34  CA       -19.2710   39.5730   13.7800 C.3    50  LEU50       0.1561
     35  C        -18.8200   40.8820   14.4280 C.2    50  LEU50       0.2260
     36  O        -18.5520   41.8640   13.7440 O.2    50  LEU50      -0.2867
     37  CB       -18.1070   38.5930   13.6740 C.3    50  LEU50       0.0270
     38  CG       -18.4950   37.1540   13.3180 C.3    50  LEU50       0.0019
     39  CD1      -17.2700   36.2460   13.3690 C.3    50  LEU50       0.0001
     40  CD2      -19.5950   36.6280   14.2210 C.3    50  LEU50       0.0001
     41  N        -12.3910   30.4280   12.0270 N.3    62  ILE62      -0.1245
     42  CA       -13.7640   30.7790   11.7610 C.3    62  ILE62       0.1561
     43  C        -14.2400   29.9630   10.5660 C.2    62  ILE62       0.2260
     44  O        -15.3570   29.4490   10.5510 O.2    62  ILE62      -0.2867
     45  CB       -13.9000   32.2870   11.5090 C.3    62  ILE62       0.0252
     46  CG1      -13.4890   33.0580   12.7690 C.3    62  ILE62       0.0019
     47  CG2      -15.3190   32.6560   11.0670 C.3    62  ILE62       0.0019
     48  CD1      -13.4840   34.5510   12.5940 C.3    62  ILE62       0.0001
     49  N        -15.0880   26.2260   11.5370 N.3    65  GLU65      -0.1231
     50  CA       -16.4110   26.1450   12.1580 C.3    65  GLU65       0.1699
     51  C        -17.5050   26.2610   11.1040 C.2    65  GLU65       0.2592
     52  O        -18.4740   25.4930   11.0940 O.2    65  GLU65      -0.2718
     53  CB       -16.5870   27.2490   13.1930 C.3    65  GLU65       0.0402
     54  CG       -16.6060   26.7600   14.6100 C.3    65  GLU65       0.1161
     55  CD       -16.5700   27.8960   15.6090 C.2    65  GLU65       0.3649
     56  OE1      -16.1300   29.0130   15.2500 O.co2  65  GLU65      -0.2457
     57  OE2      -16.9730   27.6600   16.7660 O.co2  65  GLU65      -0.2457
     58  N        -17.3230   27.2390   10.2250 N.am   66  ALA66      -0.1980
     59  CA       -18.2630   27.5360    9.1710 C.3    66  ALA66       0.1597
     60  C        -18.5010   26.3130    8.3000 C.2    66  ALA66       0.2287
     61  O        -19.6450   26.0400    7.9530 O.2    66  ALA66      -0.2864
     62  CB       -17.7700   28.7060    8.3420 C.3    66  ALA66       0.0319
     63  N        -20.7380   24.0800   10.2610 N.3    69  MET69      -0.1245
     64  CA       -22.1040   24.5650   10.4050 C.3    69  MET69       0.1570
     65  C        -22.8420   24.5600    9.0760 C.2    69  MET69       0.2261
     66  O        -24.0680   24.5690    9.0480 O.2    69  MET69      -0.2867
     67  CB       -22.1230   25.9670   11.0010 C.3    69  MET69       0.0387
     68  CG       -21.7000   26.0250   12.4480 C.3    69  MET69       0.0595
     69  SD       -20.7790   27.5340   12.7570 S.3    69  MET69      -0.1393
     70  CE       -20.5930   27.4820   14.5390 C.3    69  MET69       0.0692
     71  N        -31.1280   24.9690   11.3290 N.3    78  CYS78      -0.1221
     72  CA       -30.6760   25.8240   10.2480 C.3    78  CYS78       0.1808
     73  C        -29.2400   25.4900    9.9060 C.2    78  CYS78       0.2601
     74  O        -28.4530   25.1700   10.7850 O.2    78  CYS78      -0.2717
     75  CB       -30.7770   27.2920   10.6390 C.3    78  CYS78       0.0970
     76  SG       -32.4740   27.8400   10.9240 S.3    78  CYS78      -0.0800
     77  N        -28.8810   25.5840    8.6340 N.am   79  ARG79      -0.1965
     78  CA       -27.4790   25.4720    8.2980 C.3    79  ARG79       0.1729
     79  C        -26.9400   26.8150    7.8450 C.2    79  ARG79       0.2616
     80  O        -27.6750   27.6540    7.3130 O.2    79  ARG79      -0.2715
     81  CB       -27.2550   24.3990    7.2220 C.3    79  ARG79       0.0348
     82  CG       -27.6280   24.7730    5.8020 C.3    79  ARG79       0.0492
     83  CD       -27.2840   23.5840    4.8780 C.3    79  ARG79       0.2205
     84  NE       -27.3760   23.9090    3.4520 N.pl3  79  ARG79      -0.0865
     85  CZ       -26.4030   24.5150    2.7750 C.cat  79  ARG79       0.5346
     86  NH1      -25.2770   24.8510    3.4010 N.pl3  79  ARG79       0.1354
     87  NH2      -26.5510   24.7890    1.4790 N.pl3  79  ARG79       0.1354
     88  N        -25.6460   27.0180    8.0650 N.am   80  LEU80      -0.1977
     89  CA       -24.9600   28.1670    7.4990 C.3    80  LEU80       0.1596
     90  C        -24.9260   28.0060    5.9740 C.2    80  LEU80       0.2287
     91  O        -24.7100   26.9100    5.4660 O.2    80  LEU80      -0.2864
     92  CB       -23.5520   28.2910    8.0800 C.3    80  LEU80       0.0297
     93  CG       -22.7070   29.4830    7.6140 C.3    80  LEU80       0.0022
     94  CD1      -23.3790   30.7820    8.0070 C.3    80  LEU80       0.0001
     95  CD2      -21.3170   29.4200    8.2080 C.3    80  LEU80       0.0001
     96  N        -21.6550   36.5140    7.8330 N.3    91  LEU91      -0.1231
     97  CA       -22.1680   35.1630    7.6820 C.3    91  LEU91       0.1693
     98  C        -23.5720   35.1910    7.0930 C.2    91  LEU91       0.2592
     99  O        -24.4050   36.0050    7.4930 O.2    91  LEU91      -0.2718
    100  CB       -22.1590   34.4610    9.0350 C.3    91  LEU91       0.0284
    101  CG       -20.7760   34.4390    9.6770 C.3    91  LEU91       0.0019
    102  CD1      -20.8740   34.4430   11.1950 C.3    91  LEU91       0.0001
    103  CD2      -20.0120   33.2140    9.1950 C.3    91  LEU91       0.0001
    104  N        -23.8430   34.3060    6.1440 N.am   92  ILE92      -0.1966
    105  CA       -25.1260   34.3480    5.4580 C.3    92  ILE92       0.1727
    106  C        -25.9020   33.0550    5.6850 C.2    92  ILE92       0.2616
    107  O        -25.3480   31.9530    5.6280 O.2    92  ILE92      -0.2715
    108  CB       -24.9720   34.5930    3.9230 C.3    92  ILE92       0.0290
    109  CG1      -24.4580   36.0080    3.6340 C.3    92  ILE92       0.0022
    110  CG2      -26.3210   34.3660    3.1880 C.3    92  ILE92       0.0023
    111  CD1      -22.9630   36.2070    3.8630 C.3    92  ILE92       0.0001
    112  N        -27.1930   33.1980    5.9540 N.am   93  MET93      -0.1977
    113  CA       -28.0770   32.0520    6.0630 C.3    93  MET93       0.1605
    114  C        -29.4240   32.4710    5.4930 C.2    93  MET93       0.2287
    115  O        -29.5970   33.6040    5.0530 O.2    93  MET93      -0.2864
    116  CB       -28.2040   31.5840    7.5180 C.3    93  MET93       0.0413
    117  CG       -28.9890   32.5560    8.3910 C.3    93  MET93       0.0598
    118  SD       -29.0450   32.1660   10.1660 S.3    93  MET93      -0.1393
    119  CE       -30.1850   30.7820   10.1560 C.3    93  MET93       0.0692
    120  N        -31.0550   27.5950   15.5210 N.3   157  THR157     -0.1203
    121  CA       -29.9860   28.3200   14.8560 C.3   157  THR157      0.1994
    122  C        -28.8390   28.6280   15.8290 C.2   157  THR157      0.2618
    123  O        -28.9530   28.4020   17.0350 O.2   157  THR157     -0.2717
    124  CB       -30.5260   29.6310   14.2100 C.3   157  THR157      0.1784
    125  OG1      -29.5310   30.2050   13.3540 O.3   157  THR157     -0.2211
    126  CG2      -30.9890   30.6610   15.2820 C.3   157  THR157      0.0376
    127  N        -27.7150   29.0890   15.2890 N.am  158  ASP158     -0.1959
    128  CA       -26.6380   29.6940   16.0790 C.3   158  ASP158      0.1840
    129  C        -26.0110   28.7530   17.0960 C.2   158  ASP158      0.2622
    130  O        -25.6360   29.1580   18.1860 O.2   158  ASP158     -0.2715
    131  CB       -27.1590   30.9560   16.7910 C.3   158  ASP158      0.1450
    132  CG       -27.3680   32.1310   15.8290 C.2   158  ASP158      0.3671
    133  OD1      -26.8410   32.0820   14.6980 O.co2 158  ASP158     -0.2456
    134  OD2      -28.0610   33.0980   16.1930 O.co2 158  ASP158     -0.2456
    135  N        -25.8660   27.5000   16.7160 N.am  159  PHE159     -0.1974
    136  CA       -25.2490   26.5000   17.5840 C.3   159  PHE159      0.1639
    137  C        -23.7430   26.3690   17.3160 C.2   159  PHE159      0.2290
    138  O        -23.2290   26.9640   16.3820 O.2   159  PHE159     -0.2864
    139  CB       -25.9440   25.1500   17.3580 C.3   159  PHE159      0.0560
    140  CG       -26.0290   24.7760   15.9300 C.ar  159  PHE159     -0.0200
    141  CD1      -24.9790   24.1060   15.3150 C.ar  159  PHE159     -0.0042
    142  CD2      -27.1380   25.1360   15.1750 C.ar  159  PHE159     -0.0042
    143  CE1      -25.0440   23.7830   13.9710 C.ar  159  PHE159     -0.0003
    144  CE2      -27.2170   24.8180   13.8390 C.ar  159  PHE159     -0.0003
    145  CZ       -26.1680   24.1360   13.2300 C.ar  159  PHE159     -0.0000
    146  N        -20.7500   27.2790   18.2130 N.3   161  LEU161     -0.1245
    147  CA       -19.6450   28.2310   18.3200 C.3   161  LEU161      0.1561
    148  C        -19.2560   28.5100   19.7640 C.2   161  LEU161      0.2260
    149  O        -18.3510   27.8680   20.2970 O.2   161  LEU161     -0.2867
    150  CB       -19.9990   29.5350   17.6100 C.3   161  LEU161      0.0270
    151  CG       -21.2700   30.2130   18.0960 C.3   161  LEU161      0.0019
    152  CD1      -20.9220   31.4590   18.8900 C.3   161  LEU161      0.0001
    153  CD2      -22.1730   30.5420   16.9220 C.3   161  LEU161      0.0001
@<TRIPOS>BOND
     1    87    85    1
     2    85    86    1
     3    85    84    2
     4   110   108    1
     5    84    83    1
     6   109   111    1
     7   109   108    1
     8   108   105    1
     9    83    82    1
    10   115   114    2
    11    19    20    1
    12   105   106    1
    13   105   104    1
    14    91    90    2
    15   114   113    1
    16   107   106    2
    17   106   112   am
    18    82    81    1
    19   112   113    1
    20    90    89    1
    21   113   116    1
    22   104    98   am
    23    22    21    2
    24    20    21    1
    25    20    23    1
    26    98    99    2
    27    98    97    1
    28    81    78    1
    29    80    79    2
    30    89    88    1
    31    89    92    1
    32   116   117    1
    33    93    94    1
    34    93    92    1
    35    93    95    1
    36    97    96    1
    37    97   100    1
    38    79    88   am
    39    79    78    1
    40    61    60    2
    41    78    77    1
    42    60    59    1
    43    62    59    1
    44   117   118    1
    45    77    73   am
    46   100   101    1
    47    66    65    2
    48    65    64    1
    49    59    58    1
    50   103   101    1
    51    24    25    1
    52   101   102    1
    53    27    26    2
    54    73    72    1
    55    73    74    2
    56   119   118    1
    57    58    51   am
    58    72    75    1
    59    72    71    1
    60    63    64    1
    61    64    67    1
    62    26    25    1
    63    44    43    2
    64    43    42    1
    65    75    76    1
    66    25    28    1
    67    67    68    1
    68    47    45    1
    69    52    51    2
    70    51    50    1
    71    14    15    2
    72    14    13    1
    73    45    42    1
    74    45    46    1
    75    49    50    1
    76    17    16    1
    77    28    29    1
    78    42    41    1
    79    50    53    1
    80    13    16    1
    81    13    12    1
    82    68    69    1
    83    33    34    1
    84    48    46    1
    85    16    18    1
    86    69    70    1
    87    29    30    1
    88    53    54    1
    89   145   144   ar
    90   145   143   ar
    91    38    39    1
    92    38    37    1
    93    38    40    1
    94   125   124    1
    95    37    34    1
    96    36    35    2
    97    34    35    1
    98   144   142   ar
    99   143   141   ar
   100    30    31    1
   101   124   121    1
   102   124   126    1
   103    31    32    1
   104    54    55    1
   105   133   132   ar
   106   121   120    1
   107   121   122    1
   108   142   140   ar
   109    56    55   ar
   110   127   122   am
   111   127   128    1
   112   141   140   ar
   113    55    57   ar
   114   122   123    2
   115   132   134   ar
   116   132   131    1
   117   140   139    1
   118   128   131    1
   119   128   129    1
   120   138   137    2
   121   135   129   am
   122   135   136    1
   123   153   151    1
   124     4     3    2
   125   129   130    2
   126   137   136    1
   127   139   136    1
   128   150   151    1
   129   150   147    1
   130     3     2    1
   131   151   152    1
   132   146   147    1
   133   147   148    1
   134     5     2    1
   135     5     6    1
   136     2     1    1
   137     6     7   ar
   138     6     8   ar
   139   148   149    2
   140     7     9   ar
   141     8    10   ar
   142     9    11   ar
   143    10    11   ar
