@<TRIPOS>MOLECULE
tmp/5d45A00.pdb
 229 214 0 0 0
SMALL
GASTEIGER

@<TRIPOS>ATOM
      1  N         -5.7100    1.0560  -21.4070 N.3    20  PHE20      -0.1241
      2  CA        -6.4480   -0.1560  -21.7050 C.3    20  PHE20       0.1605
      3  C         -6.7510   -0.2840  -23.1980 C.2    20  PHE20       0.2264
      4  O         -6.8460   -1.4080  -23.7230 O.2    20  PHE20      -0.2867
      5  CB        -7.7520   -0.1760  -20.8710 C.3    20  PHE20       0.0534
      6  CG        -8.4520   -1.5720  -20.7720 C.ar   20  PHE20      -0.0203
      7  CD1       -7.8150   -2.6540  -20.1780 C.ar   20  PHE20      -0.0042
      8  CD2       -9.8040   -1.7150  -21.0830 C.ar   20  PHE20      -0.0042
      9  CE1       -8.4630   -3.9130  -20.0130 C.ar   20  PHE20      -0.0003
     10  CE2      -10.4610   -2.9560  -20.9000 C.ar   20  PHE20      -0.0003
     11  CZ        -9.7830   -4.0570  -20.4100 C.ar   20  PHE20      -0.0000
     12  N         -3.8060   -1.8200  -24.8340 N.3    23  TYR23      -0.1227
     13  CA        -3.7890   -3.2810  -24.4920 C.3    23  TYR23       0.1736
     14  C         -4.7740   -4.0950  -25.3210 C.2    23  TYR23       0.2595
     15  O         -4.4210   -5.1230  -25.9170 O.2    23  TYR23      -0.2718
     16  CB        -4.0400   -3.4680  -23.0040 C.3    23  TYR23       0.0548
     17  CG        -4.1960   -4.9380  -22.6060 C.ar   23  TYR23      -0.0200
     18  CD1       -3.1010   -5.8150  -22.5250 C.ar   23  TYR23      -0.0009
     19  CD2       -5.4910   -5.4480  -22.3690 C.ar   23  TYR23      -0.0009
     20  CE1       -3.3080   -7.1600  -22.1620 C.ar   23  TYR23       0.0417
     21  CE2       -5.7080   -6.8030  -22.0700 C.ar   23  TYR23       0.0417
     22  CZ        -4.6310   -7.6570  -21.9340 C.ar   23  TYR23       0.1957
     23  OH        -4.7430   -9.0340  -21.6570 O.3    23  TYR23      -0.2866
     24  N         -6.0120   -3.6160  -25.3860 N.am   24  MET24      -0.1979
     25  CA        -7.0290   -4.3040  -26.1400 C.3    24  MET24       0.1605
     26  C         -6.6560   -4.3560  -27.6470 C.2    24  MET24       0.2287
     27  O         -6.9160   -5.3580  -28.2790 O.2    24  MET24      -0.2864
     28  CB        -8.3940   -3.6350  -25.9610 C.3    24  MET24       0.0413
     29  CG        -8.9700   -3.8450  -24.5700 C.3    24  MET24       0.0598
     30  SD       -10.7210   -3.3090  -24.5480 S.3    24  MET24      -0.1393
     31  CE       -10.4780   -1.5480  -24.5580 C.3    24  MET24       0.0692
     32  N         -4.2280   -7.2580  -28.0730 N.3    27  VAL27      -0.1245
     33  CA        -4.9270   -8.4920  -27.9090 C.3    27  VAL27       0.1561
     34  C         -5.6660   -8.8380  -29.2030 C.2    27  VAL27       0.2260
     35  O         -5.8100  -10.0440  -29.5250 O.2    27  VAL27      -0.2867
     36  CB        -5.8780   -8.4040  -26.6770 C.3    27  VAL27       0.0252
     37  CG1       -6.9770   -9.5380  -26.6810 C.3    27  VAL27       0.0019
     38  CG2       -5.0300   -8.4570  -25.4140 C.3    27  VAL27       0.0019
     39  N         -8.7710   -6.9390  -30.0530 N.3    29  VAL29      -0.1245
     40  CA       -10.2040   -6.5920  -29.8700 C.3    29  VAL29       0.1561
     41  C        -10.6120   -5.5640  -30.9360 C.2    29  VAL29       0.2260
     42  O         -9.8870   -4.6050  -31.1500 O.2    29  VAL29      -0.2867
     43  CB       -10.4640   -5.9790  -28.4950 C.3    29  VAL29       0.0252
     44  CG1      -11.9690   -5.7560  -28.2750 C.3    29  VAL29       0.0019
     45  CG2       -9.8490   -6.8880  -27.3900 C.3    29  VAL29       0.0019
     46  N        -16.2570   -1.8020  -24.1920 N.3    37  ALA37      -0.1245
     47  CA       -15.5950   -2.4390  -23.0250 C.3    37  ALA37       0.1562
     48  C        -14.7760   -1.3970  -22.2950 C.2    37  ALA37       0.2260
     49  O        -14.7010   -1.4370  -21.0640 O.2    37  ALA37      -0.2867
     50  CB       -14.7100   -3.6460  -23.4670 C.3    37  ALA37       0.0290
     51  N        -16.6180    0.5580  -19.7620 N.3    40  ALA40      -0.1245
     52  CA       -17.1330   -0.1450  -18.5550 C.3    40  ALA40       0.1562
     53  C        -16.3420    0.1540  -17.2710 C.2    40  ALA40       0.2260
     54  O        -15.1010    0.3370  -17.2750 O.2    40  ALA40      -0.2867
     55  CB       -17.2030   -1.6660  -18.8150 C.3    40  ALA40       0.0290
     56  N        -16.2700   -2.0610  -14.3800 N.3    42  PRO42      -0.2102
     57  CA       -16.7520   -3.2530  -13.6510 C.3    42  PRO42       0.1504
     58  C        -16.4260   -3.2610  -12.1650 C.2    42  PRO42       0.2576
     59  O        -15.4190   -2.7000  -11.7280 O.2    42  PRO42      -0.2718
     60  CB       -16.0630   -4.4470  -14.3280 C.3    42  PRO42       0.0282
     61  CG       -14.8170   -3.8080  -14.9040 C.3    42  PRO42       0.0208
     62  CD       -15.2300   -2.4210  -15.3560 C.3    42  PRO42       0.0893
     63  N        -17.3510   -3.8430  -11.3990 N.am   43  ASN43      -0.1961
     64  CA       -16.9800   -4.3580  -10.0850 C.3    43  ASN43       0.1819
     65  C        -16.3420   -5.7550  -10.2710 C.2    43  ASN43       0.2621
     66  O        -16.6870   -6.4960  -11.2030 O.2    43  ASN43      -0.2715
     67  CB       -18.2270   -4.5100   -9.2380 C.3    43  ASN43       0.1195
     68  CG       -18.6920   -3.1810   -8.6290 C.2    43  ASN43       0.2630
     69  OD1      -19.6710   -3.1640   -7.9290 O.2    43  ASN43      -0.2716
     70  ND2      -17.9970   -2.1130   -8.8850 N.am   43  ASN43      -0.0877
     71  N        -15.4410   -6.1350   -9.3630 N.am   44  MET44      -0.1977
     72  CA       -14.8160   -7.4560   -9.3830 C.3    44  MET44       0.1605
     73  C        -15.1110   -8.1030   -8.0430 C.2    44  MET44       0.2287
     74  O        -14.8950   -7.4860   -7.0010 O.2    44  MET44      -0.2864
     75  CB       -13.3120   -7.2880   -9.5170 C.3    44  MET44       0.0413
     76  CG       -12.5230   -8.5970   -9.3260 C.3    44  MET44       0.0598
     77  SD       -10.8360   -8.5640   -9.8690 S.3    44  MET44      -0.1393
     78  CE       -10.2740   -7.0400   -9.0870 C.3    44  MET44       0.0692
     79  N        -13.5460  -15.7020   -9.4430 N.3    55  ILE55      -0.1231
     80  CA       -13.3980  -14.2350   -9.7850 C.3    55  ILE55       0.1692
     81  C        -14.5390  -13.9040  -10.7670 C.2    55  ILE55       0.2592
     82  O        -14.6440  -14.5640  -11.8190 O.2    55  ILE55      -0.2718
     83  CB       -12.0510  -13.9120  -10.4840 C.3    55  ILE55       0.0266
     84  CG1      -10.9000  -14.2640   -9.5460 C.3    55  ILE55       0.0019
     85  CG2      -11.9640  -12.4370  -10.8540 C.3    55  ILE55       0.0020
     86  CD1       -9.4980  -14.0960  -10.1340 C.3    55  ILE55       0.0001
     87  N        -15.3990  -12.9630  -10.3620 N.am   56  LYS56      -0.1966
     88  CA       -16.5230  -12.4950  -11.1630 C.3    56  LYS56       0.1728
     89  C        -16.3420  -11.0290  -11.5270 C.2    56  LYS56       0.2616
     90  O        -15.7810  -10.2390  -10.7700 O.2    56  LYS56      -0.2715
     91  CB       -17.8130  -12.6360  -10.3540 C.3    56  LYS56       0.0311
     92  CG       -18.2190  -14.0220   -9.9400 C.3    56  LYS56       0.0038
     93  CD       -19.6060  -13.9510   -9.2230 C.3    56  LYS56       0.0206
     94  CE       -20.3070  -15.3220   -9.3500 C.3    56  LYS56       0.1093
     95  NZ       -21.5060  -15.5250   -8.4600 N.3    56  LYS56      -0.1314
     96  N        -16.8230  -10.6570  -12.7180 N.am   57  SER57      -0.1950
     97  CA       -16.9790   -9.2190  -13.0270 C.3    57  SER57       0.1924
     98  C        -18.4690   -8.9380  -13.0760 C.2    57  SER57       0.2314
     99  O        -19.2980   -9.8410  -13.3720 O.2    57  SER57      -0.2863
    100  CB       -16.4130   -8.8520  -14.3780 C.3    57  SER57       0.2116
    101  OG       -17.0030   -9.5800  -15.4490 O.3    57  SER57      -0.2180
    102  N        -20.8860   -5.7460  -14.7340 N.3    59  SER59      -0.1217
    103  CA       -20.8470   -4.4150  -15.3670 C.3    59  SER59       0.1889
    104  C        -21.9930   -4.2400  -16.3190 C.2    59  SER59       0.2288
    105  O        -22.8020   -5.1650  -16.4900 O.2    59  SER59      -0.2866
    106  CB       -19.5620   -4.2050  -16.1500 C.3    59  SER59       0.2089
    107  OG       -19.5380   -4.8950  -17.3730 O.3    59  SER59      -0.2183
    108  N        -21.5220   -3.8200  -19.4190 N.3    61  PHE61      -0.1227
    109  CA       -21.0900   -4.4440  -20.6550 C.3    61  PHE61       0.1736
    110  C        -21.2880   -5.9690  -20.6090 C.2    61  PHE61       0.2595
    111  O        -22.2370   -6.4870  -21.2530 O.2    61  PHE61      -0.2718
    112  CB       -19.6460   -4.0450  -20.9440 C.3    61  PHE61       0.0547
    113  CG       -19.0250   -4.8390  -22.0300 C.ar   61  PHE61      -0.0202
    114  CD1      -19.6520   -4.9590  -23.2790 C.ar   61  PHE61      -0.0042
    115  CD2      -17.8000   -5.4060  -21.8420 C.ar   61  PHE61      -0.0042
    116  CE1      -19.0490   -5.6540  -24.3060 C.ar   61  PHE61      -0.0003
    117  CE2      -17.2000   -6.1350  -22.8410 C.ar   61  PHE61      -0.0003
    118  CZ       -17.8030   -6.2420  -24.0980 C.ar   61  PHE61      -0.0000
    119  N        -20.5000   -6.6510  -19.7690 N.am   62  LYS62      -0.1980
    120  CA       -20.6050   -8.1140  -19.5790 C.3    62  LYS62       0.1596
    121  C        -20.4660   -8.4380  -18.0960 C.2    62  LYS62       0.2287
    122  O        -19.8360   -7.7140  -17.3290 O.2    62  LYS62      -0.2864
    123  CB       -19.5320   -8.9180  -20.3880 C.3    62  LYS62       0.0298
    124  CG       -19.5000   -8.6830  -21.8990 C.3    62  LYS62       0.0038
    125  CD       -20.3750   -9.6830  -22.6180 C.3    62  LYS62       0.0206
    126  CE       -20.2790   -9.5630  -24.1360 C.3    62  LYS62       0.1093
    127  NZ       -21.1820  -10.6050  -24.7300 N.3    62  LYS62      -0.1314
    128  N        -18.8250  -11.6330  -16.1200 N.3    64  THR64      -0.1218
    129  CA       -18.0870  -12.8640  -16.3830 C.3    64  THR64       0.1862
    130  C        -17.8310  -13.5880  -15.0390 C.2    64  THR64       0.2287
    131  O        -17.8870  -12.9690  -13.9880 O.2    64  THR64      -0.2866
    132  CB       -16.7200  -12.5860  -17.0070 C.3    64  THR64       0.1770
    133  OG1      -15.9280  -11.8380  -16.0650 O.3    64  THR64      -0.2211
    134  CG2      -16.8820  -11.7190  -18.3440 C.3    64  THR64       0.0375
    135  N        -13.5320  -15.1290  -22.5240 N.3    78  THR78      -0.1203
    136  CA       -13.2910  -13.7960  -22.0000 C.3    78  THR78       0.1994
    137  C        -14.4150  -12.7750  -22.3530 C.2    78  THR78       0.2618
    138  O        -15.3240  -13.1520  -23.1600 O.2    78  THR78      -0.2717
    139  CB       -11.9370  -13.3000  -22.5780 C.3    78  THR78       0.1784
    140  OG1      -12.1280  -13.1650  -24.0070 O.3    78  THR78      -0.2211
    141  CG2      -10.8600  -14.3830  -22.3680 C.3    78  THR78       0.0376
    142  N        -14.3280  -11.5550  -21.8380 N.am   79  ALA79      -0.1965
    143  CA       -15.4210  -10.5110  -21.9630 C.3    79  ALA79       0.1728
    144  C        -15.5380  -10.1080  -23.4620 C.2    79  ALA79       0.2616
    145  O        -16.6370   -9.7320  -23.9850 O.2    79  ALA79      -0.2715
    146  CB       -15.0770   -9.2790  -21.1470 C.3    79  ALA79       0.0334
    147  N        -14.4170  -10.2110  -24.1680 N.am   80  ASP80      -0.1971
    148  CA       -14.3970   -9.9330  -25.6470 C.3    80  ASP80       0.1709
    149  C        -14.6390  -11.2150  -26.5010 C.2    80  ASP80       0.2293
    150  O        -14.3860  -11.2460  -27.7190 O.2    80  ASP80      -0.2864
    151  CB       -13.0770   -9.2140  -26.0250 C.3    80  ASP80       0.1436
    152  CG       -11.8470  -10.0590  -25.7070 C.2    80  ASP80       0.3671
    153  OD1      -11.7480  -10.5000  -24.5320 O.co2  80  ASP80      -0.2456
    154  OD2      -11.0330  -10.3240  -26.6110 O.co2  80  ASP80      -0.2456
    155  N        -13.0890  -14.2710  -26.6140 N.3    82  ARG82      -0.1245
    156  CA       -12.0670  -15.2480  -26.9210 C.3    82  ARG82       0.1563
    157  C        -12.2770  -16.5360  -26.0860 C.2    82  ARG82       0.2260
    158  O        -12.6560  -16.4540  -24.9110 O.2    82  ARG82      -0.2867
    159  CB       -10.6760  -14.6810  -26.5820 C.3    82  ARG82       0.0307
    160  CG       -10.0800  -13.6700  -27.5740 C.3    82  ARG82       0.0489
    161  CD        -8.7720  -13.0730  -26.9970 C.3    82  ARG82       0.2205
    162  NE        -9.0840  -12.1790  -25.8740 N.pl3  82  ARG82      -0.0865
    163  CZ        -8.5120  -12.1760  -24.6760 C.cat  82  ARG82       0.5346
    164  NH1       -7.4800  -12.9900  -24.4010 N.pl3  82  ARG82       0.1354
    165  NH2       -8.9940  -11.3450  -23.7480 N.pl3  82  ARG82       0.1354
    166  N         -3.3750  -16.5670  -20.1920 N.3    99  GLN99      -0.1245
    167  CA        -4.3990  -16.9680  -21.1590 C.3    99  GLN99       0.1566
    168  C         -3.6830  -17.2360  -22.4700 C.2    99  GLN99       0.2260
    169  O         -2.8340  -16.4020  -22.8980 O.2    99  GLN99      -0.2867
    170  CB        -5.4300  -15.8800  -21.4030 C.3    99  GLN99       0.0367
    171  CG        -6.2240  -15.5040  -20.1650 C.3    99  GLN99       0.0905
    172  CD        -7.1280  -14.3050  -20.4480 C.2    99  GLN99       0.2608
    173  OE1       -6.8460  -13.4910  -21.3380 O.2    99  GLN99      -0.2717
    174  NE2       -8.2120  -14.2050  -19.7250 N.am   99  GLN99      -0.0878
    175  N         -2.1450  -11.5760  -16.9140 N.3   108  ILE108     -0.1245
    176  CA        -2.8510  -10.5750  -16.1140 C.3   108  ILE108      0.1561
    177  C         -2.3780  -10.8770  -14.7060 C.2   108  ILE108      0.2260
    178  O         -2.4470  -12.0380  -14.2210 O.2   108  ILE108     -0.2867
    179  CB        -4.3690  -10.7830  -16.1820 C.3   108  ILE108      0.0252
    180  CG1       -4.8350  -10.6320  -17.6540 C.3   108  ILE108      0.0019
    181  CG2       -5.0250   -9.8050  -15.2280 C.3   108  ILE108      0.0019
    182  CD1       -6.2480  -11.1120  -17.8880 C.3   108  ILE108      0.0001
    183  N         -2.4140   -9.7440  -10.6390 N.3   110  ARG110     -0.1245
    184  CA        -3.2240   -9.0050   -9.6640 C.3   110  ARG110      0.1563
    185  C         -2.4380   -8.9970   -8.3360 C.2   110  ARG110      0.2260
    186  O         -2.0010  -10.0530   -7.8840 O.2   110  ARG110     -0.2867
    187  CB        -4.6030   -9.6830   -9.4770 C.3   110  ARG110      0.0307
    188  CG        -5.4290   -9.7080  -10.7500 C.3   110  ARG110      0.0489
    189  CD        -6.7040  -10.5060  -10.5760 C.3   110  ARG110      0.2205
    190  NE        -7.6460  -10.3560  -11.7660 N.pl3 110  ARG110     -0.0865
    191  CZ        -7.7480  -11.2210  -12.7700 C.cat 110  ARG110      0.5346
    192  NH1       -6.9150  -12.2780  -12.9240 N.pl3 110  ARG110      0.1354
    193  NH2       -8.6940  -11.0150  -13.7220 N.pl3 110  ARG110      0.1354
    194  N         -4.1730   -4.2500  -11.0240 N.3   119  VAL119     -0.1245
    195  CA        -4.1740   -5.3170  -12.0430 C.3   119  VAL119      0.1561
    196  C         -3.3820   -4.8550  -13.2440 C.2   119  VAL119      0.2260
    197  O         -3.6310   -3.7920  -13.7710 O.2   119  VAL119     -0.2867
    198  CB        -5.6110   -5.5990  -12.4820 C.3   119  VAL119      0.0252
    199  CG1       -5.6330   -6.7830  -13.4550 C.3   119  VAL119      0.0019
    200  CG2       -6.4260   -5.8930  -11.2410 C.3   119  VAL119      0.0019
    201  N         -2.1670   -5.8120  -16.9550 N.3   121  CYS121     -0.1235
    202  CA        -2.4730   -6.6710  -18.1150 C.3   121  CYS121      0.1677
    203  C         -1.3750   -6.4830  -19.1780 C.2   121  CYS121      0.2270
    204  O         -1.1240   -5.3510  -19.6210 O.2   121  CYS121     -0.2867
    205  CB        -3.7870   -6.2000  -18.7140 C.3   121  CYS121      0.0956
    206  SG        -5.1780   -6.3450  -17.5770 S.3   121  CYS121     -0.0801
    207  N         -4.9790   -1.2980  -14.2520 N.3   130  ARG130     -0.1245
    208  CA        -6.3890   -1.1640  -13.8640 C.3   130  ARG130      0.1563
    209  C         -6.3800   -1.2120  -12.3640 C.2   130  ARG130      0.2260
    210  O         -5.8830   -2.2250  -11.8070 O.2   130  ARG130     -0.2867
    211  CB        -7.1660   -2.3440  -14.4530 C.3   130  ARG130      0.0307
    212  CG        -7.0340   -2.4360  -15.9650 C.3   130  ARG130      0.0489
    213  CD        -8.1070   -1.5960  -16.6110 C.3   130  ARG130      0.2205
    214  NE        -9.3110   -2.4210  -16.6410 N.pl3 130  ARG130     -0.0865
    215  CZ       -10.4580   -2.0600  -17.2230 C.cat 130  ARG130      0.5346
    216  NH1      -10.5650   -0.8520  -17.7790 N.pl3 130  ARG130      0.1354
    217  NH2      -11.4750   -2.9070  -17.2180 N.pl3 130  ARG130      0.1354
    218  N         -8.2430   -1.0440   -8.6610 N.3   132  TYR132     -0.1241
    219  CA        -9.5770   -1.2050   -7.9790 C.3   132  TYR132      0.1605
    220  C         -9.4430   -0.7920   -6.5130 C.2   132  TYR132      0.2264
    221  O         -8.3730   -0.9380   -5.9150 O.2   132  TYR132     -0.2867
    222  CB       -10.0450   -2.6820   -7.9950 C.3   132  TYR132      0.0534
    223  CG       -10.3190   -3.1750   -9.3940 C.ar  132  TYR132     -0.0201
    224  CD1       -9.2730   -3.4860  -10.3050 C.ar  132  TYR132     -0.0009
    225  CD2      -11.6250   -3.2970   -9.8090 C.ar  132  TYR132     -0.0009
    226  CE1       -9.5810   -3.9420  -11.5950 C.ar  132  TYR132      0.0417
    227  CE2      -11.9240   -3.7440  -11.0800 C.ar  132  TYR132      0.0417
    228  CZ       -10.9590   -4.0790  -11.9410 C.ar  132  TYR132      0.1957
    229  OH       -11.3900   -4.4660  -13.1920 O.3   132  TYR132     -0.2866
@<TRIPOS>BOND
     1    42    41    2
     2    41    40    1
     3    39    40    1
     4    40    43    1
     5    35    34    2
     6    34    33    1
     7    43    44    1
     8    43    45    1
     9    27    26    2
    10    32    33    1
    11    33    36    1
    12   150   149    2
    13    26    25    1
    14   160   161    1
    15   160   159    1
    16   161   162    1
    17   156   155    1
    18   156   159    1
    19   156   157    1
    20    37    36    1
    21    36    38    1
    22   154   152   ar
    23   149   148    1
    24    25    28    1
    25    25    24    1
    26   157   158    2
    27   151   152    1
    28   151   148    1
    29    28    29    1
    30    15    14    2
    31   162   163    2
    32   152   153   ar
    33   148   147    1
    34    24    14   am
    35    14    13    1
    36    12    13    1
    37   127   126    1
    38   163   164    1
    39   163   165    1
    40    29    30    1
    41    31    30    1
    42    13    16    1
    43   116   118   ar
    44   116   114   ar
    45    46    47    1
    46   147   144   am
    47   126   125    1
    48   118   117   ar
    49   140   139    1
    50   145   144    2
    51     4     3    2
    52    50    47    1
    53   144   143    1
    54   114   113   ar
    55     3     2    1
    56   138   137    2
    57    47    48    1
    58    16    17    1
    59   169   168    2
    60   117   115   ar
    61   125   124    1
    62    17    18   ar
    63    17    19   ar
    64   139   141    1
    65   139   136    1
    66    18    20   ar
    67   135   136    1
    68   168   167    1
    69    19    21   ar
    70   137   136    1
    71   137   142   am
    72    48    49    2
    73    20    22   ar
    74    21    22   ar
    75   113   115   ar
    76   113   112    1
    77   143   142    1
    78   143   146    1
    79    22    23    1
    80   124   123    1
    81     2     1    1
    82     2     5    1
    83   170   167    1
    84   170   171    1
    85   173   172    2
    86   111   110    2
    87   167   166    1
    88     8    10   ar
    89     8     6   ar
    90   112   109    1
    91    10    11   ar
    92     5     6    1
    93     6     7   ar
    94   109   110    1
    95   109   108    1
    96   110   119   am
    97   172   171    1
    98   172   174   am
    99    11     9   ar
   100   123   120    1
   101     7     9   ar
   102   119   120    1
   103    51    52    1
   104   204   203    2
   105   120   121    1
   106   203   202    1
   107    55    52    1
   108   205   202    1
   109   205   206    1
   110    52    53    1
   111   134   132    1
   112   202   201    1
   113   121   122    2
   114   182   180    1
   115   216   215    1
   116   180   179    1
   117   107   106    1
   118    54    53    2
   119   215   217    1
   120   215   214    2
   121   132   129    1
   122   132   133    1
   123   175   176    1
   124   214   213    1
   125   213   212    1
   126   105   104    2
   127   129   128    1
   128   129   130    1
   129   104   103    1
   130   179   176    1
   131   179   181    1
   132   106   103    1
   133   176   177    1
   134   212   211    1
   135   101   100    1
   136   103   102    1
   137    62    61    1
   138    62    56    1
   139   130   131    2
   140    61    60    1
   141   177   178    2
   142   211   208    1
   143    56    57    1
   144   100    97    1
   145    60    57    1
   146   207   208    1
   147   208   209    1
   148   197   196    2
   149   193   191    1
   150    57    58    1
   151   199   198    1
   152    99    98    2
   153   196   195    1
   154   229   228    1
   155    98    97    1
   156    97    96    1
   157   192   191    1
   158   191   190    2
   159    96    89   am
   160   198   195    1
   161   198   200    1
   162   209   210    2
   163    58    59    2
   164    58    63   am
   165   195   194    1
   166   228   226   ar
   167   228   227   ar
   168    82    81    2
   169   190   189    1
   170   226   224   ar
   171    89    88    1
   172    89    90    2
   173    63    64    1
   174    66    65    2
   175    88    87    1
   176    88    91    1
   177   227   225   ar
   178    85    83    1
   179    81    87   am
   180    81    80    1
   181   188   189    1
   182   188   187    1
   183   183   184    1
   184    83    80    1
   185    83    84    1
   186    91    92    1
   187   224   223   ar
   188    65    64    1
   189    65    71   am
   190    86    84    1
   191    64    67    1
   192    92    93    1
   193    77    76    1
   194    77    78    1
   195   225   223   ar
   196    80    79    1
   197   184   187    1
   198   184   185    1
   199    75    72    1
   200    75    76    1
   201   223   222    1
   202    72    71    1
   203    72    73    1
   204    94    93    1
   205    94    95    1
   206    67    68    1
   207    70    68   am
   208   218   219    1
   209    68    69    2
   210   185   186    2
   211    73    74    2
   212   222   219    1
   213   219   220    1
   214   220   221    2
