@<TRIPOS>MOLECULE
tmp/5d46A00.pdb
 86 82 0 0 0
SMALL
GASTEIGER

@<TRIPOS>ATOM
      1  N         51.3300   -1.4530   38.4330 N.3   184  GLY184     -0.1210
      2  CA        52.6930   -1.6500   37.9410 C.3   184  GLY184      0.1956
      3  C         53.1710   -3.0890   37.8410 C.2   184  GLY184      0.2612
      4  O         52.3590   -4.0160   37.7540 O.2   184  GLY184     -0.2717
      5  N         54.4980   -3.2520   37.8600 N.am  185  GLY185     -0.1942
      6  CA        55.2250   -4.5130   37.7330 C.3   185  GLY185      0.2014
      7  C         54.7280   -5.6540   38.5830 C.2   185  GLY185      0.2638
      8  O         54.6070   -6.7870   38.0960 O.2   185  GLY185     -0.2714
      9  N         54.4130   -5.3490   39.8600 N.am  186  PHE186     -0.1973
     10  CA        53.9200   -6.3010   40.8500 C.3   186  PHE186      0.1639
     11  C         52.4950   -6.7670   40.5550 C.2   186  PHE186      0.2290
     12  O         52.1560   -7.8900   40.9410 O.2   186  PHE186     -0.2864
     13  CB        54.0910   -5.7670   42.2800 C.3   186  PHE186      0.0560
     14  CG        55.5490   -5.6660   42.7020 C.ar  186  PHE186     -0.0200
     15  CD1       56.2010   -4.4420   42.7240 C.ar  186  PHE186     -0.0042
     16  CD2       56.2700   -6.8020   43.0660 C.ar  186  PHE186     -0.0042
     17  CE1       57.5450   -4.3550   43.1100 C.ar  186  PHE186     -0.0003
     18  CE2       57.6190   -6.7110   43.4380 C.ar  186  PHE186     -0.0003
     19  CZ        58.2460   -5.4890   43.4540 C.ar  186  PHE186     -0.0000
     20  N         51.5610   -7.3060   37.4670 N.3   188  ARG188     -0.1245
     21  CA        51.8400   -8.1930   36.3360 C.3   188  ARG188      0.1563
     22  C         52.6350   -9.4480   36.7470 C.2   188  ARG188      0.2260
     23  O         53.2600  -10.0960   35.9050 O.2   188  ARG188     -0.2867
     24  CB        52.5610   -7.4280   35.2090 C.3   188  ARG188      0.0307
     25  CG        51.9530   -6.0750   34.8550 C.3   188  ARG188      0.0489
     26  CD        52.4770   -5.5630   33.5330 C.3   188  ARG188      0.2205
     27  NE        53.9380   -5.5100   33.4700 N.pl3 188  ARG188     -0.0865
     28  CZ        54.6750   -4.4590   33.8100 C.cat 188  ARG188      0.5346
     29  NH1       55.9970   -4.5050   33.7020 N.pl3 188  ARG188      0.1354
     30  NH2       54.0990   -3.3520   34.2590 N.pl3 188  ARG188      0.1354
     31  N         55.3550   -9.7790   38.8010 N.3   190  LYS190     -0.1245
     32  CA        56.8030   -9.6630   38.8320 C.3   190  LYS190      0.1561
     33  C         57.3190  -10.0140   40.2020 C.2   190  LYS190      0.2260
     34  O         56.5970   -9.8780   41.1890 O.2   190  LYS190     -0.2867
     35  CB        57.2630   -8.2460   38.4340 C.3   190  LYS190      0.0271
     36  CG        57.3010   -7.9950   36.9150 C.3   190  LYS190      0.0035
     37  CD        58.1460   -6.7890   36.5510 C.3   190  LYS190      0.0206
     38  CE        59.5910   -7.1580   36.3460 C.3   190  LYS190      0.1093
     39  NZ        60.4240   -5.9610   36.0880 N.3   190  LYS190     -0.1314
     40  N         60.7400   -8.9560   41.1760 N.3   192  THR192     -0.1203
     41  CA        61.5620   -7.7870   41.4980 C.3   192  THR192      0.1994
     42  C         60.9990   -6.5380   40.8030 C.2   192  THR192      0.2618
     43  O         60.4760   -6.6370   39.6920 O.2   192  THR192     -0.2717
     44  CB        63.0220   -8.0540   41.1140 C.3   192  THR192      0.1784
     45  OG1       63.0770   -8.3100   39.7190 O.3   192  THR192     -0.2211
     46  CG2       63.6130   -9.2120   41.8950 C.3   192  THR192      0.0376
     47  N         61.1120   -5.3870   41.4610 N.am  193  GLY193     -0.1942
     48  CA        60.6490   -4.1000   40.9420 C.3   193  GLY193      0.2014
     49  C         61.4990   -2.9330   41.4010 C.2   193  GLY193      0.2639
     50  O         62.1550   -3.0270   42.4340 O.2   193  GLY193     -0.2714
     51  N         61.5120   -1.8330   40.6460 N.am  194  HIS194     -0.1959
     52  CA        62.2780   -0.6410   41.0210 C.3   194  HIS194      0.1787
     53  C         61.5140    0.1270   42.0950 C.2   194  HIS194      0.2620
     54  O         62.1280    0.8200   42.9030 O.2   194  HIS194     -0.2715
     55  CB        62.5000    0.2890   39.8040 C.3   194  HIS194      0.0785
     56  CG        63.2690   -0.3230   38.6720 C.ar  194  HIS194      0.0821
     57  ND1       64.6420   -0.5370   38.7560 N.ar  194  HIS194     -0.2267
     58  CD2       62.8380   -0.7320   37.4560 C.ar  194  HIS194      0.1154
     59  CE1       64.9930   -1.0860   37.6030 C.ar  194  HIS194      0.1986
     60  NE2       63.9420   -1.2280   36.7880 N.ar  194  HIS194     -0.2212
     61  N         60.1700    0.0400   42.0570 N.am  195  ASP195     -0.1971
     62  CA        59.2040    0.7150   42.9350 C.3   195  ASP195      0.1709
     63  C         57.9240   -0.1420   43.1210 C.2   195  ASP195      0.2293
     64  O         57.7600   -1.1740   42.4560 O.2   195  ASP195     -0.2864
     65  CB        58.8320    2.0900   42.3460 C.3   195  ASP195      0.1436
     66  CG        57.9000    2.0330   41.1360 C.2   195  ASP195      0.3671
     67  OD1       58.1270    1.1770   40.2420 O.co2 195  ASP195     -0.2456
     68  OD2       56.9650    2.8560   41.0650 O.co2 195  ASP195     -0.2456
     69  N         53.7600    0.4170   42.9990 N.3   197  ASP197     -0.1239
     70  CA        52.7170    1.3460   42.5620 C.3   197  ASP197      0.1674
     71  C         51.3670    0.9530   43.1450 C.2   197  ASP197      0.2266
     72  O         51.1440   -0.2170   43.4250 O.2   197  ASP197     -0.2867
     73  CB        52.6640    1.4140   41.0240 C.3   197  ASP197      0.1410
     74  CG        53.9760    1.8150   40.3850 C.2   197  ASP197      0.3668
     75  OD1       54.1590    3.0140   40.1210 O.co2 197  ASP197     -0.2456
     76  OD2       54.8280    0.9320   40.1690 O.co2 197  ASP197     -0.2456
     77  N         50.4410   -1.2240   33.1840 N.3   288  GLY288     -0.1210
     78  CA        51.5180   -1.2620   32.2050 C.3   288  GLY288      0.1956
     79  C         51.5270   -2.5440   31.3890 C.2   288  GLY288      0.2612
     80  O         50.4840   -3.1760   31.2430 O.2   288  GLY288     -0.2717
     81  N         52.6780   -2.9400   30.8090 N.am  289  SER289     -0.1952
     82  CA        53.9800   -2.2500   30.8720 C.3   289  SER289      0.1924
     83  C         54.0270   -0.9980   29.9740 C.2   289  SER289      0.2314
     84  O         53.0410   -0.6730   29.3010 O.2   289  SER289     -0.2863
     85  CB        55.0990   -3.2060   30.4690 C.3   289  SER289      0.2116
     86  OG        54.9920   -3.5060   29.0870 O.3   289  SER289     -0.2180
@<TRIPOS>BOND
     1    86    85    1
     2    84    83    2
     3    83    82    1
     4    85    82    1
     5    81    82    1
     6    81    79   am
     7    80    79    2
     8    79    78    1
     9    78    77    1
    10    27    26    1
    11    27    28    2
    12    26    25    1
    13    29    28    1
    14    28    30    1
    15    25    24    1
    16    24    21    1
    17    23    22    2
    18    39    38    1
    19    21    22    1
    20    21    20    1
    21    38    37    1
    22    37    36    1
    23    60    58   ar
    24    60    59   ar
    25    36    35    1
    26    58    56   ar
    27    59    57   ar
    28     6     5    1
    29     6     7    1
    30     4     3    2
    31     3     5   am
    32     3     2    1
    33     2     1    1
    34     8     7    2
    35    35    32    1
    36     7     9   am
    37    56    57   ar
    38    56    55    1
    39    31    32    1
    40    32    33    1
    41    43    42    2
    42    45    44    1
    43    55    52    1
    44     9    10    1
    45    75    74   ar
    46    76    74   ar
    47    33    34    2
    48    67    66   ar
    49    74    73    1
    50    11    10    1
    51    11    12    2
    52    51    52    1
    53    51    49   am
    54    42    47   am
    55    42    41    1
    56    10    13    1
    57    48    49    1
    58    48    47    1
    59    52    53    1
    60    73    70    1
    61    68    66   ar
    62    44    41    1
    63    44    46    1
    64    66    65    1
    65    40    41    1
    66    49    50    2
    67    61    53   am
    68    61    62    1
    69    53    54    2
    70    13    14    1
    71    65    62    1
    72    64    63    2
    73    70    69    1
    74    70    71    1
    75    14    15   ar
    76    14    16   ar
    77    15    17   ar
    78    62    63    1
    79    16    18   ar
    80    17    19   ar
    81    71    72    2
    82    18    19   ar
