@<TRIPOS>MOLECULE
tmp/5d47A00.pdb
 212 197 0 0 0
SMALL
GASTEIGER

@<TRIPOS>ATOM
      1  N         10.4460   -1.0850   21.4650 N.3    20  PHE20      -0.1241
      2  CA         9.6960    0.1280   21.7250 C.3    20  PHE20       0.1605
      3  C          9.3200    0.2640   23.2090 C.2    20  PHE20       0.2264
      4  O          9.2290    1.3730   23.7650 O.2    20  PHE20      -0.2867
      5  CB         8.4750    0.1120   20.8030 C.3    20  PHE20       0.0534
      6  CG         7.7000    1.4350   20.7400 C.ar   20  PHE20      -0.0203
      7  CD1        8.3210    2.6090   20.3470 C.ar   20  PHE20      -0.0042
      8  CD2        6.3300    1.4200   20.9970 C.ar   20  PHE20      -0.0042
      9  CE1        7.5720    3.7950   20.2140 C.ar   20  PHE20      -0.0003
     10  CE2        5.5740    2.5930   20.8650 C.ar   20  PHE20      -0.0003
     11  CZ         6.1940    3.7540   20.5500 C.ar   20  PHE20      -0.0000
     12  N         12.2840    1.7550   24.8590 N.3    23  TYR23      -0.1227
     13  CA        12.3750    3.1620   24.5080 C.3    23  TYR23       0.1736
     14  C         11.3470    3.9680   25.3370 C.2    23  TYR23       0.2595
     15  O         11.6860    4.9920   25.9390 O.2    23  TYR23      -0.2718
     16  CB        12.1080    3.3560   22.9970 C.3    23  TYR23       0.0548
     17  CG        11.9120    4.8350   22.6240 C.ar   23  TYR23      -0.0200
     18  CD1       13.0030    5.6980   22.5440 C.ar   23  TYR23      -0.0009
     19  CD2       10.6050    5.3460   22.4390 C.ar   23  TYR23      -0.0009
     20  CE1       12.8230    7.0420   22.2010 C.ar   23  TYR23       0.0417
     21  CE2       10.3940    6.6980   22.1080 C.ar   23  TYR23       0.0417
     22  CZ        11.4860    7.5430   22.0600 C.ar   23  TYR23       0.1957
     23  OH        11.2600    8.8910   21.7600 O.3    23  TYR23      -0.2866
     24  N         10.1020    3.4840   25.4010 N.am   24  MET24      -0.1979
     25  CA         9.0900    4.2270   26.1410 C.3    24  MET24       0.1605
     26  C          9.4770    4.2520   27.6490 C.2    24  MET24       0.2287
     27  O          9.2240    5.2650   28.3120 O.2    24  MET24      -0.2864
     28  CB         7.6790    3.6430   25.9660 C.3    24  MET24       0.0413
     29  CG         7.1200    3.9100   24.5480 C.3    24  MET24       0.0598
     30  SD         5.4130    3.3700   24.5590 S.3    24  MET24      -0.1393
     31  CE         5.6310    1.6480   24.6570 C.3    24  MET24       0.0692
     32  N         11.8700    7.0920   28.0980 N.3    27  VAL27      -0.1245
     33  CA        11.1770    8.3490   27.9380 C.3    27  VAL27       0.1561
     34  C         10.4610    8.6830   29.2570 C.2    27  VAL27       0.2260
     35  O         10.3260    9.8660   29.6120 O.2    27  VAL27      -0.2867
     36  CB        10.2150    8.2920   26.7160 C.3    27  VAL27       0.0252
     37  CG1        9.2590    9.5120   26.7140 C.3    27  VAL27       0.0019
     38  CG2       11.0910    8.3000   25.4460 C.3    27  VAL27       0.0019
     39  N          7.4030    6.7970   30.0990 N.3    29  VAL29      -0.1245
     40  CA         5.9930    6.4450   29.9260 C.3    29  VAL29       0.1561
     41  C          5.5520    5.4030   30.9580 C.2    29  VAL29       0.2260
     42  O          6.2520    4.4210   31.1700 O.2    29  VAL29      -0.2867
     43  CB         5.7350    5.8610   28.5080 C.3    29  VAL29       0.0252
     44  CG1        4.2450    5.6790   28.2640 C.3    29  VAL29       0.0019
     45  CG2        6.3770    6.8110   27.4350 C.3    29  VAL29       0.0019
     46  N         -0.1050    1.6110   24.1960 N.3    37  ALA37      -0.1245
     47  CA         0.6710    2.1920   23.0670 C.3    37  ALA37       0.1562
     48  C          1.4520    1.1470   22.2820 C.2    37  ALA37       0.2260
     49  O          1.5880    1.2290   21.0550 O.2    37  ALA37      -0.2867
     50  CB         1.5990    3.3430   23.5280 C.3    37  ALA37       0.0290
     51  N         -0.4390   -0.7280   19.5680 N.3    40  ALA40      -0.1245
     52  CA        -1.0260   -0.0110   18.4210 C.3    40  ALA40       0.1562
     53  C         -0.2370   -0.3020   17.1300 C.2    40  ALA40       0.2260
     54  O          0.9880   -0.5080   17.1510 O.2    40  ALA40      -0.2867
     55  CB        -1.0390    1.4770   18.6990 C.3    40  ALA40       0.0290
     56  N         -0.0930    1.8790   14.1520 N.pl3  42  PRO42      -0.2301
     57  CA        -0.5510    3.1060   13.5150 C.3    42  PRO42       0.1611
     58  C         -0.3280    3.1470   12.0150 C.2    42  PRO42       0.2289
     59  O          0.6290    2.5330   11.4870 O.2    42  PRO42      -0.2864
     60  CB         0.3150    4.2000   14.1590 C.3    42  PRO42       0.0570
     61  CG         1.3370    3.4680   14.9630 C.2    42  PRO42      -0.0065
     62  CD         1.1190    2.0200   14.9680 C.2    42  PRO42       0.0760
     63  N          0.6430    6.2070    9.3050 N.3    44  MET44      -0.1245
     64  CA         1.3490    7.4920    9.3880 C.3    44  MET44       0.1570
     65  C          1.0900    8.1230    8.0400 C.2    44  MET44       0.2261
     66  O          1.2630    7.4400    7.0110 O.2    44  MET44      -0.2867
     67  CB         2.8630    7.3160    9.6320 C.3    44  MET44       0.0387
     68  CG         3.6140    8.6300    9.5270 C.3    44  MET44       0.0595
     69  SD         5.3290    8.4680    9.9660 S.3    44  MET44      -0.1393
     70  CE         5.8900    7.0380    9.0690 C.3    44  MET44       0.0692
     71  N          2.5820   15.6190    9.5130 N.3    55  ILE55      -0.1231
     72  CA         2.6800   14.1700    9.8310 C.3    55  ILE55       0.1692
     73  C          1.5190   13.7900   10.7620 C.2    55  ILE55       0.2592
     74  O          1.3930   14.3760   11.8480 O.2    55  ILE55      -0.2718
     75  CB         4.0110   13.8650   10.5210 C.3    55  ILE55       0.0266
     76  CG1        5.1370   14.2040    9.5600 C.3    55  ILE55       0.0019
     77  CG2        4.0620   12.3570   10.9270 C.3    55  ILE55       0.0020
     78  CD1        6.5040   13.9860   10.1800 C.3    55  ILE55       0.0001
     79  N          0.6550   12.8840   10.3080 N.am   56  LYS56      -0.1966
     80  CA        -0.4580   12.4490   11.1010 C.3    56  LYS56       0.1728
     81  C         -0.2680   11.0210   11.4620 C.2    56  LYS56       0.2616
     82  O          0.3160   10.2590   10.6800 O.2    56  LYS56      -0.2715
     83  CB        -1.7970   12.5490   10.3730 C.3    56  LYS56       0.0311
     84  CG        -2.1160   13.8070    9.6730 C.3    56  LYS56       0.0038
     85  CD        -3.5100   13.5950    9.0220 C.3    56  LYS56       0.0206
     86  CE        -4.5440   13.0160    9.9730 C.3    56  LYS56       0.1093
     87  NZ        -5.7040   12.3210    9.3300 N.3    56  LYS56      -0.1314
     88  N         -0.7360   10.6470   12.6620 N.am   57  SER57      -0.1950
     89  CA        -0.7010    9.2390   13.0510 C.3    57  SER57       0.1924
     90  C         -2.1220    8.8520   13.4000 C.2    57  SER57       0.2314
     91  O         -2.8070    9.6490   14.0840 O.2    57  SER57      -0.2863
     92  CB         0.1130    9.1190   14.3130 C.3    57  SER57       0.2116
     93  OG         0.2990    7.7400   14.5790 O.3    57  SER57      -0.2180
     94  N         -4.3610    5.7350   15.0270 N.3    59  SER59      -0.1217
     95  CA        -4.3010    4.4080   15.5950 C.3    59  SER59       0.1889
     96  C         -5.4330    4.2070   16.5690 C.2    59  SER59       0.2288
     97  O         -6.2040    5.1470   16.8650 O.2    59  SER59      -0.2866
     98  CB        -2.9690    4.0560   16.2680 C.3    59  SER59       0.2089
     99  OG        -2.8260    4.5610   17.6010 O.3    59  SER59      -0.2183
    100  N         -4.8650    3.6710   19.5670 N.3    61  PHE61      -0.1227
    101  CA        -4.3600    4.3370   20.8120 C.3    61  PHE61       0.1736
    102  C         -4.6490    5.8450   20.8180 C.2    61  PHE61       0.2595
    103  O         -5.2790    6.4020   21.7500 O.2    61  PHE61      -0.2718
    104  CB        -2.8590    4.0670   21.0010 C.3    61  PHE61       0.0547
    105  CG        -2.2490    4.8400   22.0840 C.ar   61  PHE61      -0.0202
    106  CD1       -2.7600    4.7790   23.3820 C.ar   61  PHE61      -0.0042
    107  CD2       -1.1620    5.6440   21.8290 C.ar   61  PHE61      -0.0042
    108  CE1       -2.1770    5.5300   24.4090 C.ar   61  PHE61      -0.0003
    109  CE2       -0.5800    6.3960   22.8530 C.ar   61  PHE61      -0.0003
    110  CZ        -1.0900    6.3220   24.1420 C.ar   61  PHE61      -0.0000
    111  N         -4.1970    6.5250   19.7580 N.am   62  LYS62      -0.1980
    112  CA        -4.3240    7.9610   19.7260 C.3    62  LYS62       0.1596
    113  C         -4.2440    8.3630   18.2630 C.2    62  LYS62       0.2287
    114  O         -3.6030    7.6880   17.4290 O.2    62  LYS62      -0.2864
    115  CB        -3.1780    8.6180   20.5240 C.3    62  LYS62       0.0298
    116  CG        -3.4230   10.0770   20.9160 C.3    62  LYS62       0.0038
    117  CD        -4.2360   10.2640   22.1930 C.3    62  LYS62       0.0206
    118  CE        -3.9700    9.1230   23.1970 C.3    62  LYS62       0.1093
    119  NZ        -3.8110    9.5800   24.6200 N.3    62  LYS62      -0.1314
    120  N         -2.7910   11.6370   16.2690 N.3    64  THR64      -0.1218
    121  CA        -2.0250   12.8820   16.5160 C.3    64  THR64       0.1862
    122  C         -1.7920   13.5290   15.1460 C.2    64  THR64       0.2287
    123  O         -1.8380   12.8200   14.1440 O.2    64  THR64      -0.2866
    124  CB        -0.6600   12.5960   17.1900 C.3    64  THR64       0.1770
    125  OG1        0.2130   11.8830   16.2970 O.3    64  THR64      -0.2211
    126  CG2       -0.8160   11.8300   18.5210 C.3    64  THR64       0.0375
    127  N          2.6220   15.0990   22.7570 N.3    78  THR78      -0.1203
    128  CA         2.8360   13.7830   22.2510 C.3    78  THR78       0.1994
    129  C          1.6560   12.7960   22.6020 C.2    78  THR78       0.2618
    130  O          0.8180   13.1270   23.4420 O.2    78  THR78      -0.2717
    131  CB         4.1920   13.2040   22.7850 C.3    78  THR78       0.1784
    132  OG1        4.1090   13.0600   24.2430 O.3    78  THR78      -0.2211
    133  CG2        5.3410   14.1530   22.4850 C.3    78  THR78       0.0376
    134  N          1.6820   11.6330   21.9860 N.am   79  ALA79      -0.1965
    135  CA         0.6490   10.5640   22.0950 C.3    79  ALA79       0.1728
    136  C          0.5500   10.1290   23.5980 C.2    79  ALA79       0.2616
    137  O         -0.5780    9.8020   24.0760 O.2    79  ALA79      -0.2715
    138  CB         0.9900    9.3550   21.2240 C.3    79  ALA79       0.0334
    139  N          1.6950   10.1640   24.3010 N.am   80  ASP80      -0.1971
    140  CA         1.7820    9.8420   25.7660 C.3    80  ASP80       0.1709
    141  C          1.5650   11.0980   26.6420 C.2    80  ASP80       0.2293
    142  O          1.8560   11.0990   27.8570 O.2    80  ASP80      -0.2864
    143  CB         3.1290    9.1470   26.1600 C.3    80  ASP80       0.1436
    144  CG         4.3690   10.0220   25.8610 C.2    80  ASP80       0.3671
    145  OD1        4.5050   10.4810   24.6680 O.co2  80  ASP80      -0.2456
    146  OD2        5.2420   10.1880   26.7830 O.co2  80  ASP80      -0.2456
    147  N          3.1330   14.1270   26.8200 N.3    82  ARG82      -0.1245
    148  CA         4.1770   15.0640   27.1640 C.3    82  ARG82       0.1563
    149  C          3.9060   16.3550   26.3750 C.2    82  ARG82       0.2260
    150  O          3.5160   16.2990   25.2020 O.2    82  ARG82      -0.2867
    151  CB         5.5720   14.5610   26.7840 C.3    82  ARG82       0.0307
    152  CG         6.1910   13.5230   27.7250 C.3    82  ARG82       0.0489
    153  CD         7.5040   12.9730   27.1600 C.3    82  ARG82       0.2205
    154  NE         7.1470   12.0770   26.0600 N.pl3  82  ARG82      -0.0865
    155  CZ         7.6790   12.0710   24.8450 C.cat  82  ARG82       0.5346
    156  NH1        8.7190   12.8390   24.5590 N.pl3  82  ARG82       0.1354
    157  NH2        7.2020   11.2160   23.9410 N.pl3  82  ARG82       0.1354
    158  N         13.8460   11.4060   17.0460 N.3   108  ILE108     -0.1245
    159  CA        13.1770   10.4310   16.1930 C.3   108  ILE108      0.1561
    160  C         13.6600   10.7160   14.7970 C.2   108  ILE108      0.2260
    161  O         13.4920   11.8640   14.2920 O.2   108  ILE108     -0.2867
    162  CB        11.6430   10.6340   16.2840 C.3   108  ILE108      0.0252
    163  CG1       11.1600   10.4410   17.7480 C.3   108  ILE108      0.0019
    164  CG2       10.9560    9.6750   15.3280 C.3   108  ILE108      0.0019
    165  CD1        9.7380   10.9670   17.9540 C.3   108  ILE108      0.0001
    166  N         13.6060    9.6850   10.6470 N.3   110  ARG110     -0.1245
    167  CA        12.7630    8.9580    9.6990 C.3   110  ARG110      0.1563
    168  C         13.5350    8.9610    8.3730 C.2   110  ARG110      0.2260
    169  O         14.0150    9.9910    7.9090 O.2   110  ARG110     -0.2867
    170  CB        11.4030    9.6660    9.5180 C.3   110  ARG110      0.0307
    171  CG        10.5560    9.5790   10.7610 C.3   110  ARG110      0.0489
    172  CD         9.3040   10.4200   10.5670 C.3   110  ARG110      0.2205
    173  NE         8.3780   10.2780   11.7490 N.pl3 110  ARG110     -0.0865
    174  CZ         8.3240   11.0690   12.7980 C.cat 110  ARG110      0.5346
    175  NH1        9.0910   12.0800   12.9740 N.pl3 110  ARG110      0.1354
    176  NH2        7.4090   10.8210   13.7890 N.pl3 110  ARG110      0.1354
    177  N         11.8190    4.2430   11.0500 N.3   119  VAL119     -0.1245
    178  CA        11.7430    5.3300   12.0500 C.3   119  VAL119      0.1561
    179  C         12.6030    4.8650   13.2260 C.2   119  VAL119      0.2260
    180  O         12.3850    3.7680   13.7430 O.2   119  VAL119     -0.2867
    181  CB        10.2700    5.4950   12.5340 C.3   119  VAL119      0.0252
    182  CG1       10.2590    6.5980   13.5840 C.3   119  VAL119      0.0019
    183  CG2        9.3180    5.8720   11.3680 C.3   119  VAL119      0.0019
    184  N         13.9160    5.7450   17.0390 N.3   121  CYS121     -0.1235
    185  CA        13.5280    6.5870   18.1660 C.3   121  CYS121      0.1677
    186  C         14.6270    6.3700   19.2210 C.2   121  CYS121      0.2270
    187  O         14.8860    5.1810   19.6110 O.2   121  CYS121     -0.2867
    188  CB        12.2720    6.0640   18.7890 C.3   121  CYS121      0.0956
    189  SG        10.8450    6.0940   17.6810 S.3   121  CYS121     -0.0801
    190  N         11.1860    1.2900   14.2300 N.3   130  ARG130     -0.1245
    191  CA         9.8040    1.0430   13.8190 C.3   130  ARG130      0.1563
    192  C          9.7130    1.1130   12.3030 C.2   130  ARG130      0.2260
    193  O         10.1030    2.1490   11.7320 O.2   130  ARG130     -0.2867
    194  CB         8.9260    2.0490   14.4660 C.3   130  ARG130      0.0307
    195  CG         8.7090    1.4470   15.8580 C.3   130  ARG130      0.0489
    196  CD         8.0430    2.2320   16.8540 C.3   130  ARG130      0.2205
    197  NE         6.6250    2.5220   16.6900 N.pl3 130  ARG130     -0.0865
    198  CZ         5.5950    1.8770   17.1940 C.cat 130  ARG130      0.5346
    199  NH1        5.6990    0.6570   17.7310 N.pl3 130  ARG130      0.1354
    200  NH2        4.4150    2.5020   17.0910 N.pl3 130  ARG130      0.1354
    201  N          7.8150    1.0480    8.6980 N.3   132  TYR132     -0.1241
    202  CA         6.5120    1.1640    7.9840 C.3   132  TYR132      0.1605
    203  C          6.6160    0.8320    6.5080 C.2   132  TYR132      0.2264
    204  O          7.6720    1.0370    5.9210 O.2   132  TYR132     -0.2867
    205  CB         6.0570    2.6120    8.0140 C.3   132  TYR132      0.0534
    206  CG         5.7240    3.1110    9.4110 C.ar  132  TYR132     -0.0201
    207  CD1        6.7400    3.4360   10.3700 C.ar  132  TYR132     -0.0009
    208  CD2        4.3510    3.3180    9.7340 C.ar  132  TYR132     -0.0009
    209  CE1        6.3520    3.8590   11.6580 C.ar  132  TYR132      0.0417
    210  CE2        3.9820    3.7540   10.9910 C.ar  132  TYR132      0.0417
    211  CZ         4.9530    4.0200   11.9320 C.ar  132  TYR132      0.1957
    212  OH         4.4920    4.4700   13.1930 O.3   132  TYR132     -0.2866
@<TRIPOS>BOND
     1   204   203    2
     2   203   202    1
     3    66    65    2
     4   169   168    2
     5   202   205    1
     6   202   201    1
     7   205   206    1
     8    65    64    1
     9   168   167    1
    10    85    84    1
    11    85    86    1
    12    70    69    1
    13    63    64    1
    14    87    86    1
    15    64    67    1
    16   206   208   ar
    17   206   207   ar
    18    71    72    1
    19   170   167    1
    20   170   171    1
    21    68    67    1
    22    68    69    1
    23    76    78    1
    24    76    75    1
    25    84    83    1
    26   167   166    1
    27   208   210   ar
    28    72    75    1
    29    72    73    1
    30    79    73   am
    31    79    80    1
    32   207   209   ar
    33    83    80    1
    34    75    77    1
    35   172   171    1
    36   172   173    1
    37    82    81    2
    38    73    74    2
    39   210   211   ar
    40   177   178    1
    41    80    81    1
    42   183   181    1
    43    81    88   am
    44    59    58    2
    45   209   211   ar
    46   193   192    2
    47   173   174    2
    48   211   212    1
    49    58    57    1
    50   178   181    1
    51   178   179    1
    52   192   191    1
    53   181   182    1
    54    88    89    1
    55   174   175    1
    56   174   176    1
    57    89    90    1
    58    89    92    1
    59   179   180    2
    60    90    91    2
    61    57    56    1
    62    57    60    1
    63   191   190    1
    64   191   194    1
    65   123   122    2
    66    56    62    1
    67    60    61    1
    68   161   160    2
    69    92    93    1
    70   194   195    1
    71   160   159    1
    72    61    62    2
    73    94    95    1
    74   122   121    1
    75   164   162    1
    76    95    98    1
    77    95    96    1
    78   195   196    1
    79   159   162    1
    80   159   158    1
    81    98    99    1
    82   120   121    1
    83   162   163    1
    84   125   124    1
    85   121   124    1
    86    96    97    2
    87   197   196    1
    88   197   198    2
    89   184   185    1
    90   200   198    1
    91    53    54    2
    92    53    52    1
    93   124   126    1
    94   198   199    1
    95   114   113    2
    96   189   188    1
    97   163   165    1
    98   185   188    1
    99   185   186    1
   100   113   112    1
   101    52    55    1
   102    52    51    1
   103   186   187    2
   104   100   101    1
   105   112   111    1
   106   112   115    1
   107   111   102   am
   108     9     7   ar
   109     9    11   ar
   110     7     6   ar
   111   115   116    1
   112    11    10   ar
   113     6     5    1
   114     6     8   ar
   115     5     2    1
   116   101   102    1
   117   101   104    1
   118   102   103    2
   119    10     8   ar
   120   116   117    1
   121   104   105    1
   122    49    48    2
   123   138   135    1
   124     1     2    1
   125     2     3    1
   126    23    22    1
   127   107   105   ar
   128   107   109   ar
   129   134   135    1
   130   134   129   am
   131    22    21   ar
   132    22    20   ar
   133   105   106   ar
   134   135   136    1
   135    21    19   ar
   136   117   118    1
   137    20    18   ar
   138   128   129    1
   139   128   127    1
   140   128   131    1
   141    48    47    1
   142    19    17   ar
   143   133   131    1
   144    18    17   ar
   145   129   130    2
   146    17    16    1
   147   131   132    1
   148   109   110   ar
   149    16    13    1
   150    47    50    1
   151    47    46    1
   152   118   119    1
   153     3     4    2
   154   106   108   ar
   155   136   137    2
   156   136   139   am
   157   157   155    1
   158   110   108   ar
   159   139   140    1
   160    13    12    1
   161    13    14    1
   162    29    30    1
   163    29    28    1
   164   156   155    1
   165    30    31    1
   166   145   144   ar
   167   155   154    2
   168   150   149    2
   169    14    24   am
   170    14    15    2
   171    24    25    1
   172    38    36    1
   173   140   143    1
   174   140   141    1
   175   144   143    1
   176   144   146   ar
   177    28    25    1
   178   154   153    1
   179    25    26    1
   180   149   148    1
   181   141   142    2
   182    37    36    1
   183    36    33    1
   184   151   148    1
   185   151   152    1
   186   147   148    1
   187   153   152    1
   188    45    43    1
   189    26    27    2
   190    33    32    1
   191    33    34    1
   192    44    43    1
   193    43    40    1
   194    34    35    2
   195    40    39    1
   196    40    41    1
   197    41    42    2
