@<TRIPOS>MOLECULE
tmp/5d4aA00.pdb
 197 182 0 0 0
SMALL
GASTEIGER

@<TRIPOS>ATOM
      1  N         10.5480   -1.1010   21.3380 N.3    21  PHE21      -0.1241
      2  CA         9.8290    0.1080   21.6130 C.3    21  PHE21       0.1605
      3  C          9.4030    0.2100   23.0880 C.2    21  PHE21       0.2264
      4  O          9.3100    1.3290   23.6660 O.2    21  PHE21      -0.2867
      5  CB         8.5590    0.1590   20.6910 C.3    21  PHE21       0.0534
      6  CG         7.8560    1.5110   20.6810 C.ar   21  PHE21      -0.0203
      7  CD1        8.5320    2.6810   20.3950 C.ar   21  PHE21      -0.0042
      8  CD2        6.4360    1.5410   20.8540 C.ar   21  PHE21      -0.0042
      9  CE1        7.8700    3.8980   20.2960 C.ar   21  PHE21      -0.0003
     10  CE2        5.7540    2.7690   20.7830 C.ar   21  PHE21      -0.0003
     11  CZ         6.4870    3.9220   20.5510 C.ar   21  PHE21      -0.0000
     12  N         12.3890    1.6240   24.8780 N.3    24  TYR24      -0.1227
     13  CA        12.5490    3.0400   24.5140 C.3    24  TYR24       0.1736
     14  C         11.5270    3.8240   25.2970 C.2    24  TYR24       0.2595
     15  O         11.8620    4.8530   25.8780 O.2    24  TYR24      -0.2718
     16  CB        12.4140    3.2110   22.9740 C.3    24  TYR24       0.0548
     17  CG        12.2220    4.6550   22.6110 C.ar   24  TYR24      -0.0200
     18  CD1       13.2480    5.5240   22.5250 C.ar   24  TYR24      -0.0009
     19  CD2       10.8430    5.1230   22.3320 C.ar   24  TYR24      -0.0009
     20  CE1       13.0080    6.8870   22.2110 C.ar   24  TYR24       0.0417
     21  CE2       10.5820    6.4630   21.9800 C.ar   24  TYR24       0.0417
     22  CZ        11.6330    7.3500   21.9660 C.ar   24  TYR24       0.1957
     23  OH        11.3970    8.6830   21.6480 O.3    24  TYR24      -0.2866
     24  N         10.2340    3.3930   25.2830 N.am   25  MET25      -0.1979
     25  CA         9.3290    4.1840   26.0270 C.3    25  MET25       0.1605
     26  C          9.6550    4.2200   27.5180 C.2    25  MET25       0.2287
     27  O          9.4480    5.2680   28.1460 O.2    25  MET25      -0.2864
     28  CB         7.8950    3.7350   25.7880 C.3    25  MET25       0.0413
     29  CG         7.3960    3.9340   24.3300 C.3    25  MET25       0.0598
     30  SD         5.6000    3.6040   24.3100 S.3    25  MET25      -0.1393
     31  CE         5.5690    1.8420   24.3630 C.3    25  MET25       0.0692
     32  N         11.9980    7.0060   28.0620 N.3    28  VAL28      -0.1245
     33  CA        11.3450    8.2770   27.8720 C.3    28  VAL28       0.1561
     34  C         10.6230    8.6310   29.1440 C.2    28  VAL28       0.2260
     35  O         10.5590    9.8020   29.4800 O.2    28  VAL28      -0.2867
     36  CB        10.4500    8.2730   26.6130 C.3    28  VAL28       0.0252
     37  CG1        9.5450    9.5190   26.5910 C.3    28  VAL28       0.0019
     38  CG2       11.3260    8.2600   25.3610 C.3    28  VAL28       0.0019
     39  N          7.4560    6.8540   29.8540 N.3    30  VAL30      -0.1245
     40  CA         6.0540    6.4710   29.6930 C.3    30  VAL30       0.1561
     41  C          5.6540    5.4310   30.7770 C.2    30  VAL30       0.2260
     42  O          6.3520    4.4420   30.9560 O.2    30  VAL30      -0.2867
     43  CB         5.8720    5.8370   28.3160 C.3    30  VAL30       0.0252
     44  CG1        4.3840    5.6500   28.0090 C.3    30  VAL30       0.0019
     45  CG2        6.5830    6.7100   27.2680 C.3    30  VAL30       0.0019
     46  N         -0.0720    1.7170   23.8260 N.3    38  ALA38      -0.1245
     47  CA         0.7590    2.2850   22.7220 C.3    38  ALA38       0.1562
     48  C          1.5280    1.2310   21.9830 C.2    38  ALA38       0.2260
     49  O          1.5830    1.2600   20.7710 O.2    38  ALA38      -0.2867
     50  CB         1.6930    3.3120   23.2970 C.3    38  ALA38       0.0290
     51  N         -0.4620   -0.6990   19.3310 N.3    41  ALA41      -0.1245
     52  CA        -1.0170    0.0220   18.1920 C.3    41  ALA41       0.1562
     53  C         -0.2620   -0.2600   16.8820 C.2    41  ALA41       0.2260
     54  O          0.9700   -0.5090   16.8610 O.2    41  ALA41      -0.2867
     55  CB        -1.1020    1.4870   18.4770 C.3    41  ALA41       0.0290
     56  N         -0.3200    1.9700   13.9510 N.3    43  PRO43      -0.2116
     57  CA        -0.7590    3.2230   13.3460 C.3    43  PRO43       0.1372
     58  C         -0.5520    3.2770   11.8370 C.2    43  PRO43       0.2244
     59  O          0.3550    2.6380   11.2770 O.2    43  PRO43      -0.2868
     60  CB         0.1850    4.2610   13.9450 C.3    43  PRO43       0.0268
     61  CG         1.2990    3.4880   14.5890 C.3    43  PRO43       0.0207
     62  CD         0.8300    2.0990   14.8570 C.3    43  PRO43       0.0892
     63  N          0.4300    6.2930    9.2030 N.3    45  MET45      -0.1245
     64  CA         1.0330    7.6040    9.3700 C.3    45  MET45       0.1570
     65  C          0.8530    8.2480    8.0000 C.2    45  MET45       0.2261
     66  O          1.1200    7.5730    6.9780 O.2    45  MET45      -0.2867
     67  CB         2.5550    7.4390    9.6810 C.3    45  MET45       0.0387
     68  CG         3.3050    8.6900    9.5390 C.3    45  MET45       0.0595
     69  SD         4.9840    8.5280   10.1400 S.3    45  MET45      -0.1393
     70  CE         5.5810    7.2390    9.1050 C.3    45  MET45       0.0692
     71  N         -0.8210   10.6550   12.6200 N.3    58  SER58      -0.1217
     72  CA        -0.7340    9.2410   13.0360 C.3    58  SER58       0.1889
     73  C         -2.1970    8.9290   13.4300 C.2    58  SER58       0.2288
     74  O         -2.7900    9.6890   14.2400 O.2    58  SER58      -0.2866
     75  CB         0.1090    9.0730   14.2620 C.3    58  SER58       0.2089
     76  OG         0.1380    7.6770   14.4470 O.3    58  SER58      -0.2183
     77  N         -4.5630    5.7900   14.9870 N.3    60  SER60      -0.1217
     78  CA        -4.5180    4.4030   15.4110 C.3    60  SER60       0.1889
     79  C         -5.5930    4.2170   16.4140 C.2    60  SER60       0.2288
     80  O         -6.2830    5.1850   16.8690 O.2    60  SER60      -0.2866
     81  CB        -3.1690    4.0070   16.0410 C.3    60  SER60       0.2089
     82  OG        -2.8870    4.7020   17.2120 O.3    60  SER60      -0.2183
     83  N         -4.7770    3.6240   19.4760 N.3    62  PHE62      -0.1227
     84  CA        -4.2180    4.3010   20.6890 C.3    62  PHE62       0.1736
     85  C         -4.6140    5.7770   20.7350 C.2    62  PHE62       0.2595
     86  O         -5.2910    6.2890   21.6700 O.2    62  PHE62      -0.2718
     87  CB        -2.6600    4.1730   20.7130 C.3    62  PHE62       0.0547
     88  CG        -1.9870    4.9330   21.7820 C.ar   62  PHE62      -0.0202
     89  CD1       -2.4930    4.9810   23.0820 C.ar   62  PHE62      -0.0042
     90  CD2       -0.8240    5.5590   21.5170 C.ar   62  PHE62      -0.0042
     91  CE1       -1.7630    5.6510   24.0920 C.ar   62  PHE62      -0.0003
     92  CE2       -0.1190    6.2860   22.4620 C.ar   62  PHE62      -0.0003
     93  CZ        -0.5850    6.3000   23.7710 C.ar   62  PHE62      -0.0000
     94  N         -4.2130    6.4930   19.7030 N.am   63  LYS63      -0.1980
     95  CA        -4.3310    7.9410   19.7360 C.3    63  LYS63       0.1596
     96  C         -4.2660    8.3910   18.3040 C.2    63  LYS63       0.2287
     97  O         -3.5800    7.7540   17.4500 O.2    63  LYS63      -0.2864
     98  CB        -3.0920    8.4870   20.3710 C.3    63  LYS63       0.0298
     99  CG        -3.2910    9.6010   21.3300 C.3    63  LYS63       0.0038
    100  CD        -3.5810    8.8710   22.6160 C.3    63  LYS63       0.0206
    101  CE        -3.6780    9.8210   23.7870 C.3    63  LYS63       0.1093
    102  NZ        -4.6180    9.2330   24.7670 N.3    63  LYS63      -0.1314
    103  N          2.6330   15.0650   22.5290 N.3    79  THR79      -0.1203
    104  CA         2.9080   13.7680   21.9270 C.3    79  THR79       0.1994
    105  C          1.7870   12.7390   22.2760 C.2    79  THR79       0.2618
    106  O          0.9630   12.9560   23.1630 O.2    79  THR79      -0.2717
    107  CB         4.2650   13.2180   22.4130 C.3    79  THR79       0.1784
    108  OG1        4.2450   13.0280   23.8430 O.3    79  THR79      -0.2211
    109  CG2        5.4080   14.1850   22.1140 C.3    79  THR79       0.0376
    110  N          1.8320   11.6070   21.6140 N.am   80  ALA80      -0.1965
    111  CA         0.7880   10.5660   21.7440 C.3    80  ALA80       0.1728
    112  C          0.7670   10.0520   23.2250 C.2    80  ALA80       0.2616
    113  O         -0.3290    9.7300   23.7460 O.2    80  ALA80      -0.2715
    114  CB         1.0650    9.4080   20.8160 C.3    80  ALA80       0.0334
    115  N          1.9490   10.0320   23.8420 N.am   81  ASP81      -0.1971
    116  CA         2.0650    9.6120   25.2760 C.3    81  ASP81       0.1709
    117  C          1.8370   10.7880   26.2660 C.2    81  ASP81       0.2293
    118  O          2.1160   10.6690   27.4970 O.2    81  ASP81      -0.2864
    119  CB         3.4540    8.9820   25.5710 C.3    81  ASP81       0.1436
    120  CG         4.6170    9.9320   25.2990 C.2    81  ASP81       0.3671
    121  OD1        4.7060   10.4850   24.1810 O.co2  81  ASP81      -0.2456
    122  OD2        5.4790   10.1190   26.1960 O.co2  81  ASP81      -0.2456
    123  N          3.2870   13.8390   26.5350 N.3    83  ARG83      -0.1245
    124  CA         4.2580   14.8250   26.9210 C.3    83  ARG83       0.1563
    125  C          3.9460   16.1480   26.2050 C.2    83  ARG83       0.2260
    126  O          3.4630   16.1570   25.0180 O.2    83  ARG83      -0.2867
    127  CB         5.6600   14.3950   26.5690 C.3    83  ARG83       0.0307
    128  CG         6.3000   13.3850   27.5180 C.3    83  ARG83       0.0489
    129  CD         7.5830   12.7870   26.9490 C.3    83  ARG83       0.2205
    130  NE         7.3360   12.0180   25.7320 N.pl3  83  ARG83      -0.0865
    131  CZ         7.8960   12.2510   24.5580 C.cat  83  ARG83       0.5346
    132  NH1        8.8620   13.1200   24.4390 N.pl3  83  ARG83       0.1354
    133  NH2        7.5330   11.5500   23.5100 N.pl3  83  ARG83       0.1354
    134  N         12.6930   16.2750   20.2400 N.3   100  GLN100     -0.1245
    135  CA        11.6530   16.6670   21.2000 C.3   100  GLN100      0.1566
    136  C         12.3530   17.0120   22.4980 C.2   100  GLN100      0.2260
    137  O         13.1350   16.1700   22.9900 O.2   100  GLN100     -0.2867
    138  CB        10.7080   15.5300   21.4820 C.3   100  GLN100      0.0367
    139  CG         9.7120   15.2700   20.3340 C.3   100  GLN100      0.0905
    140  CD         8.8750   14.0550   20.5370 C.2   100  GLN100      0.2608
    141  OE1        9.1080   13.2860   21.4770 O.2   100  GLN100     -0.2717
    142  NE2        7.8230   13.8890   19.7180 N.am  100  GLN100     -0.0878
    143  N         13.8850   11.3490   17.0010 N.3   109  ILE109     -0.1245
    144  CA        13.2300   10.4150   16.1700 C.3   109  ILE109      0.1561
    145  C         13.6940   10.6990   14.7530 C.2   109  ILE109      0.2260
    146  O         13.5280   11.7640   14.2820 O.2   109  ILE109     -0.2867
    147  CB        11.7210   10.6340   16.2480 C.3   109  ILE109      0.0252
    148  CG1       11.2240   10.4970   17.6760 C.3   109  ILE109      0.0019
    149  CG2       10.9720    9.7330   15.2960 C.3   109  ILE109      0.0019
    150  CD1        9.7530   10.7760   17.8150 C.3   109  ILE109      0.0001
    151  N         13.4850    9.6980   10.6470 N.3   111  ARG111     -0.1245
    152  CA        12.6980    8.9430    9.7060 C.3   111  ARG111      0.1563
    153  C         13.4630    8.9050    8.3940 C.2   111  ARG111      0.2260
    154  O         13.8620    9.9430    7.9230 O.2   111  ARG111     -0.2867
    155  CB        11.3630    9.6370    9.5490 C.3   111  ARG111      0.0307
    156  CG        10.4560    9.5930   10.8270 C.3   111  ARG111      0.0489
    157  CD         9.1780   10.4570   10.7150 C.3   111  ARG111      0.2205
    158  NE         8.2990   10.3790   11.9500 N.pl3 111  ARG111     -0.0865
    159  CZ         8.3350   11.2000   13.0040 C.cat 111  ARG111      0.5346
    160  NH1        9.1870   12.1990   13.0440 N.pl3 111  ARG111      0.1354
    161  NH2        7.4440   11.0360   14.0500 N.pl3 111  ARG111      0.1354
    162  N         11.6080    4.3300   11.0630 N.3   120  VAL120     -0.1245
    163  CA        11.6260    5.3920   12.0980 C.3   120  VAL120      0.1561
    164  C         12.4860    4.8900   13.2650 C.2   120  VAL120      0.2260
    165  O         12.2660    3.7660   13.7990 O.2   120  VAL120     -0.2867
    166  CB        10.1320    5.5080   12.5960 C.3   120  VAL120      0.0252
    167  CG1       10.0210    6.5210   13.6990 C.3   120  VAL120      0.0019
    168  CG2        9.2290    5.8600   11.4180 C.3   120  VAL120      0.0019
    169  N         13.9040    5.6950   16.9250 N.3   122  CYS122     -0.1235
    170  CA        13.6100    6.5520   18.0760 C.3   122  CYS122      0.1677
    171  C         14.7700    6.3310   19.0690 C.2   122  CYS122      0.2270
    172  O         15.0520    5.1890   19.4630 O.2   122  CYS122     -0.2867
    173  CB        12.3100    6.1650   18.7530 C.3   122  CYS122      0.0956
    174  SG        10.8840    6.2230   17.6490 S.3   122  CYS122     -0.0801
    175  N         11.2010    1.2000   14.1710 N.3   131  ARG131     -0.1245
    176  CA         9.8140    0.9390   13.7650 C.3   131  ARG131      0.1563
    177  C          9.7690    1.0150   12.2580 C.2   131  ARG131      0.2260
    178  O         10.2270    2.0000   11.7020 O.2   131  ARG131     -0.2867
    179  CB         8.8590    1.9210   14.4100 C.3   131  ARG131      0.0307
    180  CG         8.7290    1.4150   15.8540 C.3   131  ARG131      0.0489
    181  CD         8.1070    2.4490   16.7550 C.3   131  ARG131      0.2205
    182  NE         6.7040    2.7700   16.5010 N.pl3 131  ARG131     -0.0865
    183  CZ         5.6560    2.1340   17.0080 C.cat 131  ARG131      0.5346
    184  NH1        5.8140    0.9830   17.5700 N.pl3 131  ARG131      0.1354
    185  NH2        4.4340    2.6190   16.8110 N.pl3 131  ARG131      0.1354
    186  N          7.6860    1.1130    8.6860 N.3   133  TYR133     -0.1241
    187  CA         6.3620    1.2450    8.0270 C.3   133  TYR133      0.1605
    188  C          6.4580    0.8890    6.5530 C.2   133  TYR133      0.2264
    189  O          7.5160    1.0750    5.9060 O.2   133  TYR133     -0.2867
    190  CB         5.8920    2.7140    8.0900 C.3   133  TYR133      0.0534
    191  CG         5.5440    3.2000    9.4660 C.ar  133  TYR133     -0.0201
    192  CD1        6.5160    3.5020   10.4490 C.ar  133  TYR133     -0.0009
    193  CD2        4.1830    3.3990    9.7660 C.ar  133  TYR133     -0.0009
    194  CE1        6.1350    3.9560   11.7180 C.ar  133  TYR133      0.0417
    195  CE2        3.8020    3.8970   10.9930 C.ar  133  TYR133      0.0417
    196  CZ         4.7270    4.1020   11.9860 C.ar  133  TYR133      0.1957
    197  OH         4.2650    4.6490   13.1840 O.3   133  TYR133     -0.2866
@<TRIPOS>BOND
     1   189   188    2
     2   188   187    1
     3    66    65    2
     4   154   153    2
     5    65    64    1
     6   187   190    1
     7   187   186    1
     8   190   191    1
     9   153   152    1
    10    70    69    1
    11    63    64    1
    12    64    67    1
    13   191   193   ar
    14   191   192   ar
    15    68    67    1
    16    68    69    1
    17   155   152    1
    18   155   156    1
    19   152   151    1
    20   193   195   ar
    21   192   194   ar
    22   157   156    1
    23   157   158    1
    24   195   196   ar
    25   162   163    1
    26    59    58    2
    27   168   166    1
    28   178   177    2
    29   194   196   ar
    30    58    57    1
    31   158   159    2
    32   196   197    1
    33   163   166    1
    34   163   164    1
    35   177   176    1
    36   166   167    1
    37    71    72    1
    38   159   160    1
    39   159   161    1
    40    72    73    1
    41    72    75    1
    42   164   165    2
    43    57    60    1
    44    57    56    1
    45    73    74    2
    46   176   175    1
    47   176   179    1
    48    60    61    1
    49    56    62    1
    50    75    76    1
    51   146   145    2
    52   179   180    1
    53    61    62    1
    54   145   144    1
    55    77    78    1
    56   149   147    1
    57    78    81    1
    58    78    79    1
    59   180   181    1
    60    81    82    1
    61   144   147    1
    62   144   143    1
    63   147   148    1
    64    79    80    2
    65   182   181    1
    66   182   183    2
    67   185   183    1
    68    54    53    2
    69    53    52    1
    70   169   170    1
    71   183   184    1
    72    97    96    2
    73   174   173    1
    74   148   150    1
    75   170   173    1
    76   170   171    1
    77    52    55    1
    78    52    51    1
    79    96    95    1
    80   171   172    2
    81    83    84    1
    82    94    95    1
    83    94    85   am
    84   142   140   am
    85    95    98    1
    86   134   135    1
    87     9     7   ar
    88     9    11   ar
    89   139   140    1
    90   139   138    1
    91    98    99    1
    92     7     6   ar
    93   140   141    2
    94    11    10   ar
    95     6     5    1
    96     6     8   ar
    97    84    87    1
    98    84    85    1
    99     5     2    1
   100    87    88    1
   101    85    86    2
   102    49    48    2
   103    10     8   ar
   104   114   111    1
   105   135   138    1
   106   135   136    1
   107    99   100    1
   108     1     2    1
   109    90    88   ar
   110    90    92   ar
   111     2     3    1
   112   110   111    1
   113   110   105   am
   114    23    22    1
   115   111   112    1
   116    88    89   ar
   117   104   105    1
   118   104   107    1
   119   104   103    1
   120    22    21   ar
   121    22    20   ar
   122    21    19   ar
   123    48    47    1
   124   109   107    1
   125    20    18   ar
   126   105   106    2
   127    19    17   ar
   128   107   108    1
   129    92    93   ar
   130   136   137    2
   131    18    17   ar
   132    17    16    1
   133   100   101    1
   134    47    50    1
   135    47    46    1
   136    16    13    1
   137    89    91   ar
   138     3     4    2
   139   112   113    2
   140   112   115   am
   141   133   131    1
   142    93    91   ar
   143   101   102    1
   144   115   116    1
   145   121   120   ar
   146    30    29    1
   147    30    31    1
   148    29    28    1
   149   132   131    1
   150    13    12    1
   151    13    14    1
   152   131   130    2
   153   126   125    2
   154   116   119    1
   155   116   117    1
   156    24    14   am
   157    24    25    1
   158    14    15    2
   159   120   119    1
   160   120   122   ar
   161    38    36    1
   162   130   129    1
   163    28    25    1
   164    25    26    1
   165   125   124    1
   166   117   118    2
   167   123   124    1
   168   127   124    1
   169   127   128    1
   170    37    36    1
   171    36    33    1
   172   129   128    1
   173    45    43    1
   174    26    27    2
   175    33    32    1
   176    33    34    1
   177    44    43    1
   178    43    40    1
   179    34    35    2
   180    40    39    1
   181    40    41    1
   182    41    42    2
