@<TRIPOS>MOLECULE
tmp/5d4pC01.pdb
 99 96 0 0 0
SMALL
GASTEIGER

@<TRIPOS>ATOM
      1  N         -7.3750    2.6290  -17.5790 N.3    14  ILE14      -0.1245
      2  CA        -7.5120    1.2160  -17.9040 C.3    14  ILE14       0.1561
      3  C         -7.9810    1.0310  -19.3710 C.2    14  ILE14       0.2260
      4  O         -9.0180    1.5650  -19.7880 O.2    14  ILE14      -0.2867
      5  CB        -8.4880    0.5270  -16.9330 C.3    14  ILE14       0.0252
      6  CG1       -7.9790    0.6350  -15.4890 C.3    14  ILE14       0.0019
      7  CG2       -8.6820   -0.9240  -17.2950 C.3    14  ILE14       0.0019
      8  CD1       -9.0470    0.3730  -14.4470 C.3    14  ILE14       0.0001
      9  N         -7.2590   -8.6030  -15.3360 N.3    42  SER42      -0.1202
     10  CA        -8.5190   -9.1650  -15.7560 C.3    42  SER42       0.2020
     11  C         -9.5540   -8.0780  -15.5580 C.2    42  SER42       0.2619
     12  O         -9.2790   -7.0610  -14.9160 O.2    42  SER42      -0.2717
     13  CB        -8.8740  -10.4120  -14.9370 C.3    42  SER42       0.2103
     14  OG        -7.9740  -11.4840  -15.1860 O.3    42  SER42      -0.2182
     15  N        -10.7450   -8.2760  -16.1000 N.am   43  GLY43      -0.1942
     16  CA       -11.7910   -7.3080  -15.8680 C.3    43  GLY43       0.2014
     17  C        -13.0760   -7.6500  -16.5610 C.2    43  GLY43       0.2639
     18  O        -13.1200   -8.4640  -17.4830 O.2    43  GLY43      -0.2714
     19  N        -14.1410   -7.0230  -16.0950 N.am   44  LYS44      -0.1963
     20  CA       -15.4490   -7.1860  -16.6930 C.3    44  LYS44       0.1728
     21  C        -15.9790   -5.7970  -16.9830 C.2    44  LYS44       0.2617
     22  O        -15.9320   -4.9180  -16.1090 O.2    44  LYS44      -0.2715
     23  CB       -16.3770   -7.9760  -15.7580 C.3    44  LYS44       0.0311
     24  CG       -17.7740   -8.2530  -16.3150 C.3    44  LYS44       0.0038
     25  CD       -18.7020   -8.8860  -15.2680 C.3    44  LYS44       0.0206
     26  CE       -20.1670   -8.8330  -15.7050 C.3    44  LYS44       0.1093
     27  NZ       -20.5800   -7.4560  -16.0930 N.3    44  LYS44      -0.1314
     28  N        -16.4270   -5.5810  -18.2110 N.am   45  GLY45      -0.1940
     29  CA       -17.0380   -4.3240  -18.5990 C.3    45  GLY45       0.2014
     30  C        -18.5000   -4.5020  -18.9890 C.2    45  GLY45       0.2640
     31  O        -19.1070   -5.5510  -18.7630 O.2    45  GLY45      -0.2714
     32  N        -19.0660   -3.4610  -19.5840 N.am   46  SER46      -0.1935
     33  CA       -20.4430   -3.5010  -20.0530 C.3    46  SER46       0.2055
     34  C        -20.6690   -4.5680  -21.1350 C.2    46  SER46       0.2643
     35  O        -21.7870   -5.0260  -21.3340 O.2    46  SER46      -0.2714
     36  CB       -20.8510   -2.1400  -20.6070 C.3    46  SER46       0.2130
     37  OG       -20.4030   -1.9830  -21.9410 O.3    46  SER46      -0.2179
     38  N        -19.6230   -4.9260  -21.8640 N.am   47  HIS47      -0.1959
     39  CA       -19.8010   -5.8290  -22.9970 C.3    47  HIS47       0.1787
     40  C        -18.8880   -7.0600  -22.9980 C.2    47  HIS47       0.2620
     41  O        -19.3080   -8.1330  -23.4210 O.2    47  HIS47      -0.2715
     42  CB       -19.6060   -5.0490  -24.3050 C.3    47  HIS47       0.0785
     43  CG       -19.8490   -5.8550  -25.5420 C.ar   47  HIS47       0.0821
     44  ND1      -18.9430   -6.7780  -26.0210 N.ar   47  HIS47      -0.2267
     45  CD2      -20.8840   -5.8580  -26.4170 C.ar   47  HIS47       0.1154
     46  CE1      -19.4140   -7.3200  -27.1320 C.ar   47  HIS47       0.1986
     47  NE2      -20.5930   -6.7820  -27.3920 N.ar   47  HIS47      -0.2212
     48  N        -17.6650   -6.9430  -22.4870 N.am   48  GLY48      -0.1954
     49  CA       -16.7720   -8.0800  -22.5860 C.3    48  GLY48       0.1869
     50  C        -15.9490   -8.4070  -21.3590 C.2    48  GLY48       0.2309
     51  O        -15.9350   -7.6740  -20.3840 O.2    48  GLY48      -0.2863
     52  N        -12.1020   -9.6220  -19.8790 N.3    50  TYR50      -0.1241
     53  CA       -10.6640   -9.7360  -20.0820 C.3    50  TYR50       0.1605
     54  C        -10.0690  -10.7250  -19.0880 C.2    50  TYR50       0.2264
     55  O        -10.0730  -10.4680  -17.8770 O.2    50  TYR50      -0.2867
     56  CB        -9.9700   -8.3750  -19.9570 C.3    50  TYR50       0.0534
     57  CG       -10.3760   -7.4090  -21.0480 C.ar   50  TYR50      -0.0201
     58  CD1       -9.8460   -7.5040  -22.3380 C.ar   50  TYR50      -0.0009
     59  CD2      -11.3050   -6.4100  -20.7870 C.ar   50  TYR50      -0.0009
     60  CE1      -10.2400   -6.6160  -23.3280 C.ar   50  TYR50       0.0417
     61  CE2      -11.6900   -5.5310  -21.7500 C.ar   50  TYR50       0.0417
     62  CZ       -11.1670   -5.6340  -23.0180 C.ar   50  TYR50       0.1957
     63  OH       -11.5810   -4.7350  -23.9600 O.3    50  TYR50      -0.2866
     64  N         -5.1600   -6.5870  -21.0470 N.3    62  LEU62      -0.1245
     65  CA        -5.7160   -5.3880  -20.4710 C.3    62  LEU62       0.1561
     66  C         -4.6100   -4.8120  -19.5940 C.2    62  LEU62       0.2260
     67  O         -3.9500   -5.5590  -18.8610 O.2    62  LEU62      -0.2867
     68  CB        -6.9650   -5.7100  -19.6610 C.3    62  LEU62       0.0270
     69  CG        -7.7730   -4.5180  -19.1590 C.3    62  LEU62       0.0019
     70  CD1       -8.4440   -3.8170  -20.3070 C.3    62  LEU62       0.0001
     71  CD2       -8.7800   -4.9850  -18.0920 C.3    62  LEU62       0.0001
     72  N        -12.7290    0.7240  -25.5340 N.3    89  SER89      -0.1202
     73  CA       -13.0680    0.2020  -24.2040 C.3    89  SER89       0.2020
     74  C        -12.1690    0.7870  -23.1170 C.2    89  SER89       0.2619
     75  O        -11.0200    1.1620  -23.3770 O.2    89  SER89      -0.2717
     76  CB       -12.9490   -1.3270  -24.1960 C.3    89  SER89       0.2103
     77  OG       -13.8540   -1.9130  -25.1200 O.3    89  SER89      -0.2182
     78  N        -12.6830    0.8830  -21.8950 N.am   90  GLY90      -0.1942
     79  CA       -11.8490    1.3480  -20.7950 C.3    90  GLY90       0.2014
     80  C        -12.3310    2.5750  -20.0390 C.2    90  GLY90       0.2638
     81  O        -13.2980    3.2320  -20.4320 O.2    90  GLY90      -0.2714
     82  N        -11.6080    2.9150  -18.9750 N.am   91  VAL91      -0.1977
     83  CA       -12.0060    3.9930  -18.0750 C.3    91  VAL91       0.1596
     84  C        -10.8090    4.8090  -17.5630 C.2    91  VAL91       0.2287
     85  O         -9.6470    4.3500  -17.5660 O.2    91  VAL91      -0.2864
     86  CB       -12.7860    3.4430  -16.8210 C.3    91  VAL91       0.0276
     87  CG1      -14.1180    2.7890  -17.2240 C.3    91  VAL91       0.0022
     88  CG2      -11.9380    2.4520  -16.0640 C.3    91  VAL91       0.0022
     89  N         -9.8090    7.0350  -14.0550 N.3    93  PHE93      -0.1241
     90  CA       -10.0840    7.4640  -12.6850 C.3    93  PHE93       0.1605
     91  C         -9.1530    8.6050  -12.2870 C.2    93  PHE93       0.2264
     92  O         -7.9240    8.4740  -12.3330 O.2    93  PHE93      -0.2867
     93  CB        -9.9020    6.3120  -11.6950 C.3    93  PHE93       0.0534
     94  CG       -10.7110    5.0840  -12.0180 C.ar   93  PHE93      -0.0203
     95  CD1      -11.9790    5.1860  -12.5680 C.ar   93  PHE93      -0.0042
     96  CD2      -10.2040    3.8200  -11.7590 C.ar   93  PHE93      -0.0042
     97  CE1      -12.7250    4.0520  -12.8520 C.ar   93  PHE93      -0.0003
     98  CE2      -10.9560    2.6770  -12.0500 C.ar   93  PHE93      -0.0003
     99  CZ       -12.2180    2.8040  -12.5970 C.ar   93  PHE93      -0.0000
@<TRIPOS>BOND
     1    47    46   ar
     2    47    45   ar
     3    46    44   ar
     4    45    43   ar
     5    44    43   ar
     6    43    42    1
     7    72    73    1
     8    77    76    1
     9    42    39    1
    10    73    76    1
    11    73    74    1
    12    63    62    1
    13    41    40    2
    14    75    74    2
    15    60    62   ar
    16    60    58   ar
    17    74    78   am
    18    62    61   ar
    19    40    39    1
    20    40    48   am
    21    39    38    1
    22    49    48    1
    23    49    50    1
    24    58    57   ar
    25    37    36    1
    26    78    79    1
    27    38    34   am
    28    61    59   ar
    29    50    51    2
    30    35    34    2
    31    34    33    1
    32    57    59   ar
    33    57    56    1
    34    64    65    1
    35    79    80    1
    36    36    33    1
    37    65    68    1
    38    65    66    1
    39    81    80    2
    40    70    69    1
    41    53    56    1
    42    53    52    1
    43    53    54    1
    44    33    32    1
    45    80    82   am
    46     4     3    2
    47    68    69    1
    48    66    67    2
    49    32    30   am
    50     3     2    1
    51    69    71    1
    52    54    55    2
    53    30    31    2
    54    30    29    1
    55    82    83    1
    56    29    28    1
    57    28    21   am
    58    83    84    1
    59    83    86    1
    60     2     1    1
    61     2     5    1
    62    85    84    2
    63    18    17    2
    64     7     5    1
    65    87    86    1
    66    21    20    1
    67    21    22    2
    68     5     6    1
    69    86    88    1
    70    20    19    1
    71    20    23    1
    72    17    19   am
    73    17    16    1
    74    24    23    1
    75    24    25    1
    76    15    16    1
    77    15    11   am
    78    27    26    1
    79    10    11    1
    80    10     9    1
    81    10    13    1
    82    26    25    1
    83    11    12    2
    84     6     8    1
    85    14    13    1
    86    89    90    1
    87    97    99   ar
    88    97    95   ar
    89    90    91    1
    90    90    93    1
    91    99    98   ar
    92    95    94   ar
    93    92    91    2
    94    98    96   ar
    95    94    96   ar
    96    94    93    1
