@<TRIPOS>MOLECULE
tmp/5d4vC00.pdb
 212 209 0 0 0
SMALL
GASTEIGER

@<TRIPOS>ATOM
      1  N         25.1240   15.9270   -0.3510 N.3    26  LYS26      -0.1245
      2  CA        24.9640   15.4400   -1.7250 C.3    26  LYS26       0.1561
      3  C         25.8420   16.2430   -2.6890 C.2    26  LYS26       0.2260
      4  O         26.5170   15.6840   -3.5660 O.2    26  LYS26      -0.2867
      5  CB        23.5150   15.4860   -2.1580 C.3    26  LYS26       0.0271
      6  CG        22.6350   14.4550   -1.4470 C.3    26  LYS26       0.0035
      7  CD        21.2260   14.5150   -2.0100 C.3    26  LYS26       0.0206
      8  CE        20.3890   13.4250   -1.3980 C.3    26  LYS26       0.1093
      9  NZ        19.0020   13.4040   -2.0000 N.3    26  LYS26      -0.1314
     10  N         18.3610   18.6300  -14.3460 N.3    45  PHE45      -0.1227
     11  CA        16.9490   18.2930  -14.3600 C.3    45  PHE45       0.1736
     12  C         16.4390   18.0000  -12.9570 C.2    45  PHE45       0.2596
     13  O         16.9660   17.1160  -12.2980 O.2    45  PHE45      -0.2718
     14  CB        16.6790   17.0490  -15.2440 C.3    45  PHE45       0.0547
     15  CG        16.9870   17.2510  -16.7030 C.ar   45  PHE45      -0.0202
     16  CD1       16.1110   17.9660  -17.5020 C.ar   45  PHE45      -0.0042
     17  CD2       18.1720   16.7610  -17.2610 C.ar   45  PHE45      -0.0042
     18  CE1       16.3860   18.1770  -18.8730 C.ar   45  PHE45      -0.0003
     19  CE2       18.4570   16.9600  -18.6190 C.ar   45  PHE45      -0.0003
     20  CZ        17.5720   17.6750  -19.4240 C.ar   45  PHE45      -0.0000
     21  N         15.4000   18.7040  -12.5260 N.am   46  GLY46      -0.1942
     22  CA        14.7640   18.4300  -11.2410 C.3    46  GLY46       0.2014
     23  C         15.1130   19.4500  -10.1750 C.2    46  GLY46       0.2639
     24  O         16.1550   19.3540   -9.5570 O.2    46  GLY46      -0.2714
     25  N         14.2130   20.3930   -9.9150 N.am   47  VAL47      -0.1963
     26  CA        14.4770   21.4340   -8.9170 C.3    47  VAL47       0.1727
     27  C         14.3370   20.9200   -7.4770 C.2    47  VAL47       0.2616
     28  O         15.1840   21.1880   -6.6230 O.2    47  VAL47      -0.2715
     29  CB        13.5250   22.6160   -9.1170 C.3    47  VAL47       0.0290
     30  CG1       13.6210   23.6160   -7.9410 C.3    47  VAL47       0.0023
     31  CG2       13.8190   23.2810  -10.4450 C.3    47  VAL47       0.0023
     32  N         13.2580   20.1940   -7.2090 N.am   48  TYR48      -0.1960
     33  CA        12.9560   19.7090   -5.8540 C.3    48  TYR48       0.1771
     34  C         13.8240   18.5040   -5.5550 C.2    48  TYR48       0.2619
     35  O         13.8730   17.5990   -6.3880 O.2    48  TYR48      -0.2715
     36  CB        11.4870   19.3340   -5.7750 C.3    48  TYR48       0.0574
     37  CG        11.0450   18.7880   -4.4550 C.ar   48  TYR48      -0.0198
     38  CD1       10.7220   19.6440   -3.4270 C.ar   48  TYR48      -0.0009
     39  CD2       10.9230   17.4150   -4.2370 C.ar   48  TYR48      -0.0009
     40  CE1       10.3090   19.1700   -2.2180 C.ar   48  TYR48       0.0417
     41  CE2       10.4880   16.9340   -3.0330 C.ar   48  TYR48       0.0417
     42  CZ        10.1850   17.8140   -2.0200 C.ar   48  TYR48       0.1957
     43  OH         9.7500   17.3570   -0.8200 O.3    48  TYR48      -0.2866
     44  N         14.5030   18.4270   -4.4070 N.am   49  LEU49      -0.1963
     45  CA        14.5420   19.4240   -3.3400 C.3    49  LEU49       0.1728
     46  C         15.9430   20.0720   -3.2390 C.2    49  LEU49       0.2616
     47  O         16.1660   20.9570   -2.4170 O.2    49  LEU49      -0.2715
     48  CB        14.1240   18.7520   -2.0170 C.3    49  LEU49       0.0311
     49  CG        14.1030   19.5150   -0.6940 C.3    49  LEU49       0.0022
     50  CD1       13.4330   20.8860   -0.8550 C.3    49  LEU49       0.0001
     51  CD2       13.3750   18.6880    0.3970 C.3    49  LEU49       0.0001
     52  N         16.8920   19.6570   -4.0680 N.am   50  TRP50      -0.1974
     53  CA        18.2240   20.2250   -3.9310 C.3    50  TRP50       0.1640
     54  C         18.8130   20.6670   -5.2850 C.2    50  TRP50       0.2290
     55  O         20.0150   20.9280   -5.4360 O.2    50  TRP50      -0.2864
     56  CB        19.1470   19.2470   -3.1870 C.3    50  TRP50       0.0576
     57  CG        19.5330   18.0070   -3.9120 C.ar   50  TRP50       0.0006
     58  CD1       18.7250   16.9510   -4.2500 C.ar   50  TRP50       0.0946
     59  CD2       20.8480   17.6790   -4.3840 C.ar   50  TRP50       0.0152
     60  NE1       19.4590   15.9920   -4.9120 N.ar   50  TRP50      -0.2442
     61  CE2       20.7640   16.4000   -4.9930 C.ar   50  TRP50       0.0810
     62  CE3       22.0800   18.3350   -4.3290 C.ar   50  TRP50       0.0012
     63  CZ2       21.8850   15.7790   -5.5660 C.ar   50  TRP50       0.0191
     64  CZ3       23.1990   17.7110   -4.9140 C.ar   50  TRP50       0.0001
     65  CH2       23.0860   16.4460   -5.5250 C.ar   50  TRP50       0.0015
     66  N         16.0410   22.7900  -15.0910 N.3    68  VAL68      -0.1231
     67  CA        14.8690   22.4140  -15.8940 C.3    68  VAL68       0.1692
     68  C         13.9230   21.5510  -15.0470 C.2    68  VAL68       0.2592
     69  O         14.3460   20.5950  -14.3960 O.2    68  VAL68      -0.2718
     70  CB        15.2690   21.6320  -17.1840 C.3    68  VAL68       0.0266
     71  CG1       13.9890   21.2430  -18.0150 C.3    68  VAL68       0.0020
     72  CG2       16.2810   22.4240  -18.0350 C.3    68  VAL68       0.0020
     73  N         12.6360   21.8810  -15.0910 N.am   69  ASP69      -0.1960
     74  CA        11.6500   21.0920  -14.3750 C.3    69  ASP69       0.1840
     75  C         10.4550   20.9060  -15.2710 C.2    69  ASP69       0.2622
     76  O         10.0960   21.7900  -16.0500 O.2    69  ASP69      -0.2715
     77  CB        11.2500   21.7750  -13.0580 C.3    69  ASP69       0.1450
     78  CG        10.7520   20.7890  -12.0110 C.2    69  ASP69       0.3671
     79  OD1        9.5880   20.3250  -12.0640 O.co2  69  ASP69      -0.2456
     80  OD2       11.5540   20.4350  -11.1050 O.co2  69  ASP69      -0.2456
     81  N          9.8220   19.7560  -15.1570 N.am   70  ILE70      -0.1963
     82  CA         8.5690   19.5190  -15.8700 C.3    70  ILE70       0.1727
     83  C          7.4650   20.4390  -15.3160 C.2    70  ILE70       0.2616
     84  O          6.5080   20.7900  -16.0370 O.2    70  ILE70      -0.2715
     85  CB         8.1910   18.0170  -15.7720 C.3    70  ILE70       0.0290
     86  CG1        7.2050   17.6080  -16.8620 C.3    70  ILE70       0.0022
     87  CG2        7.7050   17.6480  -14.3470 C.3    70  ILE70       0.0023
     88  CD1        7.0230   16.0900  -16.9810 C.3    70  ILE70       0.0001
     89  N          7.6230   20.9200  -14.0830 N.am   71  HIS71      -0.1973
     90  CA         6.6290   21.8300  -13.4970 C.3    71  HIS71       0.1656
     91  C          7.0240   23.2950  -13.5050 C.2    71  HIS71       0.2291
     92  O          7.9820   23.6990  -12.8590 O.2    71  HIS71      -0.2864
     93  CB         6.3100   21.4490  -12.0470 C.3    71  HIS71       0.0771
     94  CG         5.6400   20.1210  -11.9060 C.ar   71  HIS71       0.0820
     95  ND1        4.3990   19.8760  -12.4380 N.ar   71  HIS71      -0.2267
     96  CD2        5.9930   18.9980  -11.2340 C.ar   71  HIS71       0.1154
     97  CE1        4.0260   18.6400  -12.1390 C.ar   71  HIS71       0.1986
     98  NE2        4.9740   18.0890  -11.4100 N.ar   71  HIS71      -0.2212
     99  N          7.7640   25.4210  -10.2230 N.3    74  MET74      -0.1245
    100  CA         9.0300   25.2510   -9.5080 C.3    74  MET74       0.1570
    101  C          9.9830   26.4470   -9.5750 C.2    74  MET74       0.2261
    102  O         10.9360   26.5270   -8.8000 O.2    74  MET74      -0.2867
    103  CB         9.7700   23.9940  -10.0080 C.3    74  MET74       0.0387
    104  CG         9.1680   22.7170   -9.5100 C.3    74  MET74       0.0595
    105  SD         9.2280   22.5500   -7.7260 S.3    74  MET74      -0.1393
    106  CE         8.5880   20.8920   -7.5240 C.3    74  MET74       0.0692
    107  N         10.2150   21.9220  -18.9420 N.3    89  LEU89      -0.1245
    108  CA        10.7280   20.8890  -19.8630 C.3    89  LEU89       0.1561
    109  C         10.2890   21.1700  -21.3160 C.2    89  LEU89       0.2260
    110  O         11.0740   20.9630  -22.2300 O.2    89  LEU89      -0.2867
    111  CB        10.2840   19.4870  -19.4250 C.3    89  LEU89       0.0270
    112  CG        10.8270   18.2920  -20.2260 C.3    89  LEU89       0.0019
    113  CD1       12.3470   18.2290  -20.2390 C.3    89  LEU89       0.0001
    114  CD2       10.2330   16.9730  -19.7330 C.3    89  LEU89       0.0001
    115  N         18.4620   14.8750  -11.4740 N.3   109  LEU109     -0.1231
    116  CA        17.9710   14.6960  -10.0960 C.3   109  LEU109      0.1693
    117  C         16.5020   14.2750  -10.0270 C.2   109  LEU109      0.2593
    118  O         15.9120   14.3450   -8.9530 O.2   109  LEU109     -0.2718
    119  CB        18.1350   15.9930   -9.2900 C.3   109  LEU109      0.0284
    120  CG        19.5790   16.5540   -9.3390 C.3   109  LEU109      0.0019
    121  CD1       19.6860   17.8300   -8.5410 C.3   109  LEU109      0.0001
    122  CD2       20.6100   15.5000   -8.8500 C.3   109  LEU109      0.0001
    123  N         15.9120   13.8450  -11.1480 N.am  110  THR110     -0.1939
    124  CA        14.4650   13.6650  -11.1800 C.3   110  THR110      0.2028
    125  C         13.9880   12.3820  -10.4630 C.2   110  THR110      0.2643
    126  O         12.8470   12.3320  -10.0220 O.2   110  THR110     -0.2714
    127  CB        13.9430   13.6710  -12.6620 C.3   110  THR110      0.1808
    128  OG1       14.5630   12.6110  -13.4080 O.3   110  THR110     -0.2208
    129  CG2       14.2970   15.0230  -13.3140 C.3   110  THR110      0.0379
    130  N         14.8580   11.3790  -10.3370 N.am  111  GLY111     -0.1939
    131  CA        14.5270   10.2020   -9.5380 C.3   111  GLY111      0.2014
    132  C         13.3840    9.4020  -10.1400 C.2   111  GLY111      0.2639
    133  O         13.2240    9.3380  -11.3750 O.2   111  GLY111     -0.2714
    134  N         12.5890    8.7780   -9.2700 N.am  112  LEU112     -0.1963
    135  CA        11.5010    7.8930   -9.7180 C.3   112  LEU112      0.1728
    136  C         10.4610    8.5490  -10.6300 C.2   112  LEU112      0.2617
    137  O          9.8840    9.6110  -10.3180 O.2   112  LEU112     -0.2715
    138  CB        10.7670    7.3210   -8.4920 C.3   112  LEU112      0.0311
    139  CG        11.6780    6.4460   -7.6360 C.3   112  LEU112      0.0022
    140  CD1       10.8560    6.0430   -6.3870 C.3   112  LEU112      0.0001
    141  CD2       12.2470    5.2140   -8.3970 C.3   112  LEU112      0.0001
    142  N         10.1690    7.8900  -11.7480 N.am  113  GLY113     -0.1940
    143  CA         9.1920    8.4150  -12.6670 C.3   113  GLY113      0.2014
    144  C          9.6540    9.6810  -13.3780 C.2   113  GLY113      0.2639
    145  O          8.8490   10.4300  -13.9120 O.2   113  GLY113     -0.2714
    146  N         10.9620    9.8650  -13.4340 N.am  114  GLY114     -0.1939
    147  CA        11.5320   11.1070  -13.9490 C.3   114  GLY114      0.2014
    148  C         11.7940   11.1730  -15.4290 C.2   114  GLY114      0.2639
    149  O         11.0080   10.6670  -16.2510 O.2   114  GLY114     -0.2714
    150  N         12.9000   11.8170  -15.7780 N.am  115  ILE115     -0.1963
    151  CA        13.2310   12.0910  -17.1890 C.3   115  ILE115      0.1727
    152  C         13.5210   10.7950  -17.9580 C.2   115  ILE115      0.2616
    153  O         14.0710    9.8360  -17.4070 O.2   115  ILE115     -0.2715
    154  CB        14.4630   13.0430  -17.3110 C.3   115  ILE115      0.0290
    155  CG1       14.5950   13.6280  -18.7330 C.3   115  ILE115      0.0022
    156  CG2       15.7360   12.3380  -16.9620 C.3   115  ILE115      0.0023
    157  CD1       14.0150   14.9890  -18.9040 C.3   115  ILE115      0.0001
    158  N         13.1300   10.7780  -19.2320 N.am  116  GLU116     -0.1977
    159  CA        13.2330    9.5870  -20.0790 C.3   116  GLU116      0.1602
    160  C         14.6280    9.3390  -20.6230 C.2   116  GLU116      0.2287
    161  O         15.2740   10.2660  -21.1230 O.2   116  GLU116     -0.2864
    162  CB        12.2560    9.7080  -21.2450 C.3   116  GLU116      0.0415
    163  CG        10.7960    9.7210  -20.8560 C.3   116  GLU116      0.1163
    164  CD        10.3520    8.4170  -20.2140 C.2   116  GLU116      0.3649
    165  OE1       11.0070    7.3700  -20.4380 O.co2 116  GLU116     -0.2457
    166  OE2        9.3450    8.4410  -19.4760 O.co2 116  GLU116     -0.2457
    167  N         21.1910   10.9820  -10.1210 N.3   131  GLU131     -0.1245
    168  CA        20.9590   10.6280   -8.7330 C.3   131  GLU131      0.1567
    169  C         20.1650    9.3270   -8.6600 C.2   131  GLU131      0.2260
    170  O         19.0490    9.2770   -9.1680 O.2   131  GLU131     -0.2867
    171  CB        20.2220   11.7410   -7.9890 C.3   131  GLU131      0.0388
    172  CG        20.1380   11.3410   -6.4900 C.3   131  GLU131      0.1160
    173  CD        19.6160   12.4380   -5.5880 C.2   131  GLU131      0.3649
    174  OE1       18.9250   13.3960   -6.0520 O.co2 131  GLU131     -0.2457
    175  OE2       19.8630   12.3160   -4.3740 O.co2 131  GLU131     -0.2457
    176  N         17.7030    7.0990   -6.9340 N.3   133  PRO133     -0.2116
    177  CA        16.7270    7.4180   -5.8910 C.3   133  PRO133      0.1372
    178  C         16.5830    6.3030   -4.8640 C.2   133  PRO133      0.2244
    179  O         15.8670    6.5170   -3.8680 O.2   133  PRO133     -0.2868
    180  CB        15.4300    7.6150   -6.6690 C.3   133  PRO133      0.0268
    181  CG        15.6120    6.6420   -7.8630 C.3   133  PRO133      0.0207
    182  CD        17.0750    6.6560   -8.1880 C.3   133  PRO133      0.0892
    183  N         15.9930   10.1820   -1.2630 N.3   176  GLY176     -0.1210
    184  CA        15.3840   11.4960   -1.3890 C.3   176  GLY176      0.1956
    185  C         15.6930   12.4250   -0.2130 C.2   176  GLY176      0.2613
    186  O         15.6960   11.9970    0.9510 O.2   176  GLY176     -0.2717
    187  N         15.9670   13.6950   -0.5120 N.am  177  THR177     -0.1938
    188  CA        16.3120   14.6590    0.5080 C.3   177  THR177      0.2028
    189  C         15.2110   14.7310    1.5900 C.2   177  THR177      0.2642
    190  O         15.4790   14.7120    2.8020 O.2   177  THR177     -0.2714
    191  CB        16.5280   16.0460   -0.1090 C.3   177  THR177      0.1808
    192  OG1       17.3840   15.9160   -1.2560 O.3   177  THR177     -0.2208
    193  CG2       17.1680   16.9880    0.9110 C.3   177  THR177      0.0379
    194  N         13.9610   14.7580    1.1490 N.am  178  MET178     -0.1976
    195  CA        12.8350   14.7920    2.1200 C.3   178  MET178      0.1605
    196  C         12.7050   13.4850    2.9380 C.2   178  MET178      0.2287
    197  O         12.5000   13.5130    4.1650 O.2   178  MET178     -0.2864
    198  CB        11.5080   15.0730    1.3970 C.3   178  MET178      0.0413
    199  CG        10.3190   15.2480    2.3480 C.3   178  MET178      0.0598
    200  SD        10.5500   16.5520    3.5630 S.3   178  MET178     -0.1393
    201  CE        10.5130   17.9980    2.5170 C.3   178  MET178      0.0692
    202  N          3.4280   20.3110   -4.5650 N.3   213  PHE213     -0.1241
    203  CA         3.0020   19.6650   -5.7890 C.3   213  PHE213      0.1605
    204  C          1.4980   19.7520   -5.9560 C.2   213  PHE213      0.2264
    205  O          1.0280   19.6790   -7.0920 O.2   213  PHE213     -0.2867
    206  CB         3.4990   18.2090   -5.8580 C.3   213  PHE213      0.0534
    207  CG         4.9850   18.0910   -6.1030 C.ar  213  PHE213     -0.0203
    208  CD1        5.5050   18.0690   -7.4050 C.ar  213  PHE213     -0.0042
    209  CD2        5.8600   18.0280   -5.0470 C.ar  213  PHE213     -0.0042
    210  CE1        6.8650   17.9530   -7.6130 C.ar  213  PHE213     -0.0003
    211  CE2        7.2060   17.9440   -5.2500 C.ar  213  PHE213     -0.0003
    212  CZ         7.7180   17.8990   -6.5250 C.ar  213  PHE213     -0.0000
@<TRIPOS>BOND
     1   110   109    2
     2   109   108    1
     3   162   163    1
     4   162   159    1
     5   161   160    2
     6   163   164    1
     7   160   159    1
     8   165   164   ar
     9   113   112    1
    10   112   114    1
    11   112   111    1
    12   164   166   ar
    13   159   158    1
    14   108   111    1
    15   108   107    1
    16    20    18   ar
    17    20    19   ar
    18   158   152   am
    19   157   155    1
    20    18    16   ar
    21   155   154    1
    22    19    17   ar
    23    72    70    1
    24    71    70    1
    25   152   153    2
    26   152   151    1
    27    16    15   ar
    28   154   151    1
    29   154   156    1
    30    17    15   ar
    31   151   150    1
    32    70    67    1
    33    88    86    1
    34    86    85    1
    35    15    14    1
    36   149   148    2
    37    76    75    2
    38    84    83    2
    39    67    66    1
    40    67    68    1
    41    82    85    1
    42    82    83    1
    43    82    81    1
    44   150   148   am
    45    85    87    1
    46   148   147    1
    47    83    89   am
    48    75    81   am
    49    75    74    1
    50    14    11    1
    51    73    68   am
    52    73    74    1
    53    68    69    2
    54    74    77    1
    55    11    10    1
    56    11    12    1
    57    89    90    1
    58   147   146    1
    59   145   144    2
    60    91    90    1
    61    91    92    2
    62    90    93    1
    63   146   144   am
    64   128   127    1
    65   144   143    1
    66   129   127    1
    67    77    78    1
    68    12    21   am
    69    12    13    2
    70   143   142    1
    71   127   124    1
    72    21    22    1
    73    95    97   ar
    74    95    94   ar
    75    97    98   ar
    76    79    78   ar
    77    93    94    1
    78    78    80   ar
    79    94    96   ar
    80   142   136   am
    81   115   116    1
    82    98    96   ar
    83   133   132    2
    84    22    23    1
    85   124   123    1
    86   124   125    1
    87   123   117   am
    88   136   137    2
    89   136   135    1
    90   125   130   am
    91   125   126    2
    92    31    29    1
    93   130   131    1
    94    99   100    1
    95    23    25   am
    96    23    24    2
    97   132   131    1
    98   132   134   am
    99   167   168    1
   100   116   117    1
   101   116   119    1
   102   117   118    2
   103   103   104    1
   104   103   100    1
   105    25    26    1
   106   135   134    1
   107   135   138    1
   108   101   100    1
   109   101   102    2
   110   104   105    1
   111   120   119    1
   112   120   122    1
   113   120   121    1
   114   170   169    2
   115    29    26    1
   116    29    30    1
   117    26    27    1
   118   168   169    1
   119   168   171    1
   120   138   139    1
   121   141   139    1
   122   182   181    1
   123   182   176    1
   124   171   172    1
   125   181   180    1
   126   105   106    1
   127   139   140    1
   128   210   208   ar
   129   210   212   ar
   130    27    32   am
   131    27    28    2
   132   208   207   ar
   133    32    33    1
   134   205   204    2
   135   176   177    1
   136   180   177    1
   137   212   211   ar
   138   172   173    1
   139    35    34    2
   140   207   206    1
   141   207   209   ar
   142   174   173   ar
   143   204   203    1
   144   177   178    1
   145   206   203    1
   146    33    36    1
   147    33    34    1
   148   203   202    1
   149    36    37    1
   150   173   175   ar
   151    63    65   ar
   152    63    61   ar
   153    34    44   am
   154    65    64   ar
   155    55    54    2
   156    54    53    1
   157   211   209   ar
   158    61    60   ar
   159    61    59   ar
   160    64    62   ar
   161    60    58   ar
   162   178   179    2
   163    37    39   ar
   164    37    38   ar
   165    44    45    1
   166    59    62   ar
   167    59    57   ar
   168    58    57   ar
   169    39    41   ar
   170    52    53    1
   171    52    46   am
   172    53    56    1
   173    57    56    1
   174     4     3    2
   175    38    40   ar
   176    45    46    1
   177    45    48    1
   178    46    47    2
   179    41    42   ar
   180     3     2    1
   181    40    42   ar
   182     5     2    1
   183     5     6    1
   184    42    43    1
   185    48    49    1
   186     7     6    1
   187     7     8    1
   188     9     8    1
   189     2     1    1
   190   184   183    1
   191   184   185    1
   192   192   191    1
   193    50    49    1
   194    49    51    1
   195   187   185   am
   196   187   188    1
   197   185   186    2
   198   191   188    1
   199   191   193    1
   200   188   189    1
   201   194   189   am
   202   194   195    1
   203   198   195    1
   204   198   199    1
   205   189   190    2
   206   195   196    1
   207   199   200    1
   208   201   200    1
   209   196   197    2
