@<TRIPOS>MOLECULE
tmp/5d4vC01.pdb
 95 91 0 0 0
SMALL
GASTEIGER

@<TRIPOS>ATOM
      1  N         12.7370   -0.7090   -6.2760 N.3   142  TYR142     -0.1241
      2  CA        13.8330   -1.1500   -7.1460 C.3   142  TYR142      0.1605
      3  C         13.3270   -1.3500   -8.5870 C.2   142  TYR142      0.2264
      4  O         13.9940   -0.9300   -9.5490 O.2   142  TYR142     -0.2867
      5  CB        14.4430   -2.4430   -6.5890 C.3   142  TYR142      0.0534
      6  CG        15.6830   -2.9170   -7.2980 C.ar  142  TYR142     -0.0201
      7  CD1       15.6280   -3.6790   -8.4710 C.ar  142  TYR142     -0.0009
      8  CD2       16.9440   -2.6390   -6.7360 C.ar  142  TYR142     -0.0009
      9  CE1       16.8200   -4.1110   -9.0960 C.ar  142  TYR142      0.0417
     10  CE2       18.1200   -3.0650   -7.3330 C.ar  142  TYR142      0.0417
     11  CZ        18.0500   -3.7840   -8.5180 C.ar  142  TYR142      0.1957
     12  OH        19.2210   -4.2330   -9.1160 O.3   142  TYR142     -0.2866
     13  N         20.0700    2.9270  -14.2270 N.3   148  TYR148     -0.1227
     14  CA        21.1400    2.4460  -15.1230 C.3   148  TYR148      0.1736
     15  C         20.7130    2.3970  -16.5690 C.2   148  TYR148      0.2595
     16  O         21.5710    2.3530  -17.4550 O.2   148  TYR148     -0.2718
     17  CB        21.7070    1.0720  -14.6560 C.3   148  TYR148      0.0548
     18  CG        22.4900    1.3040  -13.3750 C.ar  148  TYR148     -0.0200
     19  CD1       23.7800    1.7960  -13.4030 C.ar  148  TYR148     -0.0009
     20  CD2       21.8990    1.0940  -12.1470 C.ar  148  TYR148     -0.0009
     21  CE1       24.4760    2.0600  -12.2300 C.ar  148  TYR148      0.0417
     22  CE2       22.5770    1.3630  -10.9720 C.ar  148  TYR148      0.0417
     23  CZ        23.8560    1.8480  -11.0180 C.ar  148  TYR148      0.1957
     24  OH        24.5190    2.0780   -9.8350 O.3   148  TYR148     -0.2866
     25  N         19.4130    2.5000  -16.8350 N.am  149  LYS149     -0.1980
     26  CA        18.9990    2.6720  -18.2170 C.3   149  LYS149      0.1596
     27  C         19.2760    4.1150  -18.6350 C.2   149  LYS149      0.2287
     28  O         19.5130    4.3870  -19.8120 O.2   149  LYS149     -0.2864
     29  CB        17.5160    2.3410  -18.4200 C.3   149  LYS149      0.0298
     30  CG        17.1700    0.8630  -18.1510 C.3   149  LYS149      0.0038
     31  CD        18.1590   -0.1000  -18.8100 C.3   149  LYS149      0.0206
     32  CE        18.5190   -1.2450  -17.8460 C.3   149  LYS149      0.1093
     33  NZ        19.9860   -1.5150  -17.7440 N.3   149  LYS149     -0.1314
     34  N         21.9530    5.8750  -17.6780 N.3   151  THR151     -0.1203
     35  CA        23.3960    6.0240  -17.9130 C.3   151  THR151      0.1994
     36  C         23.8290    5.3670  -19.2120 C.2   151  THR151      0.2618
     37  O         24.8570    5.7200  -19.7770 O.2   151  THR151     -0.2717
     38  CB        24.2260    5.4290  -16.7590 C.3   151  THR151      0.1784
     39  OG1       23.8350    4.0640  -16.5800 O.3   151  THR151     -0.2211
     40  CG2       23.9670    6.1600  -15.4670 C.3   151  THR151      0.0376
     41  N         23.0410    4.4010  -19.6740 N.am  152  ALA152     -0.1966
     42  CA        23.4210    3.5910  -20.8180 C.3   152  ALA152      0.1713
     43  C         23.8150    4.3640  -22.0950 C.2   152  ALA152      0.2458
     44  O         24.8240    4.0430  -22.7000 O.2   152  ALA152     -0.2730
     45  CB        22.2780    2.5810  -21.1390 C.3   152  ALA152      0.0333
     46  N         23.0530    5.3990  -22.4950 N.am  153  PRO153     -0.2727
     47  CA        23.5350    6.0720  -23.7080 C.3   153  PRO153      0.1402
     48  C         24.8780    6.8130  -23.5390 C.2   153  PRO153      0.2269
     49  O         25.4430    7.2240  -24.5440 O.2   153  PRO153     -0.2865
     50  CB        22.4070    7.0670  -24.0370 C.3   153  PRO153      0.0296
     51  CG        21.6190    7.2180  -22.7990 C.3   153  PRO153      0.0237
     52  CD        21.7630    5.9410  -22.0290 C.3   153  PRO153      0.0939
     53  N         27.7860    5.7900  -21.3170 N.3   155  ILE155     -0.1231
     54  CA        28.9350    5.0400  -20.8130 C.3   155  ILE155      0.1692
     55  C         30.1680    5.0440  -21.7020 C.2   155  ILE155      0.2591
     56  O         31.2910    5.0700  -21.2410 O.2   155  ILE155     -0.2718
     57  CB        28.5290    3.5770  -20.5880 C.3   155  ILE155      0.0266
     58  CG1       27.4590    3.5200  -19.5160 C.3   155  ILE155      0.0019
     59  CG2       29.7120    2.7310  -20.1380 C.3   155  ILE155      0.0020
     60  CD1       27.9770    4.0390  -18.2470 C.3   155  ILE155      0.0001
     61  N         29.9090    5.0530  -22.9860 N.am  156  GLU156     -0.1979
     62  CA        30.8760    4.9060  -24.0340 C.3   156  GLU156      0.1602
     63  C         31.7200    6.1200  -24.2640 C.2   156  GLU156      0.2287
     64  O         32.9200    6.0020  -24.4400 O.2   156  GLU156     -0.2864
     65  CB        30.0880    4.6090  -25.2830 C.3   156  GLU156      0.0415
     66  CG        29.2070    3.4070  -25.0770 C.3   156  GLU156      0.1163
     67  CD        29.2820    2.4320  -26.1710 C.2   156  GLU156      0.3649
     68  OE1       29.2520    2.9420  -27.2830 O.co2 156  GLU156     -0.2457
     69  OE2       29.3820    1.1940  -25.9410 O.co2 156  GLU156     -0.2457
     70  N         24.8570    8.0920   -4.8880 N.3   164  LYS164     -0.1245
     71  CA        24.1440    7.2760   -3.9090 C.3   164  LYS164      0.1561
     72  C         24.2020    7.9630   -2.5540 C.2   164  LYS164      0.2260
     73  O         25.2590    8.4570   -2.1550 O.2   164  LYS164     -0.2867
     74  CB        24.7180    5.8760   -3.8300 C.3   164  LYS164      0.0271
     75  CG        24.4910    5.1390   -5.1570 C.3   164  LYS164      0.0035
     76  CD        25.1170    3.7840   -5.1760 C.3   164  LYS164      0.0206
     77  CE        25.0460    3.1760   -6.5690 C.3   164  LYS164      0.1093
     78  NZ        23.7110    2.6430   -6.9230 N.3   164  LYS164     -0.1314
     79  N         29.4940    6.9950   -7.5740 N.3   258  GLU258     -0.1245
     80  CA        30.0650    5.8290   -8.2380 C.3   258  GLU258      0.1567
     81  C         30.3880    6.1370   -9.6940 C.2   258  GLU258      0.2260
     82  O         29.4750    6.4690  -10.4330 O.2   258  GLU258     -0.2867
     83  CB        29.0220    4.7160   -8.1590 C.3   258  GLU258      0.0388
     84  CG        29.1510    3.5920   -9.1450 C.3   258  GLU258      0.1160
     85  CD        27.8510    2.7640   -9.2670 C.2   258  GLU258      0.3649
     86  OE1       26.7500    3.3460   -9.1450 O.co2 258  GLU258     -0.2457
     87  OE2       27.9210    1.5420   -9.5200 O.co2 258  GLU258     -0.2457
     88  N         31.0310    5.0200  -13.4000 N.3   260  LEU260     -0.1245
     89  CA        30.7640    3.8290  -14.2060 C.3   260  LEU260      0.1561
     90  C         31.7660    3.6710  -15.3360 C.2   260  LEU260      0.2260
     91  O         31.7790    2.6440  -16.0130 O.2   260  LEU260     -0.2867
     92  CB        29.3500    3.8600  -14.7880 C.3   260  LEU260      0.0270
     93  CG        28.1830    3.9150  -13.8120 C.3   260  LEU260      0.0019
     94  CD1       26.8920    3.7910  -14.5960 C.3   260  LEU260      0.0001
     95  CD2       28.3240    2.7980  -12.7950 C.3   260  LEU260      0.0001
@<TRIPOS>BOND
     1    68    67   ar
     2    67    69   ar
     3    67    66    1
     4    65    66    1
     5    65    62    1
     6    49    48    2
     7    64    63    2
     8    63    62    1
     9    50    47    1
    10    50    51    1
    11    62    61    1
    12    47    48    1
    13    47    46    1
    14    61    55   am
    15    51    52    1
    16    44    43    2
    17    46    43   am
    18    46    52    1
    19    43    42    1
    20    55    56    2
    21    55    54    1
    22    53    54    1
    23    45    42    1
    24    42    41    1
    25    54    57    1
    26    57    59    1
    27    57    58    1
    28    28    27    2
    29    37    36    2
    30    41    36   am
    31    58    60    1
    32    36    35    1
    33    31    30    1
    34    31    32    1
    35    27    26    1
    36    29    26    1
    37    29    30    1
    38    26    25    1
    39    35    34    1
    40    35    38    1
    41    32    33    1
    42    16    15    2
    43    25    15   am
    44    38    39    1
    45    38    40    1
    46    15    14    1
    47    91    90    2
    48    90    89    1
    49    14    17    1
    50    14    13    1
    51    92    89    1
    52    92    93    1
    53    17    18    1
    54    94    93    1
    55    89    88    1
    56    93    95    1
    57    19    18   ar
    58    19    21   ar
    59    18    20   ar
    60    21    23   ar
    61    20    22   ar
    62    23    22   ar
    63    23    24    1
    64    82    81    2
    65    81    80    1
    66     4     3    2
    67    87    85   ar
    68    85    86   ar
    69    85    84    1
    70    84    83    1
    71    12    11    1
    72     9    11   ar
    73     9     7   ar
    74     3     2    1
    75    11    10   ar
    76     7     6   ar
    77    80    83    1
    78    80    79    1
    79    10     8   ar
    80     6     8   ar
    81     6     5    1
    82     2     5    1
    83     2     1    1
    84    78    77    1
    85    77    76    1
    86    76    75    1
    87    75    74    1
    88    70    71    1
    89    71    74    1
    90    71    72    1
    91    72    73    2
