@<TRIPOS>MOLECULE
tmp/5d4wA00.pdb
 159 153 0 0 0
SMALL
GASTEIGER

@<TRIPOS>ATOM
      1  N        126.0150   19.4040  100.4750 N.3    23  VAL23      -0.1231
      2  CA       125.9850   20.8290  100.1920 C.3    23  VAL23       0.1692
      3  C        125.8350   21.5650  101.5180 C.2    23  VAL23       0.2592
      4  O        125.0050   21.2010  102.3620 O.2    23  VAL23      -0.2718
      5  CB       124.8670   21.1490   99.1860 C.3    23  VAL23       0.0266
      6  CG1      124.2700   19.8440   98.6840 C.3    23  VAL23       0.0020
      7  CG2      123.8060   22.0670   99.7650 C.3    23  VAL23       0.0020
      8  N        126.6970   22.5530  101.7390 N.am   24  ILE24      -0.1966
      9  CA       126.9520   23.0410  103.0880 C.3    24  ILE24       0.1727
     10  C        126.2250   24.3560  103.3310 C.2    24  ILE24       0.2617
     11  O        125.3570   24.4410  104.2070 O.2    24  ILE24      -0.2715
     12  CB       128.4660   23.1670  103.3540 C.3    24  ILE24       0.0290
     13  CG1      128.7100   23.8440  104.7040 C.3    24  ILE24       0.0022
     14  CG2      129.1970   23.8660  102.1990 C.3    24  ILE24       0.0023
     15  CD1      128.0520   23.1250  105.8670 C.3    24  ILE24       0.0001
     16  N        126.5590   25.3830  102.5570 N.am   25  GLY25      -0.1940
     17  CA       125.9340   26.6700  102.7470 C.3    25  GLY25       0.2014
     18  C        124.5700   26.6930  102.1040 C.2    25  GLY25       0.2638
     19  O        123.7950   25.7470  102.2660 O.2    25  GLY25      -0.2714
     20  N        124.2610   27.7650  101.3850 N.am   26  ARG26      -0.1977
     21  CA       123.0080   27.9180  100.6560 C.3    26  ARG26       0.1597
     22  C        121.7830   27.9490  101.5740 C.2    26  ARG26       0.2287
     23  O        120.6570   27.8000  101.0890 O.2    26  ARG26      -0.2864
     24  CB       122.8370   26.8040   99.6100 C.3    26  ARG26       0.0334
     25  CG       123.7710   26.8920   98.4170 C.3    26  ARG26       0.0492
     26  CD       123.9580   28.3070   97.9350 C.3    26  ARG26       0.2205
     27  NE       124.3440   28.3210   96.5310 N.pl3  26  ARG26      -0.0865
     28  CZ       124.4530   29.4230   95.8010 C.cat  26  ARG26       0.5346
     29  NH1      124.2040   30.6050   96.3480 N.pl3  26  ARG26       0.1354
     30  NH2      124.8080   29.3420   94.5260 N.pl3  26  ARG26       0.1354
     31  N        122.1560   29.6500   86.7070 N.3    50  GLU50      -0.1231
     32  CA       123.2010   29.2030   85.8060 C.3    50  GLU50       0.1684
     33  C        123.6020   27.7560   86.1030 C.2    50  GLU50       0.2434
     34  O        123.3820   27.2510   87.2080 O.2    50  GLU50      -0.2733
     35  CB       124.4030   30.1390   85.9260 C.3    50  GLU50       0.0402
     36  CG       124.0130   31.6090   86.0950 C.3    50  GLU50       0.1161
     37  CD       125.2100   32.5300   86.2660 C.2    50  GLU50       0.3649
     38  OE1      125.0060   33.7400   86.5090 O.co2  50  GLU50      -0.2457
     39  OE2      126.3540   32.0390   86.1860 O.co2  50  GLU50      -0.2457
     40  N        124.1750   27.0540   85.1100 N.am   51  PRO51      -0.2718
     41  CA       124.5450   25.6430   85.3050 C.3    51  PRO51       0.1535
     42  C        125.7960   25.4610   86.1550 C.2    51  PRO51       0.2599
     43  O        126.9190   25.3950   85.6390 O.2    51  PRO51      -0.2715
     44  CB       124.7660   25.1380   83.8740 C.3    51  PRO51       0.0310
     45  CG       125.1520   26.3570   83.1080 C.3    51  PRO51       0.0237
     46  CD       124.3520   27.4800   83.7090 C.3    51  PRO51       0.0939
     47  N        125.6040   25.3880   87.4670 N.am   52  GLY52      -0.1941
     48  CA       126.6930   25.0910   88.3710 C.3    52  GLY52       0.2014
     49  C        126.5600   25.8140   89.6930 C.2    52  GLY52       0.2639
     50  O        127.2150   25.4480   90.6720 O.2    52  GLY52      -0.2714
     51  N        125.6930   26.8300   89.7370 N.am   53  VAL53      -0.1963
     52  CA       125.4440   27.5780   90.9660 C.3    53  VAL53       0.1727
     53  C        125.0020   26.6770   92.1040 C.2    53  VAL53       0.2617
     54  O        125.1020   27.0570   93.2760 O.2    53  VAL53      -0.2715
     55  CB       124.3750   28.6600   90.7130 C.3    53  VAL53       0.0290
     56  CG1      124.7330   29.4600   89.4870 C.3    53  VAL53       0.0023
     57  CG2      122.9920   28.0310   90.5630 C.3    53  VAL53       0.0023
     58  N        124.4960   25.4970   91.7840 N.am   54  GLY54      -0.1940
     59  CA       124.0240   24.5710   92.7730 C.3    54  GLY54       0.2014
     60  C        122.5250   24.4710   92.8650 C.2    54  GLY54       0.2639
     61  O        122.0200   24.0850   93.9200 O.2    54  GLY54      -0.2714
     62  N        121.8020   24.7480   91.7820 N.am   55  LYS55      -0.1963
     63  CA       120.3500   24.6520   91.7910 C.3    55  LYS55       0.1728
     64  C        119.8600   23.2120   91.6750 C.2    55  LYS55       0.2617
     65  O        118.6480   22.9750   91.7440 O.2    55  LYS55      -0.2715
     66  CB       119.7860   25.5350   90.6700 C.3    55  LYS55       0.0311
     67  CG       119.5930   24.8200   89.3550 C.3    55  LYS55       0.0038
     68  CD       119.4450   25.8000   88.2190 C.3    55  LYS55       0.0206
     69  CE       119.3120   25.0620   86.9110 C.3    55  LYS55       0.1093
     70  NZ       120.4160   24.0750   86.7660 N.3    55  LYS55      -0.1314
     71  N        120.7730   22.2500   91.5160 N.am   56  THR56      -0.1937
     72  CA       120.5380   20.8510   91.8590 C.3    56  THR56       0.2028
     73  C        121.1800   20.4930   93.1890 C.2    56  THR56       0.2642
     74  O        120.6080   19.7380   93.9770 O.2    56  THR56      -0.2714
     75  CB       121.0910   19.9190   90.7690 C.3    56  THR56       0.1808
     76  OG1      120.5070   20.2450   89.5010 O.3    56  THR56      -0.2208
     77  CG2      120.7830   18.4600   91.0890 C.3    56  THR56       0.0379
     78  N        122.3580   21.0560   93.4560 N.am   57  THR57      -0.1950
     79  CA       122.9570   20.9650   94.7800 C.3    57  THR57       0.1897
     80  C        122.0430   21.5590   95.8470 C.2    57  THR57       0.2313
     81  O        122.0290   21.0780   96.9840 O.2    57  THR57      -0.2863
     82  CB       124.3220   21.6490   94.7610 C.3    57  THR57       0.1794
     83  OG1      124.8390   21.6100   93.4260 O.3    57  THR57      -0.2208
     84  CG2      125.2970   20.9240   95.6480 C.3    57  THR57       0.0378
     85  N        119.8610   19.0720   96.5310 N.3    60  GLU60      -0.1245
     86  CA       120.6800   17.9890   97.0640 C.3    60  GLU60       0.1567
     87  C        120.9530   18.1970   98.5450 C.2    60  GLU60       0.2260
     88  O        120.9700   17.2350   99.3200 O.2    60  GLU60      -0.2867
     89  CB       121.9890   17.8640   96.2800 C.3    60  GLU60       0.0388
     90  CG       121.8470   17.0930   94.9690 C.3    60  GLU60       0.1160
     91  CD       123.0700   17.1750   94.0750 C.2    60  GLU60       0.3649
     92  OE1      122.9250   16.9820   92.8490 O.co2  60  GLU60      -0.2457
     93  OE2      124.1790   17.4000   94.6020 O.co2  60  GLU60      -0.2457
     94  N        114.7190   18.9430   86.1330 N.3   120  ASP120     -0.1239
     95  CA       115.8380   19.6430   85.5200 C.3   120  ASP120      0.1674
     96  C        115.4630   20.1080   84.1130 C.2   120  ASP120      0.2266
     97  O        114.8580   19.3510   83.3460 O.2   120  ASP120     -0.2867
     98  CB       117.0630   18.7270   85.4800 C.3   120  ASP120      0.1410
     99  CG       118.3520   19.4910   85.3080 C.2   120  ASP120      0.3668
    100  OD1      118.8560   20.0290   86.3180 O.co2 120  ASP120     -0.2456
    101  OD2      118.8590   19.5540   84.1680 O.co2 120  ASP120     -0.2456
    102  N        131.6230   27.9230  100.1770 N.3   182  ILE182     -0.1231
    103  CA       130.8940   26.6970   99.8710 C.3   182  ILE182      0.1692
    104  C        131.8240   25.6130   99.3190 C.2   182  ILE182      0.2591
    105  O        131.5190   24.4190   99.4460 O.2   182  ILE182     -0.2718
    106  CB       129.7250   27.0440   98.9260 C.3   182  ILE182      0.0266
    107  CG1      128.4020   27.1170   99.7020 C.3   182  ILE182      0.0019
    108  CG2      129.6480   26.0970   97.7370 C.3   182  ILE182      0.0020
    109  CD1      128.2730   28.3470  100.5770 C.3   182  ILE182      0.0001
    110  N        132.9780   26.0000   98.7530 N.am  183  LEU183     -0.1980
    111  CA       134.0020   25.0590   98.3040 C.3   183  LEU183      0.1596
    112  C        134.8430   24.5290   99.4500 C.2   183  LEU183      0.2287
    113  O        135.4960   23.4920   99.2940 O.2   183  LEU183     -0.2864
    114  CB       134.9400   25.7410   97.3020 C.3   183  LEU183      0.0297
    115  CG       135.7580   24.9860   96.2640 C.3   183  LEU183      0.0022
    116  CD1      134.8730   24.0400   95.4920 C.3   183  LEU183      0.0001
    117  CD2      136.4310   25.9850   95.3360 C.3   183  LEU183      0.0001
    118  N        132.7980   21.3180  100.5250 N.3   186  LEU186     -0.1245
    119  CA       132.8130   20.2330   99.5520 C.3   186  LEU186      0.1561
    120  C        134.2120   19.8620   99.0780 C.2   186  LEU186      0.2260
    121  O        134.3430   19.1050   98.1140 O.2   186  LEU186     -0.2867
    122  CB       131.9220   20.5700   98.3540 C.3   186  LEU186      0.0270
    123  CG       130.4870   20.0580   98.5200 C.3   186  LEU186      0.0019
    124  CD1      129.8070   19.8840   97.1740 C.3   186  LEU186      0.0001
    125  CD2      130.4710   18.7540   99.3000 C.3   186  LEU186      0.0001
    126  N        135.5950   15.8790   97.2330 N.3   190  TYR190     -0.1241
    127  CA       136.2870   15.9590   95.9490 C.3   190  TYR190      0.1605
    128  C        137.7790   15.6490   96.0340 C.2   190  TYR190      0.2264
    129  O        138.4230   15.5040   94.9880 O.2   190  TYR190     -0.2867
    130  CB       136.1050   17.3530   95.3300 C.3   190  TYR190      0.0534
    131  CG       134.7460   17.6100   94.7070 C.ar  190  TYR190     -0.0201
    132  CD1      133.6840   18.0840   95.4670 C.ar  190  TYR190     -0.0009
    133  CD2      134.5340   17.4020   93.3520 C.ar  190  TYR190     -0.0009
    134  CE1      132.4460   18.3320   94.8980 C.ar  190  TYR190      0.0417
    135  CE2      133.3000   17.6420   92.7750 C.ar  190  TYR190      0.0417
    136  CZ       132.2590   18.1070   93.5510 C.ar  190  TYR190      0.1957
    137  OH       131.0330   18.3480   92.9740 O.3   190  TYR190     -0.2866
    138  N        131.2270   27.9820   90.3870 N.3   220  PRO220     -0.2102
    139  CA       130.9480   26.8540   91.2960 C.3   220  PRO220      0.1504
    140  C        131.0920   25.4920   90.6430 C.2   220  PRO220      0.2575
    141  O        131.3020   24.5030   91.3570 O.2   220  PRO220     -0.2718
    142  CB       129.5010   27.1010   91.7500 C.3   220  PRO220      0.0282
    143  CG       129.0230   28.3130   91.0050 C.3   220  PRO220      0.0208
    144  CD       129.9800   28.6030   89.9070 C.3   220  PRO220      0.0893
    145  N        130.9870   25.4040   89.3190 N.am  221  ASP221     -0.1974
    146  CA       131.2600   24.1690   88.6050 C.3   221  ASP221      0.1708
    147  C        132.5480   24.2120   87.7970 C.2   221  ASP221      0.2293
    148  O        132.9570   23.1710   87.2720 O.2   221  ASP221     -0.2864
    149  CB       130.0920   23.8160   87.6720 C.3   221  ASP221      0.1436
    150  CG       129.6940   22.3580   87.7670 C.2   221  ASP221      0.3671
    151  OD1      129.1640   21.8270   86.7680 O.co2 221  ASP221     -0.2456
    152  OD2      129.9180   21.7420   88.8310 O.co2 221  ASP221     -0.2456
    153  N        135.1900   23.3720   90.8320 N.3   224  VAL224     -0.1245
    154  CA       135.2040   21.9340   91.1000 C.3   224  VAL224      0.1561
    155  C        135.6660   21.1410   89.8810 C.2   224  VAL224      0.2260
    156  O        136.2670   20.0720   90.0280 O.2   224  VAL224     -0.2867
    157  CB       133.8180   21.4530   91.5740 C.3   224  VAL224      0.0252
    158  CG1      133.3350   22.2690   92.7630 C.3   224  VAL224      0.0019
    159  CG2      132.7990   21.5040   90.4390 C.3   224  VAL224      0.0019
@<TRIPOS>BOND
     1    45    46    1
     2    45    44    1
     3    97    96    2
     4    46    40    1
     5    44    41    1
     6    96    95    1
     7   101    99   ar
     8    40    41    1
     9    40    33   am
    10    41    42    1
    11    99    98    1
    12    99   100   ar
    13    98    95    1
    14    95    94    1
    15    43    42    2
    16    32    35    1
    17    32    33    1
    18    32    31    1
    19    35    36    1
    20    36    37    1
    21    33    34    2
    22    42    47   am
    23    39    37   ar
    24    37    38   ar
    25    70    69    1
    26   151   150   ar
    27    69    68    1
    28   148   147    2
    29    47    48    1
    30   149   150    1
    31   149   146    1
    32   150   152   ar
    33   147   146    1
    34    68    67    1
    35    48    49    1
    36   146   145    1
    37   145   140   am
    38    67    66    1
    39    56    55    1
    40    76    75    1
    41    49    51   am
    42    49    50    2
    43    51    52    1
    44   155   156    2
    45   155   154    1
    46   144   138    1
    47   144   143    1
    48   138   139    1
    49   159   157    1
    50    57    55    1
    51   140   139    1
    52   140   141    2
    53    66    63    1
    54    55    52    1
    55    75    77    1
    56    75    72    1
    57   153   154    1
    58    52    53    1
    59   143   142    1
    60   154   157    1
    61   139   142    1
    62    71    64   am
    63    71    72    1
    64   157   158    1
    65    64    65    2
    66    64    63    1
    67    62    63    1
    68    62    60   am
    69    58    53   am
    70    58    59    1
    71    72    73    1
    72    53    54    2
    73    59    60    1
    74   135   133   ar
    75   135   136   ar
    76    92    91   ar
    77    60    61    2
    78   137   136    1
    79    73    78   am
    80    73    74    2
    81   133   131   ar
    82    83    82    1
    83    78    79    1
    84   136   134   ar
    85    91    93   ar
    86    91    90    1
    87    30    28    1
    88   131   130    1
    89   131   132   ar
    90    82    79    1
    91    82    84    1
    92    79    80    1
    93   134   132   ar
    94    90    89    1
    95   129   128    2
    96   130   127    1
    97   117   115    1
    98   116   115    1
    99    28    29    1
   100    28    27    2
   101    80    81    2
   102   127   128    1
   103   127   126    1
   104   115   114    1
   105    89    86    1
   106    27    26    1
   107    85    86    1
   108    86    87    1
   109   124   123    1
   110   114   111    1
   111   108   106    1
   112    26    25    1
   113   121   120    2
   114   111   110    1
   115   111   112    1
   116   122   123    1
   117   122   119    1
   118    25    24    1
   119   123   125    1
   120    87    88    2
   121     6     5    1
   122   110   104   am
   123   106   107    1
   124   106   103    1
   125   120   119    1
   126     5     7    1
   127     5     2    1
   128   113   112    2
   129   104   105    2
   130   104   103    1
   131   119   118    1
   132    24    21    1
   133   107   109    1
   134   103   102    1
   135     2     1    1
   136     2     3    1
   137    21    20    1
   138    21    22    1
   139    23    22    2
   140    20    18   am
   141     3     8   am
   142     3     4    2
   143     8     9    1
   144    18    19    2
   145    18    17    1
   146    14    12    1
   147    16    17    1
   148    16    10   am
   149     9    10    1
   150     9    12    1
   151    10    11    2
   152    12    13    1
   153    13    15    1
