@<TRIPOS>MOLECULE
tmp/5d4wA01.pdb
 159 151 0 0 0
SMALL
GASTEIGER

@<TRIPOS>ATOM
      1  N        152.9340   49.3100   74.3920 N.3   406  ILE406     -0.1231
      2  CA       152.0390   48.7620   73.3860 C.3   406  ILE406      0.1692
      3  C        151.2140   49.8530   72.7020 C.2   406  ILE406      0.2592
      4  O        150.9600   49.7720   71.4970 O.2   406  ILE406     -0.2718
      5  CB       151.1320   47.6650   73.9940 C.3   406  ILE406      0.0266
      6  CG1      150.7150   46.6640   72.9170 C.3   406  ILE406      0.0019
      7  CG2      149.9200   48.2500   74.7150 C.3   406  ILE406      0.0020
      8  CD1      151.8450   45.7740   72.4540 C.3   406  ILE406      0.0001
      9  N        150.8120   50.8940   73.4390 N.am  407  VAL407     -0.1966
     10  CA       150.0460   52.0280   72.9090 C.3   407  VAL407      0.1727
     11  C        150.8610   53.2870   73.1710 C.2   407  VAL407      0.2616
     12  O        150.9180   53.7720   74.3090 O.2   407  VAL407     -0.2715
     13  CB       148.6500   52.1390   73.5370 C.3   407  VAL407      0.0290
     14  CG1      147.9340   53.3800   73.0230 C.3   407  VAL407      0.0023
     15  CG2      147.8370   50.9060   73.2270 C.3   407  VAL407      0.0023
     16  N        151.4450   53.8500   72.1120 N.am  408  VAL408     -0.1963
     17  CA       152.5570   54.7800   72.2830 C.3   408  VAL408      0.1727
     18  C        152.0910   56.2060   72.5820 C.2   408  VAL408      0.2617
     19  O        152.7570   56.9300   73.3310 O.2   408  VAL408     -0.2715
     20  CB       153.4560   54.7350   71.0340 C.3   408  VAL408      0.0290
     21  CG1      154.6330   55.6920   71.1770 C.3   408  VAL408      0.0023
     22  CG2      153.9410   53.3080   70.7750 C.3   408  VAL408      0.0023
     23  N        150.9580   56.6340   72.0340 N.am  409  GLY409     -0.1940
     24  CA       150.4870   57.9870   72.2380 C.3   409  GLY409      0.2014
     25  C        149.7460   58.1690   73.5520 C.2   409  GLY409      0.2638
     26  O        149.7590   57.3180   74.4440 O.2   409  GLY409     -0.2714
     27  N        149.0860   59.3260   73.6580 N.am  410  GLN410     -0.1977
     28  CA       148.1690   59.6500   74.7560 C.3   410  GLN410      0.1601
     29  C        148.8650   59.5730   76.1170 C.2   410  GLN410      0.2287
     30  O        148.5330   58.7500   76.9730 O.2   410  GLN410     -0.2864
     31  CB       146.9300   58.7500   74.7090 C.3   410  GLN410      0.0394
     32  CG       146.4800   58.4040   73.3030 C.3   410  GLN410      0.0908
     33  CD       146.2530   59.6320   72.4540 C.2   410  GLN410      0.2608
     34  OE1      145.5400   60.5460   72.8550 O.2   410  GLN410     -0.2717
     35  NE2      146.8710   59.6670   71.2790 N.am  410  GLN410     -0.0878
     36  N        138.5640   61.8090   65.1330 N.3   443  SER443     -0.1202
     37  CA       137.6330   60.7540   64.7320 C.3   443  SER443      0.2020
     38  C        138.2850   59.3740   64.6320 C.2   443  SER443      0.2619
     39  O        137.5660   58.3670   64.6170 O.2   443  SER443     -0.2717
     40  CB       136.9670   61.1220   63.4050 C.3   443  SER443      0.2103
     41  OG       136.1270   62.2580   63.5540 O.3   443  SER443     -0.2182
     42  N        139.6180   59.3000   64.5630 N.am  444  GLY444     -0.1942
     43  CA       140.3260   58.0290   64.5530 C.3   444  GLY444      0.2014
     44  C        141.6490   58.0170   65.3030 C.2   444  GLY444      0.2640
     45  O        141.9790   58.9660   66.0230 O.2   444  GLY444     -0.2714
     46  N        142.4130   56.9340   65.1380 N.am  445  THR445     -0.1936
     47  CA       143.7420   56.7690   65.7320 C.3   445  THR445      0.2028
     48  C        143.7010   56.8030   67.2650 C.2   445  THR445      0.2643
     49  O        144.2670   57.6870   67.9140 O.2   445  THR445     -0.2714
     50  CB       144.7220   57.8170   65.1820 C.3   445  THR445      0.1808
     51  OG1      144.5540   57.9330   63.7640 O.3   445  THR445     -0.2208
     52  CG2      146.1640   57.4140   65.4740 C.3   445  THR445      0.0379
     53  N        143.0080   55.8200   67.8390 N.am  446  GLY446     -0.1939
     54  CA       143.2030   55.4590   69.2370 C.3   446  GLY446      0.2014
     55  C        141.9960   55.4520   70.1680 C.2   446  GLY446      0.2639
     56  O        142.1760   55.1130   71.3470 O.2   446  GLY446     -0.2714
     57  N        140.7660   55.7810   69.7570 N.am  447  LYS447     -0.1963
     58  CA       139.6670   55.7890   70.7260 C.3   447  LYS447      0.1728
     59  C        139.3370   54.3710   71.1850 C.2   447  LYS447      0.2617
     60  O        139.4050   54.0600   72.3810 O.2   447  LYS447     -0.2715
     61  CB       138.4270   56.4970   70.1620 C.3   447  LYS447      0.0311
     62  CG       138.2490   56.4720   68.6560 C.3   447  LYS447      0.0038
     63  CD       137.1490   57.4410   68.2250 C.3   447  LYS447      0.0206
     64  CE       137.2690   58.7730   68.9540 C.3   447  LYS447      0.1093
     65  NZ       136.3880   59.8090   68.3710 N.3   447  LYS447     -0.1314
     66  N        138.9910   53.4900   70.2440 N.am  448  THR448     -0.1937
     67  CA       138.8120   52.0850   70.5800 C.3   448  THR448      0.2028
     68  C        140.1490   51.3740   70.7390 C.2   448  THR448      0.2642
     69  O        140.1870   50.2620   71.2710 O.2   448  THR448     -0.2714
     70  CB       137.9640   51.3850   69.5010 C.3   448  THR448      0.1808
     71  OG1      136.8830   52.2380   69.1000 O.3   448  THR448     -0.2208
     72  CG2      137.3880   50.0620   70.0010 C.3   448  THR448      0.0379
     73  N        141.2510   51.9990   70.3120 N.am  449  LEU449     -0.1977
     74  CA       142.5460   51.3310   70.3810 C.3   449  LEU449      0.1596
     75  C        143.0120   51.2200   71.8250 C.2   449  LEU449      0.2287
     76  O        143.5840   50.2000   72.2260 O.2   449  LEU449     -0.2864
     77  CB       143.5730   52.0720   69.5260 C.3   449  LEU449      0.0297
     78  CG       144.8100   51.3070   69.0450 C.3   449  LEU449      0.0022
     79  CD1      145.8610   51.1680   70.1390 C.3   449  LEU449      0.0001
     80  CD2      144.4150   49.9420   68.5000 C.3   449  LEU449      0.0001
     81  N        132.2400   45.3370   69.6840 N.3   466  ARG466     -0.1245
     82  CA       132.5180   46.5960   69.0150 C.3   466  ARG466      0.1563
     83  C        131.3290   47.0040   68.1620 C.2   466  ARG466      0.2260
     84  O        130.7340   46.1770   67.4640 O.2   466  ARG466     -0.2867
     85  CB       133.7660   46.4820   68.1430 C.3   466  ARG466      0.0307
     86  CG       133.7300   45.3350   67.1480 C.3   466  ARG466      0.0489
     87  CD       134.8110   45.4820   66.0940 C.3   466  ARG466      0.2205
     88  NE       136.1410   45.5620   66.6890 N.pl3 466  ARG466     -0.0865
     89  CZ       136.7970   46.6980   66.9110 C.cat 466  ARG466      0.5346
     90  NH1      136.2470   47.8610   66.5850 N.pl3 466  ARG466      0.1354
     91  NH2      138.0030   46.6730   67.4600 N.pl3 466  ARG466      0.1354
     92  N        130.7000   54.2150   69.1080 N.3   510  ASP510     -0.1239
     93  CA       131.6580   55.1620   68.5480 C.3   510  ASP510      0.1674
     94  C        131.0710   56.4780   68.0450 C.2   510  ASP510      0.2266
     95  O        131.8020   57.4730   67.9940 O.2   510  ASP510     -0.2867
     96  CB       132.4290   54.4960   67.4030 C.3   510  ASP510      0.1410
     97  CG       133.8590   54.9980   67.2910 C.2   510  ASP510      0.3668
     98  OD1      134.0720   56.0590   66.6650 O.co2 510  ASP510     -0.2456
     99  OD2      134.7690   54.3230   67.8220 O.co2 510  ASP510     -0.2456
    100  N        154.9450   54.0850   65.4420 N.3   587  ILE587     -0.1245
    101  CA       153.9640   53.1110   64.9760 C.3   587  ILE587      0.1561
    102  C        154.4240   52.4840   63.6670 C.2   587  ILE587      0.2260
    103  O        154.0720   51.3370   63.3640 O.2   587  ILE587     -0.2867
    104  CB       152.5780   53.7630   64.8540 C.3   587  ILE587      0.0252
    105  CG1      152.1760   54.3890   66.1930 C.3   587  ILE587      0.0019
    106  CG2      151.5360   52.7460   64.4090 C.3   587  ILE587      0.0019
    107  CD1      152.4630   53.5180   67.4100 C.3   587  ILE587      0.0001
    108  N        156.0920   49.8060   64.9450 N.3   590  LEU590     -0.1231
    109  CA       155.1840   48.7930   65.4620 C.3   590  LEU590      0.1693
    110  C        154.5250   47.9750   64.3580 C.2   590  LEU590      0.2591
    111  O        154.0410   46.8730   64.6360 O.2   590  LEU590     -0.2718
    112  CB       154.1110   49.4440   66.3430 C.3   590  LEU590      0.0284
    113  CG       154.3410   49.3990   67.8600 C.3   590  LEU590      0.0019
    114  CD1      155.6960   49.9890   68.2280 C.3   590  LEU590      0.0001
    115  CD2      153.2220   50.1030   68.6200 C.3   590  LEU590      0.0001
    116  N        154.4720   48.4890   63.1230 N.am  591  ARG591     -0.1980
    117  CA       153.9490   47.7150   62.0010 C.3   591  ARG591      0.1597
    118  C        155.0200   46.9640   61.2170 C.2   591  ARG591      0.2287
    119  O        154.6700   46.1070   60.3980 O.2   591  ARG591     -0.2864
    120  CB       153.1610   48.6130   61.0430 C.3   591  ARG591      0.0334
    121  CG       151.6800   48.6100   61.3340 C.3   591  ARG591      0.0492
    122  CD       150.8760   49.0700   60.1450 C.3   591  ARG591      0.2205
    123  NE       149.4590   48.8170   60.3600 N.pl3 591  ARG591     -0.0865
    124  CZ       148.8510   47.6900   60.0170 C.cat 591  ARG591      0.5346
    125  NH1      149.5390   46.7160   59.4380 N.pl3 591  ARG591      0.1354
    126  NH2      147.5590   47.5310   60.2580 N.pl3 591  ARG591      0.1354
    127  N        144.0790   56.6850   60.5700 N.3   629  ALA629     -0.1231
    128  CA       145.3630   56.0220   60.4010 C.3   629  ALA629      0.1694
    129  C        145.2300   54.6080   59.8570 C.2   629  ALA629      0.2591
    130  O        146.2480   53.9920   59.5240 O.2   629  ALA629     -0.2718
    131  CB       146.1260   55.9900   61.7300 C.3   629  ALA629      0.0304
    132  N        144.0090   54.0850   59.7530 N.am  630  ARG630     -0.1980
    133  CA       143.8150   52.8100   59.0750 C.3   630  ARG630      0.1597
    134  C        144.3350   52.7900   57.6390 C.2   630  ARG630      0.2287
    135  O        144.7350   51.7030   57.1860 O.2   630  ARG630     -0.2864
    136  CB       142.3290   52.4200   59.1120 C.3   630  ARG630      0.0334
    137  CG       141.3860   53.5470   59.4850 C.3   630  ARG630      0.0492
    138  CD       140.4340   53.0980   60.5810 C.3   630  ARG630      0.2205
    139  NE       139.0370   53.0680   60.1530 N.pl3 630  ARG630     -0.0865
    140  CZ       138.2110   54.1070   60.2330 C.cat 630  ARG630      0.5346
    141  NH1      138.6470   55.2620   60.7140 N.pl3 630  ARG630      0.1354
    142  NH2      136.9520   53.9990   59.8320 N.pl3 630  ARG630      0.1354
    143  N        147.1500   53.5940   56.7760 N.3   632  LEU632     -0.1231
    144  CA       148.5120   53.0800   56.8950 C.3   632  LEU632      0.1693
    145  C        148.5910   51.6270   56.4460 C.2   632  LEU632      0.2591
    146  O        149.4660   51.2510   55.6600 O.2   632  LEU632     -0.2718
    147  CB       148.9950   53.2170   58.3390 C.3   632  LEU632      0.0284
    148  CG       150.1760   52.3500   58.7790 C.3   632  LEU632      0.0019
    149  CD1      151.4450   52.6750   57.9970 C.3   632  LEU632      0.0001
    150  CD2      150.3950   52.5160   60.2740 C.3   632  LEU632      0.0001
    151  N        147.6640   50.8010   56.9320 N.am  633  GLN633     -0.1979
    152  CA       147.6250   49.3880   56.5710 C.3   633  GLN633      0.1601
    153  C        147.2580   49.1720   55.1030 C.2   633  GLN633      0.2287
    154  O        147.8650   48.3290   54.4310 O.2   633  GLN633     -0.2864
    155  CB       146.6410   48.6790   57.4950 C.3   633  GLN633      0.0394
    156  CG       146.0150   47.4280   56.9490 C.3   633  GLN633      0.0908
    157  CD       144.6630   47.1810   57.5810 C.2   633  GLN633      0.2608
    158  OE1      144.3430   47.7520   58.6240 O.2   633  GLN633     -0.2717
    159  NE2      143.8530   46.3420   56.9460 N.am  633  GLN633     -0.0878
@<TRIPOS>BOND
     1   154   153    2
     2   153   152    1
     3   146   145    2
     4   145   144    1
     5   145   151   am
     6   152   151    1
     7   152   155    1
     8   143   144    1
     9   144   147    1
    10   159   157   am
    11   156   155    1
    12   156   157    1
    13   135   134    2
    14   157   158    2
    15   134   133    1
    16   149   148    1
    17   147   148    1
    18   148   150    1
    19   133   136    1
    20   133   132    1
    21   136   137    1
    22   125   124    1
    23   137   138    1
    24   130   129    2
    25   132   129   am
    26   142   140    1
    27   129   128    1
    28   124   126    1
    29   124   123    2
    30   122   123    1
    31   122   121    1
    32   139   140    2
    33   139   138    1
    34   140   141    1
    35   119   118    2
    36   128   127    1
    37   128   131    1
    38   120   121    1
    39   120   117    1
    40   118   117    1
    41   117   116    1
    42   116   110   am
    43   103   102    2
    44    40    41    1
    45    40    37    1
    46   102   101    1
    47    51    50    1
    48   110   111    2
    49   110   109    1
    50   106   104    1
    51    43    42    1
    52    43    44    1
    53    42    38   am
    54    39    38    2
    55    38    37    1
    56    37    36    1
    57   104   101    1
    58   104   105    1
    59   108   109    1
    60   101   100    1
    61    46    44   am
    62    46    47    1
    63    50    52    1
    64    50    47    1
    65    44    45    2
    66   109   112    1
    67    47    48    1
    68    87    88    1
    69    87    86    1
    70   105   107    1
    71   112   113    1
    72    90    89    1
    73    98    97   ar
    74    88    89    2
    75    89    91    1
    76    86    85    1
    77    48    53   am
    78    48    49    2
    79    97    96    1
    80    97    99   ar
    81    96    93    1
    82    84    83    2
    83    53    54    1
    84   113   114    1
    85   113   115    1
    86    95    94    2
    87    94    93    1
    88    85    82    1
    89    83    82    1
    90    63    62    1
    91    63    64    1
    92    65    64    1
    93    80    78    1
    94    93    92    1
    95    62    61    1
    96    82    81    1
    97    78    77    1
    98    78    79    1
    99    71    70    1
   100    54    55    1
   101    70    72    1
   102    70    67    1
   103    77    74    1
   104    57    55   am
   105    57    58    1
   106    61    58    1
   107    55    56    2
   108    66    67    1
   109    66    59   am
   110    73    74    1
   111    73    68   am
   112    74    75    1
   113    67    68    1
   114    58    59    1
   115    68    69    2
   116    22    20    1
   117    20    21    1
   118    20    17    1
   119    59    60    2
   120    35    33   am
   121     4     3    2
   122    75    76    2
   123    23    24    1
   124    23    18   am
   125    16    17    1
   126    16    11   am
   127    24    25    1
   128    17    18    1
   129     8     6    1
   130    33    34    2
   131    33    32    1
   132    18    19    2
   133     3     2    1
   134     3     9   am
   135    10    11    1
   136    10     9    1
   137    10    13    1
   138     6     5    1
   139    14    13    1
   140    11    12    2
   141    15    13    1
   142    32    31    1
   143     2     5    1
   144     2     1    1
   145    25    27   am
   146    25    26    2
   147    27    28    1
   148     5     7    1
   149    31    28    1
   150    28    29    1
   151    29    30    2
