@<TRIPOS>MOLECULE
tmp/5d4yA00.pdb
 144 141 0 0 0
SMALL
GASTEIGER

@<TRIPOS>ATOM
      1  N        -19.0630  -25.3900  -10.4310 N.3    41  GLU41      -0.1231
      2  CA       -18.2170  -24.2770  -10.0490 C.3    41  GLU41       0.1699
      3  C        -16.8080  -24.3890  -10.6760 C.2    41  GLU41       0.2592
      4  O        -16.2770  -23.3850  -11.1470 O.2    41  GLU41      -0.2718
      5  CB       -18.1480  -24.1270   -8.5240 C.3    41  GLU41       0.0402
      6  CG       -16.8800  -23.4450   -8.0700 C.3    41  GLU41       0.1161
      7  CD       -16.8910  -23.0400   -6.6140 C.2    41  GLU41       0.3649
      8  OE1      -17.2760  -23.8580   -5.7430 O.co2  41  GLU41      -0.2457
      9  OE2      -16.4680  -21.8910   -6.3500 O.co2  41  GLU41      -0.2457
     10  N        -16.2280  -25.5930  -10.7140 N.am   42  ASN42      -0.1974
     11  CA       -14.8420  -25.7840  -11.2660 C.3    42  ASN42       0.1688
     12  C        -14.5770  -26.9430  -12.2440 C.2    42  ASN42       0.2292
     13  O        -13.6450  -26.8600  -13.0660 O.2    42  ASN42      -0.2864
     14  CB       -13.8150  -25.9380  -10.1260 C.3    42  ASN42       0.1181
     15  CG       -13.5080  -24.6300   -9.4380 C.2    42  ASN42       0.2629
     16  OD1      -13.8480  -24.4210   -8.2670 O.2    42  ASN42      -0.2716
     17  ND2      -12.8720  -23.7430  -10.1560 N.am   42  ASN42      -0.0877
     18  N        -14.0260  -26.5370  -16.1370 N.3    45  LYS45      -0.1245
     19  CA       -13.0800  -25.5810  -16.6440 C.3    45  LYS45       0.1561
     20  C        -11.8830  -26.2750  -17.3300 C.2    45  LYS45       0.2260
     21  O        -11.6090  -27.4350  -17.0740 O.2    45  LYS45      -0.2867
     22  CB       -12.5970  -24.6820  -15.5310 C.3    45  LYS45       0.0271
     23  CG       -13.6180  -23.6740  -15.0910 C.3    45  LYS45       0.0035
     24  CD       -13.1010  -22.9220  -13.8780 C.3    45  LYS45       0.0206
     25  CE       -14.1270  -21.9480  -13.3310 C.3    45  LYS45       0.1093
     26  NZ       -14.0240  -21.7590  -11.8600 N.3    45  LYS45      -0.1314
     27  N        -20.0150  -24.6980  -17.6650 N.3    78  HIS78      -0.1241
     28  CA       -19.1430  -23.5840  -17.4280 C.3    78  HIS78       0.1621
     29  C        -17.6750  -24.0090  -17.5990 C.2    78  HIS78       0.2264
     30  O        -17.2480  -25.0840  -17.1450 O.2    78  HIS78      -0.2867
     31  CB       -19.4560  -22.9470  -16.0940 C.3    78  HIS78       0.0745
     32  CG       -18.7940  -21.6250  -15.8880 C.ar   78  HIS78       0.0817
     33  ND1      -17.6380  -21.4750  -15.1490 N.ar   78  HIS78      -0.2268
     34  CD2      -19.1180  -20.3900  -16.3280 C.ar   78  HIS78       0.1154
     35  CE1      -17.2900  -20.2050  -15.1320 C.ar   78  HIS78       0.1986
     36  NE2      -18.1670  -19.5240  -15.8450 N.ar   78  HIS78      -0.2212
     37  N        -11.2420  -19.6410  -21.4920 N.3    82  TRP82      -0.1241
     38  CA       -11.0450  -18.5940  -20.4970 C.3    82  TRP82       0.1605
     39  C         -9.5440  -18.3700  -20.2560 C.2    82  TRP82       0.2264
     40  O         -8.7370  -19.3010  -20.3440 O.2    82  TRP82      -0.2867
     41  CB       -11.7210  -19.0320  -19.2050 C.3    82  TRP82       0.0550
     42  CG       -11.7590  -18.0150  -18.1640 C.ar   82  TRP82       0.0003
     43  CD1      -11.7750  -16.6980  -18.3380 C.ar   82  TRP82       0.0946
     44  CD2      -11.8410  -18.2390  -16.7630 C.ar   82  TRP82       0.0152
     45  NE1      -11.8360  -16.0570  -17.1260 N.ar   82  TRP82      -0.2442
     46  CE2      -11.8950  -16.9960  -16.1440 C.ar   82  TRP82       0.0810
     47  CE3      -11.8880  -19.3710  -15.9790 C.ar   82  TRP82       0.0012
     48  CZ2      -11.9820  -16.8460  -14.7730 C.ar   82  TRP82       0.0191
     49  CZ3      -11.9750  -19.2230  -14.6200 C.ar   82  TRP82       0.0001
     50  CH2      -12.0160  -17.9730  -14.0260 C.ar   82  TRP82       0.0015
     51  N         -7.8810  -20.4740  -15.0470 N.3    85  GLN85      -0.1245
     52  CA        -7.9730  -21.9190  -14.8870 C.3    85  GLN85       0.1566
     53  C         -7.8210  -22.6470  -16.1880 C.2    85  GLN85       0.2260
     54  O         -8.6440  -23.4760  -16.5610 O.2    85  GLN85      -0.2867
     55  CB        -9.2130  -22.3070  -14.1040 C.3    85  GLN85       0.0367
     56  CG        -9.1230  -21.7390  -12.6920 C.3    85  GLN85       0.0905
     57  CD       -10.2760  -22.1060  -11.7840 C.2    85  GLN85       0.2608
     58  OE1      -10.3700  -23.2450  -11.3200 O.2    85  GLN85      -0.2717
     59  NE2      -11.1300  -21.1190  -11.4760 N.am   85  GLN85      -0.0878
     60  N        -15.2490  -16.7440  -21.9190 N.3   127  ASN127     -0.1225
     61  CA       -15.4360  -16.1670  -20.6160 C.3   127  ASN127      0.1785
     62  C        -14.5160  -14.9670  -20.5090 C.2   127  ASN127      0.2597
     63  O        -13.3480  -15.0800  -20.7650 O.2   127  ASN127     -0.2718
     64  CB       -15.0300  -17.2330  -19.5810 C.3   127  ASN127      0.1169
     65  CG       -15.6870  -17.0480  -18.2490 C.2   127  ASN127      0.2627
     66  OD1      -16.8890  -16.7160  -18.1740 O.2   127  ASN127     -0.2716
     67  ND2      -14.9220  -17.2810  -17.1730 N.am  127  ASN127     -0.0877
     68  N        -15.0410  -13.8120  -20.1600 N.am  128  GLU128     -0.1979
     69  CA       -14.2180  -12.6880  -19.6990 C.3   128  GLU128      0.1602
     70  C        -13.2120  -12.2270  -20.7450 C.2   128  GLU128      0.2287
     71  O        -12.0650  -11.9280  -20.4200 O.2   128  GLU128     -0.2864
     72  CB       -13.5410  -13.0320  -18.3540 C.3   128  GLU128      0.0415
     73  CG       -14.5270  -13.5610  -17.2950 C.3   128  GLU128      0.1163
     74  CD       -13.9390  -13.7730  -15.8870 C.2   128  GLU128      0.3649
     75  OE1      -12.6760  -13.8600  -15.7230 O.co2 128  GLU128     -0.2457
     76  OE2      -14.7560  -13.8770  -14.9300 O.co2 128  GLU128     -0.2457
     77  N        -18.3450  -10.3880  -16.6350 N.3   177  TYR177     -0.1241
     78  CA       -18.6060   -9.6600  -15.3930 C.3   177  TYR177      0.1605
     79  C        -18.5150   -8.1720  -15.6470 C.2   177  TYR177      0.2264
     80  O        -18.0230   -7.7510  -16.6710 O.2   177  TYR177     -0.2867
     81  CB       -17.6110  -10.0610  -14.2910 C.3   177  TYR177      0.0534
     82  CG       -16.1630   -9.6070  -14.4930 C.ar  177  TYR177     -0.0201
     83  CD1      -15.7530   -8.3430  -14.1530 C.ar  177  TYR177     -0.0009
     84  CD2      -15.2160  -10.4720  -15.0190 C.ar  177  TYR177     -0.0009
     85  CE1      -14.4510   -7.9490  -14.3370 C.ar  177  TYR177      0.0417
     86  CE2      -13.9110  -10.0840  -15.2180 C.ar  177  TYR177      0.0417
     87  CZ       -13.5380   -8.8230  -14.8660 C.ar  177  TYR177      0.1957
     88  OH       -12.2310   -8.4550  -15.0410 O.3   177  TYR177     -0.2866
     89  N        -22.6480  -12.1890  -15.4180 N.3   208  GLN208     -0.1245
     90  CA       -22.1350  -12.8770  -14.2500 C.3   208  GLN208      0.1566
     91  C        -22.9040  -12.4320  -13.0300 C.2   208  GLN208      0.2260
     92  O        -23.3150  -13.2430  -12.1930 O.2   208  GLN208     -0.2867
     93  CB       -20.6060  -12.7040  -14.0980 C.3   208  GLN208      0.0367
     94  CG       -19.9010  -13.8290  -14.8440 C.3   208  GLN208      0.0905
     95  CD       -18.3820  -13.7910  -14.8870 C.2   208  GLN208      0.2608
     96  OE1      -17.8120  -14.0860  -15.9150 O.2   208  GLN208     -0.2717
     97  NE2      -17.7410  -13.5270  -13.7790 N.am  208  GLN208     -0.0878
     98  N        -21.7840  -10.5670  -10.5450 N.3   210  HIS210     -0.1241
     99  CA       -21.0250  -10.3500   -9.3110 C.3   210  HIS210      0.1621
    100  C        -21.2200   -8.9230   -8.8710 C.2   210  HIS210      0.2264
    101  O        -20.3600   -8.0730   -9.0580 O.2   210  HIS210     -0.2867
    102  CB       -19.5370  -10.6540   -9.4980 C.3   210  HIS210      0.0745
    103  CG       -19.2750  -12.1000   -9.7130 C.ar  210  HIS210      0.0817
    104  ND1      -19.6330  -13.0560   -8.7870 N.ar  210  HIS210     -0.2268
    105  CD2      -18.7790  -12.7630  -10.7770 C.ar  210  HIS210      0.1154
    106  CE1      -19.3540  -14.2510   -9.2700 C.ar  210  HIS210      0.1986
    107  NE2      -18.8350  -14.1000  -10.4770 N.ar  210  HIS210     -0.2212
    108  N        -23.6890  -16.0660  -12.3950 N.3   239  GLU239     -0.1245
    109  CA       -22.8760  -16.2520  -11.1770 C.3   239  GLU239      0.1567
    110  C        -23.2980  -15.2120  -10.1180 C.2   239  GLU239      0.2260
    111  O        -22.4770  -14.4920   -9.5480 O.2   239  GLU239     -0.2867
    112  CB       -21.3710  -16.1040  -11.4890 C.3   239  GLU239      0.0388
    113  CG       -20.9730  -16.7820  -12.7670 C.3   239  GLU239      0.1160
    114  CD       -19.4750  -16.7520  -13.0870 C.2   239  GLU239      0.3649
    115  OE1      -18.6270  -16.2650  -12.2750 O.co2 239  GLU239     -0.2457
    116  OE2      -19.1590  -17.2410  -14.2100 O.co2 239  GLU239     -0.2457
    117  N        -24.0280  -17.9680   -7.6450 N.3   279  TRP279     -0.1241
    118  CA       -22.7260  -18.5560   -7.7960 C.3   279  TRP279      0.1605
    119  C        -22.4170  -19.6850   -6.8120 C.2   279  TRP279      0.2264
    120  O        -21.8100  -20.6470   -7.2180 O.2   279  TRP279     -0.2867
    121  CB       -21.5920  -17.5480   -7.8130 C.3   279  TRP279      0.0550
    122  CG       -20.3410  -18.2040   -8.2620 C.ar  279  TRP279      0.0003
    123  CD1      -19.1610  -18.2150   -7.6150 C.ar  279  TRP279      0.0946
    124  CD2      -20.1620  -18.9990   -9.4350 C.ar  279  TRP279      0.0152
    125  NE1      -18.2250  -18.9470   -8.3240 N.ar  279  TRP279     -0.2442
    126  CE2      -18.8190  -19.4330   -9.4480 C.ar  279  TRP279      0.0810
    127  CE3      -21.0000  -19.3800  -10.4820 C.ar  279  TRP279      0.0012
    128  CZ2      -18.3020  -20.2250  -10.4520 C.ar  279  TRP279      0.0191
    129  CZ3      -20.4860  -20.1770  -11.4850 C.ar  279  TRP279      0.0001
    130  CH2      -19.1500  -20.5890  -11.4660 C.ar  279  TRP279      0.0015
    131  N        -17.0150  -18.3460   -2.9550 N.3   287  TRP287     -0.1241
    132  CA       -15.6640  -17.9510   -3.3730 C.3   287  TRP287      0.1605
    133  C        -15.1960  -16.6120   -2.8060 C.2   287  TRP287      0.2264
    134  O        -14.0280  -16.2650   -2.9310 O.2   287  TRP287     -0.2867
    135  CB       -15.5820  -17.8840   -4.9020 C.3   287  TRP287      0.0550
    136  CG       -16.2700  -16.6830   -5.5730 C.ar  287  TRP287      0.0003
    137  CD1      -17.6150  -16.3820   -5.5530 C.ar  287  TRP287      0.0946
    138  CD2      -15.6570  -15.6710   -6.4080 C.ar  287  TRP287      0.0152
    139  NE1      -17.8650  -15.2480   -6.2960 N.ar  287  TRP287     -0.2442
    140  CE2      -16.6860  -14.7970   -6.8350 C.ar  287  TRP287      0.0810
    141  CE3      -14.3470  -15.4180   -6.8260 C.ar  287  TRP287      0.0012
    142  CZ2      -16.4330  -13.6910   -7.6470 C.ar  287  TRP287      0.0191
    143  CZ3      -14.1060  -14.3410   -7.6360 C.ar  287  TRP287      0.0001
    144  CH2      -15.1400  -13.4880   -8.0410 C.ar  287  TRP287      0.0015
@<TRIPOS>BOND
     1    60    61    1
     2    37    38    1
     3    63    62    2
     4    70    71    2
     5    70    69    1
     6    61    62    1
     7    61    64    1
     8    62    68   am
     9    38    39    1
    10    38    41    1
    11    40    39    2
    12    68    69    1
    13    69    72    1
    14    64    65    1
    15    41    42    1
    16    72    73    1
    17    43    42   ar
    18    43    45   ar
    19    65    66    2
    20    65    67   am
    21    42    44   ar
    22    27    28    1
    23    29    28    1
    24    29    30    2
    25    28    31    1
    26    20    21    2
    27    20    19    1
    28    73    74    1
    29    45    46   ar
    30    44    46   ar
    31    44    47   ar
    32    80    79    2
    33    19    18    1
    34    19    22    1
    35    77    78    1
    36    54    53    2
    37    34    32   ar
    38    34    36   ar
    39    53    52    1
    40    46    48   ar
    41    31    32    1
    42    47    49   ar
    43    96    95    2
    44    32    33   ar
    45    74    75   ar
    46    74    76   ar
    47    36    35   ar
    48    79    78    1
    49    22    23    1
    50    89    90    1
    51    78    81    1
    52    86    84   ar
    53    86    87   ar
    54    33    35   ar
    55    23    24    1
    56    51    52    1
    57    88    87    1
    58    84    82   ar
    59    52    55    1
    60    95    94    1
    61    95    97   am
    62    87    85   ar
    63    94    93    1
    64    48    50   ar
    65    49    50   ar
    66    82    81    1
    67    82    83   ar
    68    85    83   ar
    69    90    93    1
    70    90    91    1
    71   116   114   ar
    72    55    56    1
    73    24    25    1
    74    25    26    1
    75   114   113    1
    76   114   115   ar
    77    13    12    2
    78    91    92    2
    79   113   112    1
    80    56    57    1
    81   108   109    1
    82    12    11    1
    83    57    59   am
    84    57    58    2
    85   112   109    1
    86   129   130   ar
    87   129   127   ar
    88   130   128   ar
    89    11    10    1
    90    11    14    1
    91   109   110    1
    92     4     3    2
    93   105   107   ar
    94   105   103   ar
    95    10     3   am
    96     3     2    1
    97    98    99    1
    98   127   124   ar
    99   107   106   ar
   100   128   126   ar
   101     1     2    1
   102    17    15   am
   103    14    15    1
   104   110   111    2
   105     2     5    1
   106   103   102    1
   107   103   104   ar
   108   102    99    1
   109   126   124   ar
   110   126   125   ar
   111    15    16    2
   112   124   122   ar
   113    99   100    1
   114   106   104   ar
   115   101   100    2
   116     5     6    1
   117   125   123   ar
   118   122   121    1
   119   122   123   ar
   120     6     7    1
   121   144   142   ar
   122   144   143   ar
   123   121   118    1
   124   118   117    1
   125   118   119    1
   126   142   140   ar
   127   143   141   ar
   128   120   119    2
   129   140   138   ar
   130   140   139   ar
   131   141   138   ar
   132     7     9   ar
   133     7     8   ar
   134   138   136   ar
   135   139   137   ar
   136   136   137   ar
   137   136   135    1
   138   135   132    1
   139   132   131    1
   140   132   133    1
   141   134   133    2
