@<TRIPOS>MOLECULE
tmp/5d57B01.pdb
 78 71 0 0 0
SMALL
GASTEIGER

@<TRIPOS>ATOM
      1  N         56.6600   51.8380   87.2670 N.3    12  GLU12      -0.1245
      2  CA        55.9750   52.8710   86.5020 C.3    12  GLU12       0.1567
      3  C         56.8820   53.3890   85.4000 C.2    12  GLU12       0.2260
      4  O         56.4560   53.5330   84.2530 O.2    12  GLU12      -0.2867
      5  CB        55.5300   54.0180   87.4130 C.3    12  GLU12       0.0388
      6  CG        54.2590   53.7250   88.1910 C.3    12  GLU12       0.1160
      7  CD        54.1980   54.4550   89.5200 C.2    12  GLU12       0.3649
      8  OE1       54.9520   55.4340   89.7010 O.co2  12  GLU12      -0.2457
      9  OE2       53.4050   54.0350   90.3910 O.co2  12  GLU12      -0.2457
     10  N         52.2120   61.4070   87.1860 N.3    47  GLU47      -0.1245
     11  CA        52.5430   60.5940   88.3490 C.3    47  GLU47       0.1567
     12  C         53.6370   61.2570   89.1760 C.2    47  GLU47       0.2260
     13  O         53.6030   61.2110   90.4050 O.2    47  GLU47      -0.2867
     14  CB        52.9640   59.1820   87.9340 C.3    47  GLU47       0.0388
     15  CG        51.7940   58.3160   87.5000 C.3    47  GLU47       0.1160
     16  CD        52.0870   56.8320   87.5700 C.2    47  GLU47       0.3649
     17  OE1       52.6130   56.2870   86.5790 O.co2  47  GLU47      -0.2457
     18  OE2       51.7840   56.2110   88.6130 O.co2  47  GLU47      -0.2457
     19  N         51.8820   63.9580   91.0240 N.3    50  ASN50      -0.1240
     20  CA        51.0670   63.3560   92.0690 C.3    50  ASN50       0.1653
     21  C         51.9210   62.9830   93.2810 C.2    50  ASN50       0.2266
     22  O         51.5670   63.2690   94.4250 O.2    50  ASN50      -0.2867
     23  CB        50.3380   62.1260   91.5210 C.3    50  ASN50       0.1155
     24  CG        49.6150   61.3430   92.5970 C.2    50  ASN50       0.2627
     25  OD1       48.9430   61.9120   93.4550 O.2    50  ASN50      -0.2716
     26  ND2       49.7590   60.0230   92.5580 N.am   50  ASN50      -0.0877
     27  N         45.5930   61.2180   92.6240 N.3    76  SER76      -0.1217
     28  CA        45.4180   59.8820   92.0740 C.3    76  SER76       0.1889
     29  C         44.4230   59.9200   90.9130 C.2    76  SER76       0.2288
     30  O         44.6290   59.2710   89.8850 O.2    76  SER76      -0.2866
     31  CB        44.9580   58.9130   93.1640 C.3    76  SER76       0.2089
     32  OG        45.9840   58.7110   94.1220 O.3    76  SER76      -0.2183
     33  N         46.0750   60.9610   87.7670 N.3    79  VAL79      -0.1231
     34  CA        46.8490   59.8920   87.1540 C.3    79  VAL79       0.1692
     35  C         45.9380   58.9280   86.4040 C.2    79  VAL79       0.2591
     36  O         46.2320   58.5320   85.2760 O.2    79  VAL79      -0.2718
     37  CB        47.6640   59.1160   88.2010 C.3    79  VAL79       0.0266
     38  CG1       48.2990   57.8810   87.5810 C.3    79  VAL79       0.0020
     39  CG2       48.7220   60.0140   88.8090 C.3    79  VAL79       0.0020
     40  N         44.8310   58.5590   87.0390 N.am   80  LEU80      -0.1980
     41  CA        43.8580   57.6590   86.4320 C.3    80  LEU80       0.1596
     42  C         43.3800   58.2010   85.0890 C.2    80  LEU80       0.2287
     43  O         43.3400   57.4690   84.1020 O.2    80  LEU80      -0.2864
     44  CB        42.6660   57.4410   87.3660 C.3    80  LEU80       0.0297
     45  CG        41.5130   56.6110   86.7990 C.3    80  LEU80       0.0022
     46  CD1       41.9270   55.1630   86.5830 C.3    80  LEU80       0.0001
     47  CD2       40.2920   56.7000   87.7010 C.3    80  LEU80       0.0001
     48  N         46.1320   57.8540   82.5660 N.3    83  ILE83      -0.1231
     49  CA        46.3170   56.4790   82.1270 C.3    83  ILE83       0.1692
     50  C         45.2410   56.1070   81.1090 C.2    83  ILE83       0.2591
     51  O         45.5300   55.5080   80.0740 O.2    83  ILE83      -0.2718
     52  CB        46.2980   55.5030   83.3210 C.3    83  ILE83       0.0266
     53  CG1       47.5100   55.7610   84.2160 C.3    83  ILE83       0.0019
     54  CG2       46.3010   54.0660   82.8350 C.3    83  ILE83       0.0020
     55  CD1       47.5960   54.8490   85.4140 C.3    83  ILE83       0.0001
     56  N         44.0030   56.4920   81.3990 N.am   84  ILE84      -0.1980
     57  CA        42.8950   56.2740   80.4790 C.3    84  ILE84       0.1595
     58  C         43.1550   56.9600   79.1290 C.2    84  ILE84       0.2287
     59  O         42.9300   56.3660   78.0750 O.2    84  ILE84      -0.2864
     60  CB        41.5670   56.7720   81.0890 C.3    84  ILE84       0.0276
     61  CG1       41.1920   55.9030   82.2950 C.3    84  ILE84       0.0022
     62  CG2       40.4520   56.7440   80.0580 C.3    84  ILE84       0.0022
     63  CD1       40.1080   56.4890   83.1680 C.3    84  ILE84       0.0001
     64  N         45.6830   54.8050   77.2090 N.3    87  VAL87      -0.1231
     65  CA        45.1020   53.5740   76.6810 C.3    87  VAL87       0.1692
     66  C         44.2330   53.8710   75.4710 C.2    87  VAL87       0.2591
     67  O         44.2950   53.1720   74.4610 O.2    87  VAL87      -0.2718
     68  CB        44.2510   52.8410   77.7330 C.3    87  VAL87       0.0266
     69  CG1       43.5950   51.6190   77.1140 C.3    87  VAL87       0.0020
     70  CG2       45.0980   52.4500   78.9270 C.3    87  VAL87       0.0020
     71  N         43.4240   54.9180   75.5830 N.am   88  ILE88      -0.1980
     72  CA        42.5640   55.3450   74.4910 C.3    88  ILE88       0.1595
     73  C         43.3950   55.7660   73.2810 C.2    88  ILE88       0.2287
     74  O         43.0750   55.4150   72.1420 O.2    88  ILE88      -0.2864
     75  CB        41.6430   56.5070   74.9250 C.3    88  ILE88       0.0276
     76  CG1       40.5660   56.0020   75.8860 C.3    88  ILE88       0.0022
     77  CG2       40.9740   57.1450   73.7240 C.3    88  ILE88       0.0022
     78  CD1       39.6580   57.0890   76.4060 C.3    88  ILE88       0.0001
@<TRIPOS>BOND
     1    74    73    2
     2    73    72    1
     3    77    75    1
     4    67    66    2
     5    72    75    1
     6    72    71    1
     7    75    76    1
     8    66    71   am
     9    66    65    1
    10    76    78    1
    11    65    64    1
    12    65    68    1
    13    69    68    1
    14    68    70    1
    15    59    58    2
    16    58    57    1
    17    62    60    1
    18    51    50    2
    19    57    60    1
    20    57    56    1
    21    60    61    1
    22    50    56   am
    23    50    49    1
    24    49    48    1
    25    49    52    1
    26    61    63    1
    27    54    52    1
    28    52    53    1
    29    43    42    2
    30    53    55    1
    31     4     3    2
    32    42    41    1
    33    36    35    2
    34     3     2    1
    35    35    40   am
    36    35    34    1
    37    41    40    1
    38    41    44    1
    39     2     1    1
    40     2     5    1
    41    17    16   ar
    42    46    45    1
    43    45    44    1
    44    45    47    1
    45    34    33    1
    46    34    37    1
    47    10    11    1
    48     5     6    1
    49    15    16    1
    50    15    14    1
    51    16    18   ar
    52    38    37    1
    53    14    11    1
    54     6     7    1
    55    37    39    1
    56    11    12    1
    57    12    13    2
    58     7     8   ar
    59     7     9   ar
    60    30    29    2
    61    29    28    1
    62    19    20    1
    63    23    20    1
    64    23    24    1
    65    20    21    1
    66    28    27    1
    67    28    31    1
    68    26    24   am
    69    24    25    2
    70    31    32    1
    71    21    22    2
