@<TRIPOS>MOLECULE
tmp/5d59A12.pdb
 140 136 0 0 0
SMALL
GASTEIGER

@<TRIPOS>ATOM
      1  N         30.6450   10.9770   -4.2800 N.3    22  ARG22      -0.1245
      2  CA        29.6000   11.4940   -3.4000 C.3    22  ARG22       0.1563
      3  C         29.5580   10.7130   -2.0890 C.2    22  ARG22       0.2260
      4  O         29.2570   11.2750   -1.0330 O.2    22  ARG22      -0.2867
      5  CB        28.2340   11.4460   -4.0880 C.3    22  ARG22       0.0307
      6  CG        28.1110   12.3610   -5.3190 C.3    22  ARG22       0.0489
      7  CD        27.9550   13.8270   -4.9390 C.3    22  ARG22       0.2205
      8  NE        29.2290   14.4720   -4.6400 N.pl3  22  ARG22      -0.0865
      9  CZ        29.3500   15.6810   -4.0950 C.cat  22  ARG22       0.5346
     10  NH1       28.2700   16.3860   -3.7750 N.pl3  22  ARG22       0.1354
     11  NH2       30.5550   16.1810   -3.8620 N.pl3  22  ARG22       0.1354
     12  N         29.9070   12.8050    1.3130 N.3    26  TYR26      -0.1241
     13  CA        28.8130   12.8720    2.2650 C.3    26  TYR26       0.1605
     14  C         29.0430   12.0160    3.5100 C.2    26  TYR26       0.2264
     15  O         28.5300   12.3310    4.5850 O.2    26  TYR26      -0.2867
     16  CB        27.5040   12.4870    1.5780 C.3    26  TYR26       0.0534
     17  CG        26.9320   13.6340    0.7690 C.ar   26  TYR26      -0.0201
     18  CD1       26.5060   14.8020    1.3990 C.ar   26  TYR26      -0.0009
     19  CD2       26.8240   13.5600   -0.6150 C.ar   26  TYR26      -0.0009
     20  CE1       25.9830   15.8600    0.6750 C.ar   26  TYR26       0.0417
     21  CE2       26.2930   14.6150   -1.3490 C.ar   26  TYR26       0.0417
     22  CZ        25.8730   15.7620   -0.6950 C.ar   26  TYR26       0.1957
     23  OH        25.3480   16.8180   -1.4130 O.3    26  TYR26      -0.2866
     24  N         31.6610   24.2290   -4.1580 N.3    64  TYR64      -0.1241
     25  CA        30.8950   24.3900   -5.3890 C.3    64  TYR64       0.1605
     26  C         31.3130   25.6350   -6.1630 C.2    64  TYR64       0.2264
     27  O         31.1850   25.6800   -7.3850 O.2    64  TYR64      -0.2867
     28  CB        29.4000   24.4030   -5.0670 C.3    64  TYR64       0.0534
     29  CG        29.0080   23.1100   -4.3930 C.ar   64  TYR64      -0.0201
     30  CD1       29.5200   21.8980   -4.8480 C.ar   64  TYR64      -0.0009
     31  CD2       28.1820   23.0950   -3.2770 C.ar   64  TYR64      -0.0009
     32  CE1       29.1960   20.7050   -4.2330 C.ar   64  TYR64       0.0417
     33  CE2       27.8510   21.8970   -2.6500 C.ar   64  TYR64       0.0417
     34  CZ        28.3660   20.7070   -3.1350 C.ar   64  TYR64       0.1957
     35  OH        28.0540   19.5060   -2.5340 O.3    64  TYR64      -0.2866
     36  N         33.6920   17.2140  -10.0700 N.3   122  LYS122     -0.1245
     37  CA        32.2290   17.2270  -10.1620 C.3   122  LYS122      0.1561
     38  C         31.6540   17.8310  -11.4490 C.2   122  LYS122      0.2260
     39  O         30.8000   17.2100  -12.0750 O.2   122  LYS122     -0.2867
     40  CB        31.6300   17.9450   -8.9470 C.3   122  LYS122      0.0271
     41  CG        30.1360   17.7350   -8.7850 C.3   122  LYS122      0.0035
     42  CD        29.7220   17.9520   -7.3390 C.3   122  LYS122      0.0206
     43  CE        28.2480   17.6390   -7.1250 C.3   122  LYS122      0.1093
     44  NZ        27.8500   16.3190   -7.6870 N.3   122  LYS122     -0.1314
     45  N         24.1840    9.8370   -7.6820 N.3   151  ILE151     -0.1231
     46  CA        24.6520   10.8420   -6.7390 C.3   151  ILE151      0.1692
     47  C         24.0180   10.6300   -5.3700 C.2   151  ILE151      0.2592
     48  O         24.6900   10.6670   -4.3320 O.2   151  ILE151     -0.2718
     49  CB        24.3210   12.2730   -7.2330 C.3   151  ILE151      0.0266
     50  CG1       25.1870   12.6410   -8.4390 C.3   151  ILE151      0.0019
     51  CG2       24.4870   13.2890   -6.1030 C.3   151  ILE151      0.0020
     52  CD1       25.1010   14.0950   -8.8420 C.3   151  ILE151      0.0001
     53  N         22.7110   10.4020   -5.3740 N.am  152  ASN152     -0.1974
     54  CA        21.9880   10.2730   -4.1270 C.3   152  ASN152      0.1688
     55  C         22.0990    8.8710   -3.5530 C.2   152  ASN152      0.2292
     56  O         22.0130    8.6780   -2.3410 O.2   152  ASN152     -0.2864
     57  CB        20.5400   10.6810   -4.3340 C.3   152  ASN152      0.1181
     58  CG        20.4050   12.1660   -4.6150 C.2   152  ASN152      0.2629
     59  OD1       20.3870   12.9820   -3.6890 O.2   152  ASN152     -0.2716
     60  ND2       20.3210   12.5280   -5.8940 N.am  152  ASN152     -0.0877
     61  N         18.6720   26.4350   -1.7440 N.3   287  TRP287     -0.1241
     62  CA        19.8730   25.6640   -1.4310 C.3   287  TRP287      0.1605
     63  C         20.4270   26.0430   -0.0670 C.2   287  TRP287      0.2264
     64  O         21.0540   25.2230    0.5990 O.2   287  TRP287     -0.2867
     65  CB        20.9440   25.8460   -2.5090 C.3   287  TRP287      0.0550
     66  CG        20.6510   25.0570   -3.7500 C.ar  287  TRP287      0.0003
     67  CD1       20.4940   25.5480   -5.0140 C.ar  287  TRP287      0.0946
     68  CD2       20.4680   23.6380   -3.8460 C.ar  287  TRP287      0.0152
     69  NE1       20.2270   24.5230   -5.8890 N.ar  287  TRP287     -0.2442
     70  CE2       20.2040   23.3410   -5.1980 C.ar  287  TRP287      0.0810
     71  CE3       20.5040   22.5890   -2.9210 C.ar  287  TRP287      0.0012
     72  CZ2       19.9750   22.0450   -5.6480 C.ar  287  TRP287      0.0191
     73  CZ3       20.2780   21.2990   -3.3700 C.ar  287  TRP287      0.0001
     74  CH2       20.0170   21.0390   -4.7210 C.ar  287  TRP287      0.0015
     75  N         18.3040   23.8330    2.0870 N.3   290  GLU290     -0.1231
     76  CA        18.6670   22.4390    1.8330 C.3   290  GLU290      0.1699
     77  C         20.0260   22.0720    2.4470 C.2   290  GLU290      0.2592
     78  O         20.1880   20.9870    3.0070 O.2   290  GLU290     -0.2718
     79  CB        18.6850   22.1630    0.3230 C.3   290  GLU290      0.0402
     80  CG        18.4940   20.6870   -0.0530 C.3   290  GLU290      0.1161
     81  CD        19.7950   19.9030   -0.1850 C.2   290  GLU290      0.3649
     82  OE1       20.8760   20.4250    0.1620 O.co2 290  GLU290     -0.2457
     83  OE2       19.7270   18.7430   -0.6430 O.co2 290  GLU290     -0.2457
     84  N         20.9940   22.9790    2.3340 N.am  291  GLU291     -0.1979
     85  CA        22.3400   22.7480    2.8580 C.3   291  GLU291      0.1602
     86  C         22.4060   22.8800    4.3780 C.2   291  GLU291      0.2287
     87  O         23.3620   22.4130    5.0040 O.2   291  GLU291     -0.2864
     88  CB        23.3390   23.7130    2.2230 C.3   291  GLU291      0.0415
     89  CG        23.7740   23.3220    0.8190 C.3   291  GLU291      0.1163
     90  CD        24.6340   22.0710    0.7890 C.2   291  GLU291      0.3649
     91  OE1       25.3650   21.8150    1.7770 O.co2 291  GLU291     -0.2457
     92  OE2       24.5720   21.3390   -0.2220 O.co2 291  GLU291     -0.2457
     93  N         17.7100   12.7620    3.4590 N.3   319  ASN319     -0.1240
     94  CA        17.6820   13.6570    2.3180 C.3   319  ASN319      0.1653
     95  C         17.8150   12.8690    0.9950 C.2   319  ASN319      0.2266
     96  O         16.9070   12.9110    0.1640 O.2   319  ASN319     -0.2867
     97  CB        18.7750   14.7310    2.4910 C.3   319  ASN319      0.1155
     98  CG        18.9280   15.6450    1.2850 C.2   319  ASN319      0.2627
     99  OD1       19.0940   15.1940    0.1520 O.2   319  ASN319     -0.2716
    100  ND2       18.8940   16.9500    1.5350 N.am  319  ASN319     -0.0877
    101  N         13.2140   19.9960   -3.8460 N.3   391  GLU391     -0.1245
    102  CA        14.3810   19.6290   -4.6430 C.3   391  GLU391      0.1567
    103  C         13.9720   18.8740   -5.9110 C.2   391  GLU391      0.2260
    104  O         14.6270   18.9800   -6.9490 O.2   391  GLU391     -0.2867
    105  CB        15.3550   18.7960   -3.8090 C.3   391  GLU391      0.0388
    106  CG        16.7840   18.8060   -4.3280 C.3   391  GLU391      0.1160
    107  CD        17.7490   18.1370   -3.3710 C.2   391  GLU391      0.3649
    108  OE1       17.6010   18.3290   -2.1470 O.co2 391  GLU391     -0.2457
    109  OE2       18.6570   17.4180   -3.8360 O.co2 391  GLU391     -0.2457
    110  N         24.6100   26.8470  -11.8580 N.3   400  TRP400     -0.1227
    111  CA        24.0040   25.8830  -10.9570 C.3   400  TRP400      0.1737
    112  C         24.8650   25.7100   -9.7070 C.2   400  TRP400      0.2595
    113  O         24.3660   25.7620   -8.5810 O.2   400  TRP400     -0.2718
    114  CB        23.8140   24.5530  -11.6820 C.3   400  TRP400      0.0564
    115  CG        23.1250   23.5130  -10.8840 C.ar  400  TRP400      0.0003
    116  CD1       23.6360   22.3110  -10.4900 C.ar  400  TRP400      0.0946
    117  CD2       21.7850   23.5690  -10.3770 C.ar  400  TRP400      0.0152
    118  NE1       22.6970   21.6140   -9.7660 N.ar  400  TRP400     -0.2442
    119  CE2       21.5550   22.3630   -9.6850 C.ar  400  TRP400      0.0810
    120  CE3       20.7630   24.5220  -10.4450 C.ar  400  TRP400      0.0012
    121  CZ2       20.3400   22.0860   -9.0600 C.ar  400  TRP400      0.0191
    122  CZ3       19.5580   24.2440   -9.8230 C.ar  400  TRP400      0.0001
    123  CH2       19.3580   23.0340   -9.1400 C.ar  400  TRP400      0.0015
    124  N         26.1650   25.5240   -9.9190 N.am  401  PHE401     -0.1976
    125  CA        27.1250   25.4290   -8.8250 C.3   401  PHE401      0.1639
    126  C         27.2410   26.7500   -8.0830 C.2   401  PHE401      0.2290
    127  O         27.6080   26.7770   -6.9100 O.2   401  PHE401     -0.2864
    128  CB        28.5000   25.0130   -9.3490 C.3   401  PHE401      0.0560
    129  CG        28.6350   23.5440   -9.5920 C.ar  401  PHE401     -0.0200
    130  CD1       27.8780   22.9190  -10.5640 C.ar  401  PHE401     -0.0042
    131  CD2       29.5330   22.7910   -8.8640 C.ar  401  PHE401     -0.0042
    132  CE1       27.9980   21.5630  -10.7990 C.ar  401  PHE401     -0.0003
    133  CE2       29.6650   21.4310   -9.0940 C.ar  401  PHE401     -0.0003
    134  CZ        28.8930   20.8160  -10.0670 C.ar  401  PHE401     -0.0000
    135  N         24.1490   27.4120   -5.5770 N.3   404  SER404     -0.1217
    136  CA        24.4350   26.5900   -4.4100 C.3   404  SER404      0.1889
    137  C         25.5060   27.2330   -3.5270 C.2   404  SER404      0.2288
    138  O         25.3400   27.3320   -2.3080 O.2   404  SER404     -0.2866
    139  CB        24.8770   25.1920   -4.8530 C.3   404  SER404      0.2089
    140  OG        25.4900   24.4790   -3.7940 O.3   404  SER404     -0.2183
@<TRIPOS>BOND
     1    39    38    2
     2   110   111    1
     3   114   111    1
     4   114   115    1
     5    38    37    1
     6   111   112    1
     7   115   116   ar
     8   115   117   ar
     9   132   130   ar
    10   132   134   ar
    11   130   129   ar
    12   116   118   ar
    13   120   117   ar
    14   120   122   ar
    15   117   119   ar
    16    37    36    1
    17    37    40    1
    18   134   133   ar
    19   124   112   am
    20   124   125    1
    21   122   123   ar
    22   118   119   ar
    23   112   113    2
    24   119   121   ar
    25   129   128    1
    26   129   131   ar
    27   128   125    1
    28   123   121   ar
    29   133   131   ar
    30    40    41    1
    31    52    50    1
    32   125   126    1
    33    41    42    1
    34    50    49    1
    35   126   127    2
    36    44    43    1
    37    45    46    1
    38    27    26    2
    39    42    43    1
    40    49    46    1
    41    49    51    1
    42   104   103    2
    43    46    47    1
    44    26    25    1
    45   103   102    1
    46    60    58   am
    47    69    70   ar
    48    69    67   ar
    49    72    70   ar
    50    72    74   ar
    51   135   136    1
    52    25    28    1
    53    25    24    1
    54    53    47   am
    55    53    54    1
    56    47    48    2
    57     6     7    1
    58     6     5    1
    59    70    68   ar
    60    28    29    1
    61    67    66   ar
    62     7     8    1
    63   139   136    1
    64   139   140    1
    65    30    29   ar
    66    30    32   ar
    67    74    73   ar
    68   102   101    1
    69   102   105    1
    70     8     9    2
    71    58    57    1
    72    58    59    2
    73   136   137    1
    74    29    31   ar
    75    57    54    1
    76   106   105    1
    77   106   107    1
    78     1     2    1
    79    32    34   ar
    80    54    55    1
    81     9    11    1
    82     9    10    1
    83     5     2    1
    84    68    66   ar
    85    68    71   ar
    86   109   107   ar
    87    66    65    1
    88    55    56    2
    89   137   138    2
    90     2     3    1
    91   107   108   ar
    92    73    71   ar
    93    31    33   ar
    94    34    33   ar
    95    34    35    1
    96    65    62    1
    97     3     4    2
    98    61    62    1
    99    62    63    1
   100    23    22    1
   101    21    22   ar
   102    21    19   ar
   103    22    20   ar
   104    83    81   ar
   105    19    17   ar
   106    92    90   ar
   107    81    80    1
   108    81    82   ar
   109    63    64    2
   110    80    79    1
   111    99    98    2
   112    96    95    2
   113    79    76    1
   114    20    18   ar
   115    17    18   ar
   116    17    16    1
   117    90    89    1
   118    90    91   ar
   119    89    88    1
   120    95    94    1
   121    98   100   am
   122    98    97    1
   123    12    13    1
   124    16    13    1
   125    76    75    1
   126    76    77    1
   127    88    85    1
   128    13    14    1
   129    94    97    1
   130    94    93    1
   131    84    77   am
   132    84    85    1
   133    77    78    2
   134    85    86    1
   135    14    15    2
   136    86    87    2
