@<TRIPOS>MOLECULE
tmp/5d59A05.pdb
 82 79 0 0 0
SMALL
GASTEIGER

@<TRIPOS>ATOM
      1  N         33.9740   35.5710    6.9090 N.3   247  ASN247     -0.1240
      2  CA        33.2660   36.7270    6.3750 C.3   247  ASN247      0.1653
      3  C         33.8280   37.1710    5.0310 C.2   247  ASN247      0.2266
      4  O         33.0800   37.5810    4.1460 O.2   247  ASN247     -0.2867
      5  CB        33.3170   37.8850    7.3670 C.3   247  ASN247      0.1155
      6  CG        32.4710   37.6270    8.5920 C.2   247  ASN247      0.2627
      7  OD1       31.4560   36.9360    8.5170 O.2   247  ASN247     -0.2716
      8  ND2       32.8830   38.1730    9.7280 N.am  247  ASN247     -0.0877
      9  N         32.6010   34.7010    2.4230 N.3   250  THR250     -0.1203
     10  CA        31.1780   34.9350    2.2060 C.3   250  THR250      0.1994
     11  C         30.9790   36.0600    1.2110 C.2   250  THR250      0.2617
     12  O         30.2170   35.9440    0.2480 O.2   250  THR250     -0.2717
     13  CB        30.4420   35.3120    3.5070 C.3   250  THR250      0.1784
     14  OG1       30.5420   34.2430    4.4520 O.3   250  THR250     -0.2211
     15  CG2       28.9720   35.5940    3.2140 C.3   250  THR250      0.0376
     16  N         31.6810   37.1550    1.4740 N.am  251  ILE251     -0.1979
     17  CA        31.5980   38.3520    0.6620 C.3   251  ILE251      0.1595
     18  C         32.0480   38.0750   -0.7610 C.2   251  ILE251      0.2287
     19  O         31.3960   38.5030   -1.7110 O.2   251  ILE251     -0.2864
     20  CB        32.4350   39.4830    1.2840 C.3   251  ILE251      0.0276
     21  CG1       31.7610   39.9690    2.5700 C.3   251  ILE251      0.0022
     22  CG2       32.6040   40.6310    0.3090 C.3   251  ILE251      0.0022
     23  CD1       32.6520   40.7950    3.4560 C.3   251  ILE251      0.0001
     24  N         29.3890   35.9620   -2.6180 N.3   254  ILE254     -0.1231
     25  CA        28.1720   36.6900   -2.9540 C.3   254  ILE254      0.1692
     26  C         28.4590   37.8170   -3.9450 C.2   254  ILE254      0.2591
     27  O         27.6130   38.1540   -4.7700 O.2   254  ILE254     -0.2718
     28  CB        27.4900   37.2480   -1.6820 C.3   254  ILE254      0.0266
     29  CG1       27.0090   36.0860   -0.8090 C.3   254  ILE254      0.0019
     30  CG2       26.2990   38.1150   -2.0360 C.3   254  ILE254      0.0020
     31  CD1       26.6170   36.4860    0.5960 C.3   254  ILE254      0.0001
     32  N         29.6610   38.3820   -3.8840 N.am  255  ALA255     -0.1980
     33  CA        30.0270   39.4540   -4.8060 C.3   255  ALA255      0.1597
     34  C         30.0830   38.9550   -6.2470 C.2   255  ALA255      0.2287
     35  O         29.8350   39.7220   -7.1720 O.2   255  ALA255     -0.2864
     36  CB        31.3530   40.0670   -4.4140 C.3   255  ALA255      0.0319
     37  N         26.5290   38.9730   -7.9290 N.3   258  VAL258     -0.1231
     38  CA        26.1120   40.3610   -7.9080 C.3   258  VAL258      0.1692
     39  C         26.8810   41.1510   -8.9580 C.2   258  VAL258      0.2592
     40  O         26.2750   41.7990   -9.8000 O.2   258  VAL258     -0.2718
     41  CB        26.3160   41.0060   -6.5200 C.3   258  VAL258      0.0266
     42  CG1       26.1110   42.5100   -6.6000 C.3   258  VAL258      0.0020
     43  CG2       25.3660   40.3860   -5.5000 C.3   258  VAL258      0.0020
     44  N         28.2100   41.1090   -8.8850 N.am  259  PHE259     -0.1976
     45  CA        29.0700   41.7320   -9.8820 C.3   259  PHE259      0.1639
     46  C         28.7230   41.2050  -11.2810 C.2   259  PHE259      0.2290
     47  O         28.7380   41.9210  -12.2320 O.2   259  PHE259     -0.2864
     48  CB        30.5420   41.4820   -9.5520 C.3   259  PHE259      0.0560
     49  CG        31.1330   42.5070   -8.6660 C.ar  259  PHE259     -0.0200
     50  CD1       30.4690   42.9410   -7.5400 C.ar  259  PHE259     -0.0042
     51  CD2       32.3750   43.0070   -8.9420 C.ar  259  PHE259     -0.0042
     52  CE1       31.0240   43.8980   -6.7140 C.ar  259  PHE259     -0.0003
     53  CE2       32.9680   43.9720   -8.1270 C.ar  259  PHE259     -0.0003
     54  CZ        32.2790   44.4240   -6.9920 C.ar  259  PHE259     -0.0000
     55  N         25.1590   42.5160  -12.4190 N.3   262  ALA262     -0.1231
     56  CA        24.9900   43.9850  -12.4330 C.3   262  ALA262      0.1694
     57  C         25.4560   44.7280  -13.7080 C.2   262  ALA262      0.2592
     58  O         24.9450   45.8240  -13.9870 O.2   262  ALA262     -0.2718
     59  CB        25.6750   44.6140  -11.2190 C.3   262  ALA262      0.0304
     60  N         26.4190   44.1730  -14.4570 N.am  263  TRP263     -0.1976
     61  CA        26.9510   44.8770  -15.6380 C.3   263  TRP263      0.1640
     62  C         26.8810   44.1540  -16.9780 C.2   263  TRP263      0.2290
     63  O         27.4120   44.6660  -17.9550 O.2   263  TRP263     -0.2864
     64  CB        28.3940   45.3120  -15.3750 C.3   263  TRP263      0.0576
     65  CG        28.4360   46.3000  -14.2850 C.ar  263  TRP263      0.0006
     66  CD1       27.8380   47.5130  -14.2830 C.ar  263  TRP263      0.0946
     67  CD2       29.1100   46.1810  -13.0360 C.ar  263  TRP263      0.0152
     68  NE1       28.0760   48.1620  -13.1070 N.ar  263  TRP263     -0.2442
     69  CE2       28.8620   47.3670  -12.3210 C.ar  263  TRP263      0.0810
     70  CE3       29.8970   45.1890  -12.4510 C.ar  263  TRP263      0.0012
     71  CZ2       29.3670   47.5900  -11.0540 C.ar  263  TRP263      0.0191
     72  CZ3       30.4030   45.4100  -11.1950 C.ar  263  TRP263      0.0001
     73  CH2       30.1360   46.6030  -10.5050 C.ar  263  TRP263      0.0015
     74  N         26.7410   32.7140    7.7110 N.3   413  GLN413     -0.1245
     75  CA        26.3550   33.7010    8.7070 C.3   413  GLN413      0.1566
     76  C         25.0880   33.2940    9.4490 C.2   413  GLN413      0.2260
     77  O         24.9680   33.5370   10.6460 O.2   413  GLN413     -0.2867
     78  CB        26.1580   35.0650    8.0620 C.3   413  GLN413      0.0367
     79  CG        27.3460   35.9790    8.2550 C.3   413  GLN413      0.0905
     80  CD        28.2770   35.9280    7.0850 C.2   413  GLN413      0.2608
     81  OE1       27.8520   36.1370    5.9550 O.2   413  GLN413     -0.2717
     82  NE2       29.5510   35.6480    7.3350 N.am  413  GLN413     -0.0878
@<TRIPOS>BOND
     1    63    62    2
     2    62    61    1
     3    61    64    1
     4    61    60    1
     5    64    65    1
     6    60    57   am
     7    65    66   ar
     8    65    67   ar
     9    66    68   ar
    10    58    57    2
    11    57    56    1
    12    68    69   ar
    13    67    70   ar
    14    67    69   ar
    15    70    72   ar
    16    56    55    1
    17    56    59    1
    18    69    71   ar
    19    47    46    2
    20    46    45    1
    21    72    73   ar
    22    71    73   ar
    23    45    48    1
    24    45    44    1
    25    40    39    2
    26    48    49    1
    27    39    44   am
    28    39    38    1
    29    51    49   ar
    30    51    53   ar
    31    49    50   ar
    32    53    54   ar
    33    37    38    1
    34    38    41    1
    35    50    52   ar
    36    35    34    2
    37    54    52   ar
    38    42    41    1
    39    41    43    1
    40    34    33    1
    41    33    36    1
    42    33    32    1
    43    27    26    2
    44    26    32   am
    45    26    25    1
    46    25    24    1
    47    25    28    1
    48    30    28    1
    49    19    18    2
    50    28    29    1
    51    29    31    1
    52    18    17    1
    53    12    11    2
    54    22    20    1
    55    17    20    1
    56    17    16    1
    57    11    16   am
    58    11    10    1
    59    20    21    1
    60    10     9    1
    61    10    13    1
    62    21    23    1
    63    15    13    1
    64    13    14    1
    65     4     3    2
    66     3     2    1
    67    81    80    2
    68     2     1    1
    69     2     5    1
    70    80    82   am
    71    80    79    1
    72     5     6    1
    73    74    75    1
    74    78    79    1
    75    78    75    1
    76     7     6    2
    77     6     8   am
    78    75    76    1
    79    76    77    2
