@<TRIPOS>MOLECULE
tmp/5d5aA05.pdb
 98 90 0 0 0
SMALL
GASTEIGER

@<TRIPOS>ATOM
      1  N        -21.8340   54.2240   20.5300 N.3   204  ILE204     -0.1245
      2  CA       -22.6670   55.2750   21.1080 C.3   204  ILE204      0.1561
      3  C        -23.7760   55.6950   20.1420 C.2   204  ILE204      0.2260
      4  O        -24.8380   56.1540   20.5680 O.2   204  ILE204     -0.2867
      5  CB       -21.8240   56.5100   21.5160 C.3   204  ILE204      0.0252
      6  CG1      -22.6400   57.4550   22.4050 C.3   204  ILE204      0.0019
      7  CG2      -21.2680   57.2280   20.2930 C.3   204  ILE204      0.0019
      8  CD1      -21.9040   58.7150   22.7860 C.3   204  ILE204      0.0001
      9  N        -22.8780   62.6850   15.4410 N.3   269  ASN269     -0.1240
     10  CA       -21.4530   62.7400   15.7500 C.3   269  ASN269      0.1653
     11  C        -21.0200   64.1490   16.1340 C.2   269  ASN269      0.2266
     12  O        -20.1360   64.3320   16.9700 O.2   269  ASN269     -0.2867
     13  CB       -20.6260   62.2400   14.5630 C.3   269  ASN269      0.1155
     14  CG       -20.8230   60.7600   14.2980 C.2   269  ASN269      0.2627
     15  OD1      -21.2030   60.0030   15.1910 O.2   269  ASN269     -0.2716
     16  ND2      -20.5630   60.3390   13.0650 N.am  269  ASN269     -0.0877
     17  N        -22.4430   64.7350   19.6460 N.3   272  VAL272     -0.1231
     18  CA       -21.6030   64.0040   20.5920 C.3   272  VAL272      0.1692
     19  C        -20.3520   64.8010   20.9320 C.2   272  VAL272      0.2592
     20  O        -19.9770   64.9470   22.0980 O.2   272  VAL272     -0.2718
     21  CB       -21.1870   62.6280   20.0290 C.3   272  VAL272      0.0266
     22  CG1      -20.0100   62.0610   20.8100 C.3   272  VAL272      0.0020
     23  CG2      -22.3610   61.6690   20.0630 C.3   272  VAL272      0.0020
     24  N        -19.7200   65.3160   19.8870 N.am  273  ASP273     -0.1974
     25  CA       -18.5120   66.1250   19.9990 C.3   273  ASP273      0.1709
     26  C        -18.7380   67.3940   20.8070 C.2   273  ASP273      0.2293
     27  O        -17.8850   67.8030   21.6000 O.2   273  ASP273     -0.2864
     28  CB       -18.0120   66.4680   18.5960 C.3   273  ASP273      0.1436
     29  CG       -16.9190   67.5120   18.5970 C.2   273  ASP273      0.3671
     30  OD1      -15.7700   67.1630   18.2580 O.co2 273  ASP273     -0.2456
     31  OD2      -17.2160   68.6800   18.9080 O.co2 273  ASP273     -0.2456
     32  N        -19.1970   66.2990   24.5050 N.3   276  VAL276     -0.1231
     33  CA       -17.9200   65.9920   25.1410 C.3   276  VAL276      0.1692
     34  C        -17.1920   67.2640   25.5680 C.2   276  VAL276      0.2591
     35  O        -16.6880   67.3570   26.6880 O.2   276  VAL276     -0.2718
     36  CB       -17.0070   65.1740   24.2020 C.3   276  VAL276      0.0266
     37  CG1      -15.5910   65.1010   24.7540 C.3   276  VAL276      0.0020
     38  CG2      -17.5740   63.7800   23.9910 C.3   276  VAL276      0.0020
     39  N        -17.1500   68.2490   24.6770 N.am  277  ARG277     -0.1980
     40  CA       -16.4450   69.4940   24.9590 C.3   277  ARG277      0.1597
     41  C        -17.1120   70.3020   26.0650 C.2   277  ARG277      0.2287
     42  O        -16.4450   71.0390   26.7890 O.2   277  ARG277     -0.2864
     43  CB       -16.3310   70.3460   23.6960 C.3   277  ARG277      0.0334
     44  CG       -14.9280   70.8840   23.4570 C.3   277  ARG277      0.0492
     45  CD       -14.6510   71.0580   21.9770 C.3   277  ARG277      0.2205
     46  NE       -15.8760   71.3200   21.2270 N.pl3 277  ARG277     -0.0865
     47  CZ       -16.1380   70.8190   20.0250 C.cat 277  ARG277      0.5346
     48  NH1      -15.2610   70.0230   19.4280 N.pl3 277  ARG277      0.1354
     49  NH2      -17.2820   71.1100   19.4200 N.pl3 277  ARG277      0.1354
     50  N        -16.1090   68.5060   29.3260 N.3   280  LEU280     -0.1245
     51  CA       -14.7380   68.8450   29.6950 C.3   280  LEU280      0.1561
     52  C        -14.6300   70.2610   30.2610 C.2   280  LEU280      0.2260
     53  O        -13.6570   70.5940   30.9360 O.2   280  LEU280     -0.2867
     54  CB       -13.8090   68.6890   28.4880 C.3   280  LEU280      0.0270
     55  CG       -13.6780   67.2730   27.9180 C.3   280  LEU280      0.0019
     56  CD1      -12.6690   67.2340   26.7820 C.3   280  LEU280      0.0001
     57  CD2      -13.2940   66.2860   29.0100 C.3   280  LEU280      0.0001
     58  N        -15.6880   62.1380   33.8820 N.3   289  TYR289     -0.1241
     59  CA       -15.4730   61.7480   32.4920 C.3   289  TYR289      0.1605
     60  C        -14.0390   61.2920   32.2400 C.2   289  TYR289      0.2264
     61  O        -13.8090   60.3010   31.5460 O.2   289  TYR289     -0.2867
     62  CB       -15.8200   62.9080   31.5560 C.3   289  TYR289      0.0534
     63  CG       -15.7560   62.5620   30.0840 C.ar  289  TYR289     -0.0201
     64  CD1      -16.8540   62.0210   29.4290 C.ar  289  TYR289     -0.0009
     65  CD2      -14.5960   62.7780   29.3500 C.ar  289  TYR289     -0.0009
     66  CE1      -16.7990   61.7050   28.0840 C.ar  289  TYR289      0.0417
     67  CE2      -14.5310   62.4630   28.0070 C.ar  289  TYR289      0.0417
     68  CZ       -15.6350   61.9280   27.3790 C.ar  289  TYR289      0.1957
     69  OH       -15.5710   61.6140   26.0410 O.3   289  TYR289     -0.2866
     70  N        -14.1520   54.1600   27.7910 N.3   294  ALA294     -0.1245
     71  CA       -14.8700   54.5870   26.5920 C.3   294  ALA294      0.1562
     72  C        -16.3600   54.2530   26.6450 C.2   294  ALA294      0.2260
     73  O        -17.2030   55.1000   26.3460 O.2   294  ALA294     -0.2867
     74  CB       -14.2410   53.9600   25.3570 C.3   294  ALA294      0.0290
     75  N        -18.0990   56.2540   29.3060 N.3   297  ARG297     -0.1231
     76  CA       -18.1470   57.6320   28.8350 C.3   297  ARG297      0.1694
     77  C        -19.3600   57.8300   27.9350 C.2   297  ARG297      0.2591
     78  O        -20.0090   58.8730   27.9740 O.2   297  ARG297     -0.2718
     79  CB       -16.8640   58.0050   28.0890 C.3   297  ARG297      0.0321
     80  CG       -15.7370   58.4920   28.9880 C.3   297  ARG297      0.0489
     81  CD       -14.4600   58.7310   28.1970 C.3   297  ARG297      0.2205
     82  NE       -13.3820   59.2390   29.0400 N.pl3 297  ARG297     -0.0865
     83  CZ       -12.1200   59.3730   28.6440 C.cat 297  ARG297      0.5346
     84  NH1      -11.7690   59.0340   27.4110 N.pl3 297  ARG297      0.1354
     85  NH2      -11.2070   59.8450   29.4820 N.pl3 297  ARG297      0.1354
     86  N        -19.6680   56.8160   27.1310 N.am  298  ALA298     -0.1980
     87  CA       -20.8400   56.8600   26.2670 C.3   298  ALA298      0.1597
     88  C        -22.1200   56.8860   27.0970 C.2   298  ALA298      0.2287
     89  O        -23.0930   57.5450   26.7320 O.2   298  ALA298     -0.2864
     90  CB       -20.8450   55.6740   25.3160 C.3   298  ALA298      0.0319
     91  N        -22.4820   60.3600   28.4030 N.3   301  ILE301     -0.1245
     92  CA       -22.9070   61.2110   27.2950 C.3   301  ILE301      0.1561
     93  C        -24.3890   60.9840   27.0020 C.2   301  ILE301      0.2260
     94  O        -25.1240   61.9240   26.6930 O.2   301  ILE301     -0.2867
     95  CB       -22.0690   60.9480   26.0230 C.3   301  ILE301      0.0252
     96  CG1      -20.6200   61.3870   26.2390 C.3   301  ILE301      0.0019
     97  CG2      -22.6490   61.6880   24.8290 C.3   301  ILE301      0.0019
     98  CD1      -19.6660   60.9010   25.1670 C.3   301  ILE301      0.0001
@<TRIPOS>BOND
     1    16    14   am
     2    14    13    1
     3    14    15    2
     4    13    10    1
     5     9    10    1
     6    10    11    1
     7    11    12    2
     8    30    29   ar
     9    28    29    1
    10    28    25    1
    11    29    31   ar
    12    49    47    1
    13    48    47    1
    14    17    18    1
    15    24    25    1
    16    24    19   am
    17    25    26    1
    18    47    46    2
    19    21    23    1
    20    21    18    1
    21    21    22    1
    22     3     4    2
    23     3     2    1
    24     7     5    1
    25     1     2    1
    26    18    19    1
    27    26    27    2
    28    19    20    2
    29     2     5    1
    30    46    45    1
    31     5     6    1
    32    45    44    1
    33     6     8    1
    34    44    43    1
    35    43    40    1
    36    38    36    1
    37    36    37    1
    38    36    33    1
    39    32    33    1
    40    39    40    1
    41    39    34   am
    42    97    95    1
    43    40    41    1
    44    33    34    1
    45    98    96    1
    46    90    87    1
    47    74    71    1
    48    34    35    2
    49    95    96    1
    50    95    92    1
    51    69    68    1
    52    41    42    2
    53    87    88    1
    54    87    86    1
    55    73    72    2
    56    71    72    1
    57    71    70    1
    58    94    93    2
    59    89    88    2
    60    56    55    1
    61    93    92    1
    62    86    77   am
    63    92    91    1
    64    68    67   ar
    65    68    66   ar
    66    84    83    1
    67    55    54    1
    68    55    57    1
    69    77    78    2
    70    77    76    1
    71    67    65   ar
    72    66    64   ar
    73    79    76    1
    74    79    80    1
    75    81    80    1
    76    81    82    1
    77    54    51    1
    78    83    82    2
    79    83    85    1
    80    76    75    1
    81    50    51    1
    82    65    63   ar
    83    64    63   ar
    84    51    52    1
    85    63    62    1
    86    52    53    2
    87    61    60    2
    88    62    59    1
    89    60    59    1
    90    59    58    1
