@<TRIPOS>MOLECULE
tmp/5d5dA07.pdb
 104 97 0 0 0
SMALL
GASTEIGER

@<TRIPOS>ATOM
      1  N        150.0190  161.8950    8.1530 N.3   148  ILE148     -0.1245
      2  CA       150.4030  162.9540    9.0820 C.3   148  ILE148      0.1561
      3  C        149.1760  163.8220    9.3120 C.2   148  ILE148      0.2260
      4  O        148.5670  164.3290    8.3750 O.2   148  ILE148     -0.2867
      5  CB       151.7210  163.7490    8.7890 C.3   148  ILE148      0.0252
      6  CG1      152.0280  164.7450    9.9320 C.3   148  ILE148      0.0019
      7  CG2      151.7220  164.4570    7.4210 C.3   148  ILE148      0.0019
      8  CD1      153.2410  164.4250   10.7320 C.3   148  ILE148      0.0001
      9  N        149.5130  165.9720   17.3420 N.3   184  ILE184     -0.1231
     10  CA       150.2100  165.8110   16.0800 C.3   184  ILE184      0.1692
     11  C        150.4220  164.3240   15.9480 C.2   184  ILE184      0.2592
     12  O        150.9300  163.6720   16.8660 O.2   184  ILE184     -0.2718
     13  CB       151.5070  166.6800   15.9140 C.3   184  ILE184      0.0266
     14  CG1      152.4710  166.5520   17.1120 C.3   184  ILE184      0.0019
     15  CG2      151.1340  168.1450   15.6670 C.3   184  ILE184      0.0020
     16  CD1      153.9950  167.1530   16.8890 C.3   184  ILE184      0.0001
     17  N        149.9460  163.7650   14.8520 N.am  185  GLU185     -0.1966
     18  CA       150.0600  162.3370   14.6290 C.3   185  GLU185      0.1733
     19  C        150.6730  162.0370   13.2880 C.2   185  GLU185      0.2616
     20  O        150.5830  162.8500   12.3710 O.2   185  GLU185     -0.2715
     21  CB       148.7080  161.6140   14.8160 C.3   185  GLU185      0.0429
     22  CG       147.4790  162.5000   14.7340 C.3   185  GLU185      0.1163
     23  CD       146.1940  161.7590   15.0350 C.2   185  GLU185      0.3649
     24  OE1      145.9350  161.4730   16.2280 O.co2 185  GLU185     -0.2457
     25  OE2      145.4550  161.4500   14.0730 O.co2 185  GLU185     -0.2457
     26  N        151.3420  160.8840   13.1990 N.am  186  ALA186     -0.1977
     27  CA       151.9810  160.3540   11.9980 C.3   186  ALA186      0.1597
     28  C        151.8730  158.8500   12.1360 C.2   186  ALA186      0.2287
     29  O        152.1090  158.3000   13.2200 O.2   186  ALA186     -0.2864
     30  CB       153.4310  160.7820   11.9240 C.3   186  ALA186      0.0319
     31  N        153.0110  157.3880   15.6920 N.3   203  ALA203     -0.1231
     32  CA       153.7550  158.3300   16.4950 C.3   203  ALA203      0.1694
     33  C        152.8170  159.4770   16.7210 C.2   203  ALA203      0.2593
     34  O        152.3520  160.1150   15.7710 O.2   203  ALA203     -0.2718
     35  CB       155.0190  158.7940   15.7680 C.3   203  ALA203      0.0304
     36  N        152.5140  159.7180   17.9770 N.am  204  SER204     -0.1938
     37  CA       151.5780  160.7310   18.3820 C.3   204  SER204      0.2055
     38  C        152.1190  161.5090   19.5700 C.2   204  SER204      0.2642
     39  O        152.6570  160.9290   20.5220 O.2   204  SER204     -0.2714
     40  CB       150.2310  160.0770   18.7060 C.3   204  SER204      0.2130
     41  OG       149.4330  160.7880   19.6400 O.3   204  SER204     -0.2179
     42  N        151.9500  162.8240   19.5090 N.am  205  ALA205     -0.1977
     43  CA       152.3180  163.7490   20.5620 C.3   205  ALA205      0.1597
     44  C        151.1330  164.6870   20.7240 C.2   205  ALA205      0.2287
     45  O        150.6260  165.2150   19.7480 O.2   205  ALA205     -0.2864
     46  CB       153.5790  164.5120   20.2000 C.3   205  ALA205      0.0319
     47  N        151.2730  166.6370   28.6110 N.3   237  PHE237     -0.1241
     48  CA       151.7240  166.0320   27.3590 C.3   237  PHE237      0.1605
     49  C        151.4750  164.5360   27.3220 C.2   237  PHE237      0.2264
     50  O        151.6810  163.8290   28.3090 O.2   237  PHE237     -0.2867
     51  CB       153.2300  166.3250   27.1630 C.3   237  PHE237      0.0534
     52  CG       153.9280  165.7070   25.9690 C.ar  237  PHE237     -0.0203
     53  CD1      153.9900  166.3800   24.7500 C.ar  237  PHE237     -0.0042
     54  CD2      154.5840  164.4810   26.0820 C.ar  237  PHE237     -0.0042
     55  CE1      154.6820  165.8340   23.6580 C.ar  237  PHE237     -0.0003
     56  CE2      155.2550  163.9230   24.9850 C.ar  237  PHE237     -0.0003
     57  CZ       155.3110  164.6070   23.7830 C.ar  237  PHE237     -0.0000
     58  N        152.2680  161.0630   24.6930 N.3   239  VAL239     -0.1245
     59  CA       153.0040  160.5000   23.5820 C.3   239  VAL239      0.1561
     60  C        152.6600  159.0210   23.4460 C.2   239  VAL239      0.2260
     61  O        152.4310  158.3540   24.4450 O.2   239  VAL239     -0.2867
     62  CB       154.5570  160.7590   23.6610 C.3   239  VAL239      0.0252
     63  CG1      155.1770  160.1750   24.9250 C.3   239  VAL239      0.0019
     64  CG2      155.2890  160.2070   22.4280 C.3   239  VAL239      0.0019
     65  N        154.1360  155.9390   20.6490 N.3   241  LEU241     -0.1245
     66  CA       155.0460  155.6360   19.5620 C.3   241  LEU241      0.1561
     67  C        155.0430  154.1720   19.4260 C.2   241  LEU241      0.2260
     68  O        155.1300  153.4590   20.4100 O.2   241  LEU241     -0.2867
     69  CB       156.4890  156.0660   19.9250 C.3   241  LEU241      0.0270
     70  CG       156.7770  157.5430   20.1220 C.3   241  LEU241      0.0019
     71  CD1      157.8490  157.7190   21.1650 C.3   241  LEU241      0.0001
     72  CD2      157.2030  158.1910   18.8250 C.3   241  LEU241      0.0001
     73  N        155.8380  152.5370   22.8400 N.3   257  TYR257     -0.1241
     74  CA       156.1710  153.3850   23.9320 C.3   257  TYR257      0.1605
     75  C        155.1450  154.4850   24.0290 C.2   257  TYR257      0.2264
     76  O        154.9610  155.2390   23.0760 O.2   257  TYR257     -0.2867
     77  CB       157.5810  153.9630   23.8220 C.3   257  TYR257      0.0534
     78  CG       157.8160  154.9610   24.9260 C.ar  257  TYR257     -0.0201
     79  CD1      158.1340  154.5380   26.2140 C.ar  257  TYR257     -0.0009
     80  CD2      157.5960  156.3240   24.7200 C.ar  257  TYR257     -0.0009
     81  CE1      158.3560  155.4550   27.2380 C.ar  257  TYR257      0.0417
     82  CE2      157.7670  157.2470   25.7480 C.ar  257  TYR257      0.0417
     83  CZ       158.1540  156.8080   27.0040 C.ar  257  TYR257      0.1957
     84  OH       158.2810  157.7030   28.0300 O.3   257  TYR257     -0.2866
     85  N        153.6290  157.6280   26.8430 N.3   259  ARG259     -0.1245
     86  CA       153.8170  158.4080   28.0570 C.3   259  ARG259      0.1563
     87  C        152.7340  159.4540   28.1480 C.2   259  ARG259      0.2260
     88  O        152.5420  160.2300   27.2290 O.2   259  ARG259     -0.2867
     89  CB       155.2170  159.0700   28.1530 C.3   259  ARG259      0.0307
     90  CG       155.5360  159.6560   29.5300 C.3   259  ARG259      0.0489
     91  CD       156.7170  160.6020   29.4580 C.3   259  ARG259      0.2205
     92  NE       157.5770  160.5620   30.6450 N.pl3 259  ARG259     -0.0865
     93  CZ       157.9070  161.6260   31.3750 C.cat 259  ARG259      0.5346
     94  NH1      157.4240  162.8270   31.0720 N.pl3 259  ARG259      0.1354
     95  NH2      158.7100  161.4950   32.4230 N.pl3 259  ARG259      0.1354
     96  N        153.6000  155.6880   31.9580 N.3   305  GLN305     -0.1245
     97  CA       154.6160  155.3830   31.0060 C.3   305  GLN305      0.1566
     98  C        154.4720  153.8990   30.7430 C.2   305  GLN305      0.2260
     99  O        154.3950  153.1020   31.6920 O.2   305  GLN305     -0.2867
    100  CB       156.0020  155.7390   31.5390 C.3   305  GLN305      0.0367
    101  CG       157.0560  155.6400   30.4350 C.3   305  GLN305      0.0905
    102  CD       158.4430  155.9900   30.8840 C.2   305  GLN305      0.2608
    103  OE1      159.2060  155.1400   31.3700 O.2   305  GLN305     -0.2717
    104  NE2      158.8120  157.2390   30.6850 N.am  305  GLN305     -0.0878
@<TRIPOS>BOND
     1     7     5    1
     2     1     2    1
     3     4     3    2
     4     5     2    1
     5     5     6    1
     6     2     3    1
     7     6     8    1
     8    30    27    1
     9    27    28    1
    10    27    26    1
    11    28    29    2
    12    20    19    2
    13    26    19   am
    14    19    18    1
    15    25    23   ar
    16    18    21    1
    17    18    17    1
    18    22    21    1
    19    22    23    1
    20    17    11   am
    21    23    24   ar
    22    15    13    1
    23    31    32    1
    24    35    32    1
    25    34    33    2
    26    13    10    1
    27    13    14    1
    28    11    10    1
    29    11    12    2
    30    10     9    1
    31    32    33    1
    32    33    36   am
    33    16    14    1
    34    36    37    1
    35    37    40    1
    36    37    38    1
    37    40    41    1
    38    72    70    1
    39    67    66    1
    40    67    68    2
    41    42    38   am
    42    42    43    1
    43    66    69    1
    44    66    65    1
    45    38    39    2
    46    45    44    2
    47    69    70    1
    48    70    71    1
    49    46    43    1
    50    43    44    1
    51    64    62    1
    52    73    74    1
    53    76    75    2
    54    60    59    1
    55    60    61    2
    56    59    62    1
    57    59    58    1
    58    55    57   ar
    59    55    53   ar
    60    62    63    1
    61    57    56   ar
    62    77    74    1
    63    77    78    1
    64    74    75    1
    65    80    78   ar
    66    80    82   ar
    67    53    52   ar
    68    78    79   ar
    69    56    54   ar
    70    82    83   ar
    71    52    54   ar
    72    52    51    1
    73    79    81   ar
    74    85    86    1
    75    83    81   ar
    76    83    84    1
    77    51    48    1
    78    88    87    2
    79    49    48    1
    80    49    50    2
    81    48    47    1
    82    86    87    1
    83    86    89    1
    84    89    90    1
    85    91    90    1
    86    91    92    1
    87   101   102    1
    88   101   100    1
    89    92    93    2
    90   104   102   am
    91    98    97    1
    92    98    99    2
    93   102   103    2
    94    97   100    1
    95    97    96    1
    96    94    93    1
    97    93    95    1
