@<TRIPOS>MOLECULE
tmp/5d5dA11.pdb
 108 107 0 0 0
SMALL
GASTEIGER

@<TRIPOS>ATOM
      1  N        121.4590  155.4010   17.0580 N.3    67  PHE67      -0.1227
      2  CA       120.2720  155.9490   16.4290 C.3    67  PHE67       0.1736
      3  C        120.6880  157.2000   15.7150 C.2    67  PHE67       0.2595
      4  O        120.9290  158.2450   16.3200 O.2    67  PHE67      -0.2718
      5  CB       119.0950  156.1500   17.4050 C.3    67  PHE67       0.0547
      6  CG       119.3570  156.9060   18.6810 C.ar   67  PHE67      -0.0202
      7  CD1      119.2630  158.2960   18.7190 C.ar   67  PHE67      -0.0042
      8  CD2      119.6350  156.2310   19.8630 C.ar   67  PHE67      -0.0042
      9  CE1      119.4630  158.9970   19.9100 C.ar   67  PHE67      -0.0003
     10  CE2      119.7950  156.9270   21.0600 C.ar   67  PHE67      -0.0003
     11  CZ       119.7130  158.3090   21.0710 C.ar   67  PHE67      -0.0000
     12  N        120.9360  157.0600   14.4390 N.am   68  TRP68      -0.1962
     13  CA       121.3720  158.2310   13.7190 C.3    68  TRP68       0.1771
     14  C        120.7570  158.3040   12.3450 C.2    68  TRP68       0.2619
     15  O        120.1640  157.3600   11.8420 O.2    68  TRP68      -0.2715
     16  CB       122.9320  158.3910   13.6900 C.3    68  TRP68       0.0590
     17  CG       123.7280  157.1970   13.2440 C.ar   68  TRP68       0.0006
     18  CD1      124.4400  156.3520   14.0360 C.ar   68  TRP68       0.0946
     19  CD2      123.8700  156.7050   11.8990 C.ar   68  TRP68       0.0152
     20  NE1      125.0540  155.3870   13.2700 N.ar   68  TRP68      -0.2442
     21  CE2      124.7320  155.5890   11.9510 C.ar   68  TRP68       0.0810
     22  CE3      123.4010  157.1360   10.6430 C.ar   68  TRP68       0.0012
     23  CZ2      125.1280  154.8930   10.7960 C.ar   68  TRP68       0.0191
     24  CZ3      123.7890  156.4450    9.5030 C.ar   68  TRP68       0.0001
     25  CH2      124.6420  155.3410    9.5840 C.ar   68  TRP68       0.0015
     26  N        120.8340  159.4920   11.8180 N.am   69  VAL69      -0.1977
     27  CA       120.4230  159.9450   10.5130 C.3    69  VAL69       0.1596
     28  C        121.7060  160.5660    9.9340 C.2    69  VAL69       0.2287
     29  O        122.5370  161.1450   10.6570 O.2    69  VAL69      -0.2864
     30  CB       119.2090  160.9210   10.6250 C.3    69  VAL69       0.0276
     31  CG1      119.5820  162.2590   11.2820 C.3    69  VAL69       0.0022
     32  CG2      118.5380  161.1280    9.2770 C.3    69  VAL69       0.0022
     33  N        124.2460  162.6310   12.3040 N.3    84  PHE84      -0.1227
     34  CA       123.6010  163.2430   13.4350 C.3    84  PHE84       0.1736
     35  C        122.8020  162.1950   14.1800 C.2    84  PHE84       0.2596
     36  O        122.0190  161.4580   13.5650 O.2    84  PHE84      -0.2718
     37  CB       122.7370  164.4300   12.9680 C.3    84  PHE84       0.0547
     38  CG       121.8550  165.0390   14.0410 C.ar   84  PHE84      -0.0202
     39  CD1      122.4090  165.7180   15.1170 C.ar   84  PHE84      -0.0042
     40  CD2      120.4710  164.9540   13.9570 C.ar   84  PHE84      -0.0042
     41  CE1      121.5960  166.2980   16.0930 C.ar   84  PHE84      -0.0003
     42  CE2      119.6560  165.5350   14.9360 C.ar   84  PHE84      -0.0003
     43  CZ       120.2260  166.1940   16.0050 C.ar   84  PHE84      -0.0000
     44  N        123.0180  162.1370   15.4900 N.am   85  GLY85      -0.1957
     45  CA       122.3470  161.2200   16.4020 C.3    85  GLY85       0.1869
     46  C        123.3390  160.5300   17.3140 C.2    85  GLY85       0.2309
     47  O        124.4840  160.9730   17.3940 O.2    85  GLY85      -0.2863
     48  N        125.7110  160.8600   21.3320 N.3   102  GLU102     -0.1231
     49  CA       124.8750  161.7930   20.5930 C.3   102  GLU102      0.1699
     50  C        125.8310  162.8640   20.1190 C.2   102  GLU102      0.2592
     51  O        126.5160  163.5100   20.9150 O.2   102  GLU102     -0.2718
     52  CB       123.7400  162.3700   21.4490 C.3   102  GLU102      0.0402
     53  CG       122.9100  161.3210   22.1620 C.3   102  GLU102      0.1161
     54  CD       123.3400  161.0640   23.5950 C.2   102  GLU102      0.3649
     55  OE1      124.5360  160.7750   23.8300 O.co2 102  GLU102     -0.2457
     56  OE2      122.4770  161.1730   24.4920 O.co2 102  GLU102     -0.2457
     57  N        125.9790  162.9310   18.8200 N.am  103  ALA103     -0.1966
     58  CA       126.9020  163.8450   18.1920 C.3   103  ALA103      0.1728
     59  C        126.3340  164.3660   16.9060 C.2   103  ALA103      0.2616
     60  O        125.3560  163.8270   16.3910 O.2   103  ALA103     -0.2715
     61  CB       128.2260  163.1250   17.9130 C.3   103  ALA103      0.0334
     62  N        126.9270  165.4590   16.4250 N.am  104  LEU104     -0.1977
     63  CA       126.7000  166.0350   15.1090 C.3   104  LEU104      0.1596
     64  C        128.1140  165.9750   14.5750 C.2   104  LEU104      0.2287
     65  O        128.9530  166.7520   15.0100 O.2   104  LEU104     -0.2864
     66  CB       126.1500  167.4750   15.1110 C.3   104  LEU104      0.0297
     67  CG       126.0500  168.1460   13.7120 C.3   104  LEU104      0.0022
     68  CD1      125.2300  167.2970   12.7230 C.3   104  LEU104      0.0001
     69  CD2      125.4920  169.5530   13.7980 C.3   104  LEU104      0.0001
     70  N        130.7130  167.8230   17.1830 N.3   119  VAL119     -0.1245
     71  CA       130.2780  168.2460   18.4980 C.3   119  VAL119      0.1561
     72  C        129.5260  167.0350   19.0620 C.2   119  VAL119      0.2260
     73  O        128.6880  166.4400   18.3620 O.2   119  VAL119     -0.2867
     74  CB       129.4310  169.5680   18.4890 C.3   119  VAL119      0.0252
     75  CG1      128.3370  169.5600   17.4080 C.3   119  VAL119      0.0019
     76  CG2      128.8460  169.8760   19.8730 C.3   119  VAL119      0.0019
     77  N        127.6890  165.4080   22.8300 N.3   121  GLN121     -0.1245
     78  CA       127.1120  165.6730   24.1300 C.3   121  GLN121      0.1566
     79  C        126.1530  164.5320   24.4520 C.2   121  GLN121      0.2260
     80  O        125.2920  164.2100   23.6240 O.2   121  GLN121     -0.2867
     81  CB       126.2890  166.9710   24.0480 C.3   121  GLN121      0.0367
     82  CG       126.5860  167.9790   25.1450 C.3   121  GLN121      0.0905
     83  CD       125.5040  169.0250   25.3000 C.2   121  GLN121      0.2608
     84  OE1      125.1010  169.6930   24.3390 O.2   121  GLN121     -0.2717
     85  NE2      125.0300  169.2170   26.5250 N.am  121  GLN121     -0.0878
     86  N        122.9160  163.1230   26.3670 N.3   123  PHE123     -0.1241
     87  CA       121.6600  163.6350   26.9130 C.3   123  PHE123      0.1605
     88  C        121.0260  162.5190   27.7410 C.2   123  PHE123      0.2264
     89  O        120.1740  162.7630   28.6010 O.2   123  PHE123     -0.2867
     90  CB       120.7520  164.1600   25.7860 C.3   123  PHE123      0.0534
     91  CG       121.3820  165.3450   25.0870 C.ar  123  PHE123     -0.0203
     92  CD1      121.3370  166.6150   25.6550 C.ar  123  PHE123     -0.0042
     93  CD2      122.0630  165.1840   23.8820 C.ar  123  PHE123     -0.0042
     94  CE1      121.9420  167.7060   25.0240 C.ar  123  PHE123     -0.0003
     95  CE2      122.6750  166.2730   23.2520 C.ar  123  PHE123     -0.0003
     96  CZ       122.6070  167.5280   23.8260 C.ar  123  PHE123     -0.0000
     97  N        120.5770  155.8410   27.3500 N.3   126  TYR126     -0.1241
     98  CA       119.4140  155.1170   26.8300 C.3   126  TYR126      0.1605
     99  C        119.3210  153.6570   27.2890 C.2   126  TYR126      0.2264
    100  O        118.6960  152.8530   26.6110 O.2   126  TYR126     -0.2867
    101  CB       119.3500  155.2470   25.2910 C.3   126  TYR126      0.0534
    102  CG       119.4970  156.6840   24.8360 C.ar  126  TYR126     -0.0201
    103  CD1      118.3910  157.5260   24.7530 C.ar  126  TYR126     -0.0009
    104  CD2      120.7540  157.2340   24.5930 C.ar  126  TYR126     -0.0009
    105  CE1      118.5280  158.8680   24.4040 C.ar  126  TYR126      0.0417
    106  CE2      120.9050  158.5760   24.2600 C.ar  126  TYR126      0.0417
    107  CZ       119.7880  159.3940   24.1680 C.ar  126  TYR126      0.1957
    108  OH       119.9230  160.7100   23.7900 O.3   126  TYR126     -0.2866
@<TRIPOS>BOND
     1    32    30    1
     2    24    25   ar
     3    24    22   ar
     4    25    23   ar
     5    28    27    1
     6    28    29    2
     7    27    30    1
     8    27    26    1
     9    30    31    1
    10    22    19   ar
    11    23    21   ar
    12    26    14   am
    13    15    14    2
    14    19    21   ar
    15    19    17   ar
    16    21    20   ar
    17    33    34    1
    18    14    13    1
    19    68    67    1
    20    37    34    1
    21    37    38    1
    22    17    16    1
    23    17    18   ar
    24    20    18   ar
    25    34    35    1
    26    36    35    2
    27    16    13    1
    28    67    69    1
    29    67    66    1
    30    13    12    1
    31    40    38   ar
    32    40    42   ar
    33    38    39   ar
    34    35    44   am
    35    12     3   am
    36    64    65    2
    37    64    63    1
    38    42    43   ar
    39    63    66    1
    40    63    62    1
    41    39    41   ar
    42    44    45    1
    43     3     4    2
    44     3     2    1
    45    43    41   ar
    46    60    59    2
    47    45    46    1
    48    62    59   am
    49     2     1    1
    50     2     5    1
    51    59    58    1
    52    70    71    1
    53    46    47    2
    54     5     6    1
    55    75    74    1
    56    61    58    1
    57    58    57    1
    58    73    72    2
    59    74    71    1
    60    74    76    1
    61    71    72    1
    62     6     7   ar
    63     6     8   ar
    64     7     9   ar
    65    57    50   am
    66     8    10   ar
    67     9    11   ar
    68    50    49    1
    69    50    51    2
    70    49    48    1
    71    49    52    1
    72    10    11   ar
    73    52    53    1
    74    53    54    1
    75    77    78    1
    76    95    96   ar
    77    95    93   ar
    78    54    55   ar
    79    54    56   ar
    80    80    79    2
    81   108   107    1
    82    96    94   ar
    83    93    91   ar
    84    81    78    1
    85    81    82    1
    86    78    79    1
    87   107   106   ar
    88   107   105   ar
    89   106   104   ar
    90    84    83    2
    91   105   103   ar
    92   104   102   ar
    93   103   102   ar
    94   102   101    1
    95    94    92   ar
    96    91    92   ar
    97    91    90    1
    98    82    83    1
    99   101    98    1
   100    83    85   am
   101    90    87    1
   102    86    87    1
   103   100    99    2
   104    98    99    1
   105    98    97    1
   106    87    88    1
   107    88    89    2
