@<TRIPOS>MOLECULE
tmp/5d5dA03.pdb
 105 101 0 0 0
SMALL
GASTEIGER

@<TRIPOS>ATOM
      1  N        126.2620  163.9460   25.6510 N.3   122  ARG122     -0.1245
      2  CA       125.3100  162.9260   26.1000 C.3   122  ARG122      0.1563
      3  C        124.0940  163.6010   26.7110 C.2   122  ARG122      0.2260
      4  O        124.2250  164.5360   27.4950 O.2   122  ARG122     -0.2867
      5  CB       125.9290  161.9410   27.1200 C.3   122  ARG122      0.0307
      6  CG       127.0540  161.1550   26.5150 C.3   122  ARG122      0.0489
      7  CD       127.5990  160.0400   27.3520 C.3   122  ARG122      0.2205
      8  NE       128.9180  159.6610   26.8460 N.pl3 122  ARG122     -0.0865
      9  CZ       129.1430  158.7550   25.9070 C.cat 122  ARG122      0.5346
     10  NH1      128.1380  158.0720   25.3820 N.pl3 122  ARG122      0.1354
     11  NH2      130.3810  158.4840   25.5250 N.pl3 122  ARG122      0.1354
     12  N        122.0340  157.7570   28.3110 N.3   125  GLU125     -0.1245
     13  CA       122.8250  156.5880   27.9380 C.3   125  GLU125      0.1567
     14  C        121.8800  155.4860   27.4070 C.2   125  GLU125      0.2260
     15  O        122.3080  154.3880   27.0430 O.2   125  GLU125     -0.2867
     16  CB       123.7390  156.1390   29.0830 C.3   125  GLU125      0.0388
     17  CG       125.1330  156.7270   28.9390 C.3   125  GLU125      0.1160
     18  CD       126.2310  155.7950   28.4540 C.2   125  GLU125      0.3649
     19  OE1      127.4100  156.2170   28.4840 O.co2 125  GLU125     -0.2457
     20  OE2      125.9260  154.6470   28.0550 O.co2 125  GLU125     -0.2457
     21  N        128.6200  167.4730   29.6470 N.3   131  ARG131     -0.1245
     22  CA       129.8520  167.8930   28.9830 C.3   131  ARG131      0.1563
     23  C        129.6960  168.0240   27.4620 C.2   131  ARG131      0.2260
     24  O        129.2190  167.1030   26.8000 O.2   131  ARG131     -0.2867
     25  CB       130.9370  166.8420   29.2840 C.3   131  ARG131      0.0307
     26  CG       132.3490  167.2020   28.8570 C.3   131  ARG131      0.0489
     27  CD       133.2970  166.0840   29.2050 C.3   131  ARG131      0.2205
     28  NE       133.3810  165.8660   30.6500 N.pl3 131  ARG131     -0.0865
     29  CZ       133.6250  164.6920   31.2190 C.cat 131  ARG131      0.5346
     30  NH1      133.7970  163.6100   30.4800 N.pl3 131  ARG131      0.1354
     31  NH2      133.7160  164.5960   32.5290 N.pl3 131  ARG131      0.1354
     32  N        131.6840  168.1880   23.9680 N.3   133  HIS133     -0.1241
     33  CA       132.9380  167.7990   23.3340 C.3   133  HIS133      0.1621
     34  C        132.8870  168.3850   21.9490 C.2   133  HIS133      0.2264
     35  O        131.8790  168.2490   21.2570 O.2   133  HIS133     -0.2867
     36  CB       133.0770  166.2720   23.2170 C.3   133  HIS133      0.0745
     37  CG       133.2810  165.5510   24.5100 C.ar  133  HIS133      0.0817
     38  ND1      134.5250  165.4560   25.0900 N.ar  133  HIS133     -0.2268
     39  CD2      132.4020  164.8270   25.2380 C.ar  133  HIS133      0.1154
     40  CE1      134.3680  164.7120   26.1670 C.ar  133  HIS133      0.1986
     41  NE2      133.1020  164.3120   26.3000 N.ar  133  HIS133     -0.2212
     42  N        130.3940  154.5430   36.9410 N.3   170  ASN170     -0.1225
     43  CA       131.1190  154.7170   35.6750 C.3   170  ASN170      0.1785
     44  C        130.4940  155.8250   34.8300 C.2   170  ASN170      0.2597
     45  O        131.2220  156.5400   34.1350 O.2   170  ASN170     -0.2718
     46  CB       131.2490  153.4040   34.9020 C.3   170  ASN170      0.1169
     47  CG       132.3270  152.5010   35.4540 C.2   170  ASN170      0.2627
     48  OD1      133.4710  152.4900   34.9790 O.2   170  ASN170     -0.2716
     49  ND2      131.9890  151.7340   36.4840 N.am  170  ASN170     -0.0877
     50  N        129.1560  156.0180   34.9630 N.am  171  LEU171     -0.1966
     51  CA       128.3710  157.0540   34.2750 C.3   171  LEU171      0.1728
     52  C        128.6400  158.4650   34.8480 C.2   171  LEU171      0.2616
     53  O        128.1390  159.4530   34.3200 O.2   171  LEU171     -0.2715
     54  CB       126.8650  156.7180   34.3820 C.3   171  LEU171      0.0311
     55  CG       126.0370  156.5710   33.0930 C.3   171  LEU171      0.0022
     56  CD1      125.8130  157.9200   32.4060 C.3   171  LEU171      0.0001
     57  CD2      126.6180  155.5040   32.1550 C.3   171  LEU171      0.0001
     58  N        129.4270  158.5500   35.9260 N.am  172  ASP172     -0.1957
     59  CA       129.7880  159.8060   36.5740 C.3   172  ASP172      0.1840
     60  C        130.9670  160.4990   35.9130 C.2   172  ASP172      0.2622
     61  O        131.7900  159.8780   35.2230 O.2   172  ASP172     -0.2715
     62  CB       130.0930  159.5940   38.0720 C.3   172  ASP172      0.1450
     63  CG       128.9370  159.8440   39.0200 C.2   172  ASP172      0.3671
     64  OD1      128.1020  160.7210   38.7220 O.co2 172  ASP172     -0.2456
     65  OD2      128.9220  159.2320   40.1060 O.co2 172  ASP172     -0.2456
     66  N        131.0430  161.7990   36.1560 N.am  173  LYS173     -0.1963
     67  CA       132.1140  162.6500   35.7010 C.3   173  LYS173      0.1728
     68  C        133.2620  162.4960   36.6710 C.2   173  LYS173      0.2617
     69  O        133.0640  162.4910   37.8850 O.2   173  LYS173     -0.2715
     70  CB       131.6680  164.1170   35.6910 C.3   173  LYS173      0.0311
     71  CG       130.8590  164.4960   34.4800 C.3   173  LYS173      0.0038
     72  CD       130.2220  165.8340   34.6880 C.3   173  LYS173      0.0206
     73  CE       129.5120  166.2930   33.4500 C.3   173  LYS173      0.1093
     74  NZ       128.9930  167.6460   33.6600 N.3   173  LYS173     -0.1314
     75  N        134.4600  162.3900   36.1390 N.am  174  THR174     -0.1937
     76  CA       135.6590  162.3330   36.9430 C.3   174  THR174      0.2028
     77  C        136.3850  163.6320   36.7060 C.2   174  THR174      0.2642
     78  O        137.3170  163.9660   37.4430 O.2   174  THR174     -0.2714
     79  CB       136.4900  161.1190   36.6070 C.3   174  THR174      0.1808
     80  OG1      136.9030  161.2370   35.2570 O.3   174  THR174     -0.2208
     81  CG2      135.7420  159.8040   36.8520 C.3   174  THR174      0.0379
     82  N        135.9360  164.3980   35.7030 N.am  175  TYR175     -0.1973
     83  CA       136.5660  165.6860   35.4350 C.3   175  TYR175      0.1639
     84  C        135.5600  166.7110   34.9280 C.2   175  TYR175      0.2290
     85  O        134.4950  166.3560   34.4460 O.2   175  TYR175     -0.2864
     86  CB       137.8290  165.5620   34.5160 C.3   175  TYR175      0.0560
     87  CG       137.5390  165.5160   33.0330 C.ar  175  TYR175     -0.0198
     88  CD1      137.5450  166.6780   32.2650 C.ar  175  TYR175     -0.0009
     89  CD2      137.2040  164.3220   32.4050 C.ar  175  TYR175     -0.0009
     90  CE1      137.2170  166.6540   30.9120 C.ar  175  TYR175      0.0417
     91  CE2      136.9230  164.2750   31.0360 C.ar  175  TYR175      0.0417
     92  CZ       136.9180  165.4460   30.2970 C.ar  175  TYR175      0.1957
     93  OH       136.6260  165.4080   28.9600 O.3   175  TYR175     -0.2866
     94  N        137.8710  161.0230   27.7660 N.3   275  GLY275     -0.1210
     95  CA       136.7900  160.3020   28.4210 C.3   275  GLY275      0.1956
     96  C        135.8880  159.6300   27.3980 C.2   275  GLY275      0.2611
     97  O        134.9680  158.9120   27.7760 O.2   275  GLY275     -0.2717
     98  N        136.1400  159.8570   26.0870 N.am  276  LEU276     -0.1979
     99  CA       135.4040  159.2380   24.9770 C.3   276  LEU276      0.1596
    100  C        136.1770  158.0220   24.4380 C.2   276  LEU276      0.2287
    101  O        135.6610  157.2990   23.5820 O.2   276  LEU276     -0.2864
    102  CB       135.1870  160.2490   23.8290 C.3   276  LEU276      0.0297
    103  CG       134.4510  161.5770   24.1060 C.3   276  LEU276      0.0022
    104  CD1      134.1510  162.2810   22.8240 C.3   276  LEU276      0.0001
    105  CD2      133.1370  161.3520   24.8320 C.3   276  LEU276      0.0001
@<TRIPOS>BOND
     1    35    34    2
     2    34    33    1
     3   104   103    1
     4    36    33    1
     5    36    37    1
     6    33    32    1
     7   101   100    2
     8   102   103    1
     9   102    99    1
    10   103   105    1
    11   100    99    1
    12    37    38   ar
    13    37    39   ar
    14    99    98    1
    15    38    40   ar
    16    39    41   ar
    17    10     9    1
    18    11     9    1
    19     1     2    1
    20     9     8    2
    21    98    96   am
    22     2     3    1
    23     2     5    1
    24    40    41   ar
    25     6     5    1
    26     6     7    1
    27     3     4    2
    28    24    23    2
    29     8     7    1
    30    15    14    2
    31    96    97    2
    32    96    95    1
    33    14    13    1
    34    23    22    1
    35    94    95    1
    36    13    12    1
    37    13    16    1
    38    20    18   ar
    39    18    19   ar
    40    18    17    1
    41    26    27    1
    42    26    25    1
    43    17    16    1
    44    93    92    1
    45    22    25    1
    46    22    21    1
    47    27    28    1
    48    92    90   ar
    49    92    91   ar
    50    30    29    1
    51    28    29    2
    52    90    88   ar
    53    91    89   ar
    54    29    31    1
    55    57    55    1
    56    88    87   ar
    57    89    87   ar
    58    56    55    1
    59    87    86    1
    60    55    54    1
    61    73    74    1
    62    73    72    1
    63    45    44    2
    64    51    54    1
    65    51    52    1
    66    51    50    1
    67    53    52    2
    68    85    84    2
    69    71    72    1
    70    71    70    1
    71    86    83    1
    72    44    50   am
    73    44    43    1
    74    52    58   am
    75    46    47    1
    76    46    43    1
    77    84    83    1
    78    48    47    2
    79    61    60    2
    80    80    79    1
    81    83    82    1
    82    47    49   am
    83    43    42    1
    84    70    67    1
    85    67    66    1
    86    67    68    1
    87    82    77   am
    88    60    66   am
    89    60    59    1
    90    58    59    1
    91    75    68   am
    92    75    76    1
    93    59    62    1
    94    79    81    1
    95    79    76    1
    96    68    69    2
    97    77    76    1
    98    77    78    2
    99    62    63    1
   100    64    63   ar
   101    63    65   ar
