@<TRIPOS>MOLECULE
tmp/5d5dA09.pdb
 111 115 0 0 0
SMALL
GASTEIGER

@<TRIPOS>ATOM
      1  N        118.7290  145.4600    5.2060 N.3     2  ASN2       -0.1240
      2  CA       118.0860  146.5170    5.9860 C.3     2  ASN2        0.1653
      3  C        118.1290  146.2490    7.4860 C.2     2  ASN2        0.2266
      4  O        117.8640  147.1590    8.2830 O.2     2  ASN2       -0.2867
      5  CB       116.6380  146.7420    5.5160 C.3     2  ASN2        0.1155
      6  CG       116.5050  147.5530    4.2490 C.2     2  ASN2        0.2627
      7  OD1      115.5170  147.4390    3.5290 O.2     2  ASN2       -0.2716
      8  ND2      117.4630  148.4310    3.9580 N.am    2  ASN2       -0.0877
      9  N        118.9300  148.1650   12.3950 N.3    38  ALA38      -0.1231
     10  CA       118.1310  148.5780   11.2710 C.3    38  ALA38       0.1694
     11  C        118.8700  149.6420   10.5140 C.2    38  ALA38       0.2592
     12  O        119.1820  150.6770   11.0690 O.2    38  ALA38      -0.2718
     13  CB       116.8020  149.1240   11.7680 C.3    38  ALA38       0.0304
     14  N        119.1930  149.3820    9.2660 N.am   39  PHE39      -0.1962
     15  CA       119.8420  150.3680    8.4120 C.3    39  PHE39       0.1771
     16  C        118.9460  150.6430    7.2030 C.2    39  PHE39       0.2620
     17  O        118.4440  149.7140    6.5820 O.2    39  PHE39      -0.2715
     18  CB       121.2640  149.9370    7.9880 C.3    39  PHE39       0.0574
     19  CG       121.9520  150.9560    7.1110 C.ar   39  PHE39      -0.0200
     20  CD1      122.4160  152.1560    7.6420 C.ar   39  PHE39      -0.0042
     21  CD2      122.0830  150.7440    5.7410 C.ar   39  PHE39      -0.0042
     22  CE1      123.0280  153.1160    6.8250 C.ar   39  PHE39      -0.0003
     23  CE2      122.6850  151.7100    4.9230 C.ar   39  PHE39      -0.0003
     24  CZ       123.1570  152.8890    5.4750 C.ar   39  PHE39      -0.0000
     25  N        118.7420  151.9170    6.9170 N.am   40  GLY40      -0.1940
     26  CA       117.9640  152.3940    5.7830 C.3    40  GLY40       0.2014
     27  C        118.7530  153.4380    5.0240 C.2    40  GLY40       0.2639
     28  O        119.4340  154.2500    5.6450 O.2    40  GLY40      -0.2714
     29  N        118.7050  153.4070    3.6820 N.am   41  GLN41      -0.1963
     30  CA       119.4550  154.3540    2.8510 C.3    41  GLN41       0.1733
     31  C        118.6090  154.8090    1.6780 C.2    41  GLN41       0.2616
     32  O        118.3170  154.0110    0.7870 O.2    41  GLN41      -0.2715
     33  CB       120.7880  153.7330    2.3870 C.3    41  GLN41       0.0408
     34  CG       121.7750  154.7320    1.7940 C.3    41  GLN41       0.0908
     35  CD       123.1040  154.0930    1.4840 C.2    41  GLN41       0.2608
     36  OE1      123.1940  153.1200    0.7230 O.2    41  GLN41      -0.2717
     37  NE2      124.1730  154.6480    2.0510 N.am   41  GLN41      -0.0878
     38  N        118.2050  156.0910    1.6960 N.am   42  TRP42      -0.1974
     39  CA       117.3790  156.7140    0.6620 C.3    42  TRP42       0.1640
     40  C        118.1650  157.8270    0.0040 C.2    42  TRP42       0.2290
     41  O        118.0050  159.0050    0.3370 O.2    42  TRP42      -0.2864
     42  CB       116.0470  157.2390    1.2300 C.3    42  TRP42       0.0576
     43  CG       115.3680  156.2990    2.1820 C.ar   42  TRP42       0.0006
     44  CD1      114.3520  155.4310    1.9020 C.ar   42  TRP42       0.0946
     45  CD2      115.6530  156.1500    3.5790 C.ar   42  TRP42       0.0152
     46  NE1      113.9900  154.7440    3.0370 N.ar   42  TRP42      -0.2442
     47  CE2      114.7750  155.1660    4.0830 C.ar   42  TRP42       0.0810
     48  CE3      116.5800  156.7440    4.4520 C.ar   42  TRP42       0.0012
     49  CZ2      114.7900  154.7700    5.4230 C.ar   42  TRP42       0.0191
     50  CZ3      116.5900  156.3530    5.7770 C.ar   42  TRP42       0.0001
     51  CH2      115.7010  155.3810    6.2520 C.ar   42  TRP42       0.0015
     52  N        119.7070  156.1970    7.5520 N.3    47  ALA47      -0.1231
     53  CA       119.2660  156.1700    8.9350 C.3    47  ALA47       0.1694
     54  C        119.6400  154.8320    9.4910 C.2    47  ALA47       0.2592
     55  O        119.5630  153.8080    8.8150 O.2    47  ALA47      -0.2718
     56  CB       117.7630  156.4030    9.0460 C.3    47  ALA47       0.0304
     57  N        120.0980  154.8410   10.7000 N.am   48  TYR48      -0.1962
     58  CA       120.5360  153.6180   11.3330 C.3    48  TYR48       0.1771
     59  C        120.0860  153.5810   12.7350 C.2    48  TYR48       0.2619
     60  O        119.9710  154.6230   13.3790 O.2    48  TYR48      -0.2715
     61  CB       122.0610  153.5290   11.2780 C.3    48  TYR48       0.0574
     62  CG       122.6590  152.3240   11.9520 C.ar   48  TYR48      -0.0198
     63  CD1      122.5730  151.0620   11.3670 C.ar   48  TYR48      -0.0009
     64  CD2      123.3530  152.4460   13.1490 C.ar   48  TYR48      -0.0009
     65  CE1      123.1390  149.9470   11.9740 C.ar   48  TYR48       0.0417
     66  CE2      123.9280  151.3370   13.7650 C.ar   48  TYR48       0.0417
     67  CZ       123.8330  150.0890   13.1630 C.ar   48  TYR48       0.1957
     68  OH       124.3900  148.9800   13.7510 O.3    48  TYR48      -0.2866
     69  N        119.8140  152.3680   13.2030 N.am   49  PHE49      -0.1974
     70  CA       119.4380  152.0950   14.5690 C.3    49  PHE49       0.1639
     71  C        120.0690  150.7930   15.0730 C.2    49  PHE49       0.2290
     72  O        119.8700  149.7510   14.4870 O.2    49  PHE49      -0.2864
     73  CB       117.9140  152.0300   14.7360 C.3    49  PHE49       0.0560
     74  CG       117.5180  151.6300   16.1330 C.ar   49  PHE49      -0.0200
     75  CD1      117.4280  152.5790   17.1470 C.ar   49  PHE49      -0.0042
     76  CD2      117.2960  150.2970   16.4560 C.ar   49  PHE49      -0.0042
     77  CE1      117.1090  152.1980   18.4560 C.ar   49  PHE49      -0.0003
     78  CE2      116.9740  149.9220   17.7680 C.ar   49  PHE49      -0.0003
     79  CZ       116.8820  150.8750   18.7540 C.ar   49  PHE49      -0.0000
     80  N        121.4590  155.4010   17.0580 N.3    67  PHE67      -0.1227
     81  CA       120.2720  155.9490   16.4290 C.3    67  PHE67       0.1736
     82  C        120.6880  157.2000   15.7150 C.2    67  PHE67       0.2595
     83  O        120.9290  158.2450   16.3200 O.2    67  PHE67      -0.2718
     84  CB       119.0950  156.1500   17.4050 C.3    67  PHE67       0.0547
     85  CG       119.3570  156.9060   18.6810 C.ar   67  PHE67      -0.0202
     86  CD1      119.2630  158.2960   18.7190 C.ar   67  PHE67      -0.0042
     87  CD2      119.6350  156.2310   19.8630 C.ar   67  PHE67      -0.0042
     88  CE1      119.4630  158.9970   19.9100 C.ar   67  PHE67      -0.0003
     89  CE2      119.7950  156.9270   21.0600 C.ar   67  PHE67      -0.0003
     90  CZ       119.7130  158.3090   21.0710 C.ar   67  PHE67      -0.0000
     91  N        120.9360  157.0600   14.4390 N.am   68  TRP68      -0.1962
     92  CA       121.3720  158.2310   13.7190 C.3    68  TRP68       0.1771
     93  C        120.7570  158.3040   12.3450 C.2    68  TRP68       0.2619
     94  O        120.1640  157.3600   11.8420 O.2    68  TRP68      -0.2715
     95  CB       122.9320  158.3910   13.6900 C.3    68  TRP68       0.0590
     96  CG       123.7280  157.1970   13.2440 C.ar   68  TRP68       0.0006
     97  CD1      124.4400  156.3520   14.0360 C.ar   68  TRP68       0.0946
     98  CD2      123.8700  156.7050   11.8990 C.ar   68  TRP68       0.0152
     99  NE1      125.0540  155.3870   13.2700 N.ar   68  TRP68      -0.2442
    100  CE2      124.7320  155.5890   11.9510 C.ar   68  TRP68       0.0810
    101  CE3      123.4010  157.1360   10.6430 C.ar   68  TRP68       0.0012
    102  CZ2      125.1280  154.8930   10.7960 C.ar   68  TRP68       0.0191
    103  CZ3      123.7890  156.4450    9.5030 C.ar   68  TRP68       0.0001
    104  CH2      124.6420  155.3410    9.5840 C.ar   68  TRP68       0.0015
    105  N        120.8340  159.4920   11.8180 N.am   69  VAL69      -0.1977
    106  CA       120.4230  159.9450   10.5130 C.3    69  VAL69       0.1596
    107  C        121.7060  160.5660    9.9340 C.2    69  VAL69       0.2287
    108  O        122.5370  161.1450   10.6570 O.2    69  VAL69      -0.2864
    109  CB       119.2090  160.9210   10.6250 C.3    69  VAL69       0.0276
    110  CG1      119.5820  162.2590   11.2820 C.3    69  VAL69       0.0022
    111  CG2      118.5380  161.1280    9.2770 C.3    69  VAL69       0.0022
@<TRIPOS>BOND
     1    40    41    2
     2    40    39    1
     3    39    42    1
     4    39    38    1
     5    36    35    2
     6    32    31    2
     7    42    43    1
     8    35    34    1
     9    35    37   am
    10    31    38   am
    11    31    30    1
    12    34    33    1
    13    44    43   ar
    14    44    46   ar
    15    43    45   ar
    16    33    30    1
    17    30    29    1
    18    46    47   ar
    19     7     6    2
    20    45    47   ar
    21    45    48   ar
    22    29    27   am
    23     8     6   am
    24    47    49   ar
    25     6     5    1
    26    48    50   ar
    27    23    24   ar
    28    23    21   ar
    29    27    28    2
    30    27    26    1
    31     1     2    1
    32    49    51   ar
    33    24    22   ar
    34     5     2    1
    35    21    19   ar
    36    50    51   ar
    37    26    25    1
    38     2     3    1
    39    17    16    2
    40    22    20   ar
    41    25    16   am
    42    19    20   ar
    43    19    18    1
    44    16    15    1
    45     3     4    2
    46    52    53    1
    47    18    15    1
    48    15    14    1
    49    55    54    2
    50    53    56    1
    51    53    54    1
    52    14    11   am
    53   111   109    1
    54    54    57   am
    55   103   104   ar
    56   103   101   ar
    57   104   102   ar
    58   107   106    1
    59   107   108    2
    60   106   109    1
    61   106   105    1
    62    11    12    2
    63    11    10    1
    64   109   110    1
    65   101    98   ar
    66    57    58    1
    67   102   100   ar
    68    10    13    1
    69    10     9    1
    70    61    58    1
    71    61    62    1
    72    58    59    1
    73    63    62   ar
    74    63    65   ar
    75   105    93   am
    76    94    93    2
    77    98   100   ar
    78    98    96   ar
    79   100    99   ar
    80    62    64   ar
    81    65    67   ar
    82    93    92    1
    83    59    69   am
    84    59    60    2
    85    64    66   ar
    86    67    68    1
    87    67    66   ar
    88    69    70    1
    89    96    95    1
    90    96    97   ar
    91    99    97   ar
    92    95    92    1
    93    92    91    1
    94    91    82   am
    95    72    71    2
    96    70    73    1
    97    70    71    1
    98    73    74    1
    99    82    83    2
   100    82    81    1
   101    74    76   ar
   102    74    75   ar
   103    81    80    1
   104    81    84    1
   105    76    78   ar
   106    75    77   ar
   107    84    85    1
   108    78    79   ar
   109    77    79   ar
   110    85    86   ar
   111    85    87   ar
   112    86    88   ar
   113    87    89   ar
   114    88    90   ar
   115    89    90   ar
