@<TRIPOS>MOLECULE
tmp/5d5dA08.pdb
 96 93 0 0 0
SMALL
GASTEIGER

@<TRIPOS>ATOM
      1  N        130.7870  165.5470   11.2870 N.3   106  TRP106     -0.1241
      2  CA       131.0520  165.7310    9.8870 C.3   106  TRP106      0.1605
      3  C        132.3480  165.0720    9.5110 C.2   106  TRP106      0.2264
      4  O        133.4030  165.4110   10.0620 O.2   106  TRP106     -0.2867
      5  CB       131.0720  167.2190    9.5360 C.3   106  TRP106      0.0550
      6  CG       131.1760  167.4740    8.0640 C.ar  106  TRP106      0.0003
      7  CD1      130.2220  167.2330    7.1220 C.ar  106  TRP106      0.0946
      8  CD2      132.3410  167.9240    7.3540 C.ar  106  TRP106      0.0152
      9  NE1      130.6980  167.5440    5.8750 N.ar  106  TRP106     -0.2442
     10  CE2      131.9950  167.9870    5.9850 C.ar  106  TRP106      0.0810
     11  CE3      133.6500  168.2930    7.7440 C.ar  106  TRP106      0.0012
     12  CZ2      132.8880  168.4590    5.0040 C.ar  106  TRP106      0.0191
     13  CZ3      134.5380  168.7460    6.7760 C.ar  106  TRP106      0.0001
     14  CH2      134.1470  168.8540    5.4290 C.ar  106  TRP106      0.0015
     15  N        143.3600  163.5160    1.8000 N.3   113  LEU113     -0.1245
     16  CA       142.9840  164.2910    2.9660 C.3   113  LEU113      0.1561
     17  C        141.8190  163.6880    3.7270 C.2   113  LEU113      0.2260
     18  O        140.8010  163.3160    3.1400 O.2   113  LEU113     -0.2867
     19  CB       142.6210  165.7240    2.5520 C.3   113  LEU113      0.0270
     20  CG       142.4380  166.7130    3.7060 C.3   113  LEU113      0.0019
     21  CD1      143.7260  167.4460    4.0020 C.3   113  LEU113      0.0001
     22  CD2      141.3200  167.6810    3.4200 C.3   113  LEU113      0.0001
     23  N        139.4070  164.6720    7.1580 N.3   115  ALA115     -0.1231
     24  CA       139.0330  165.7740    8.0310 C.3   115  ALA115      0.1694
     25  C        137.7390  165.4270    8.7360 C.2   115  ALA115      0.2592
     26  O        136.8130  164.8880    8.1320 O.2   115  ALA115     -0.2718
     27  CB       138.8910  167.0730    7.2470 C.3   115  ALA115      0.0304
     28  N        137.7030  165.6720   10.0380 N.am  116  HIS116     -0.1962
     29  CA       136.5170  165.4320   10.8320 C.3   116  HIS116      0.1787
     30  C        136.2660  166.6590   11.6420 C.2   116  HIS116      0.2620
     31  O        137.1960  167.3940   11.9280 O.2   116  HIS116     -0.2715
     32  CB       136.6490  164.1860   11.7030 C.3   116  HIS116      0.0785
     33  CG       136.8340  162.9100   10.9290 C.ar  116  HIS116      0.0821
     34  ND1      138.0650  162.5620   10.3840 N.ar  116  HIS116     -0.2267
     35  CD2      135.9420  161.9420   10.6350 C.ar  116  HIS116      0.1154
     36  CE1      137.8760  161.4030    9.7840 C.ar  116  HIS116      0.1986
     37  NE2      136.6190  160.9830    9.9170 N.ar  116  HIS116     -0.2212
     38  N        135.0000  166.9630   11.8800 N.am  117  ALA117     -0.1977
     39  CA       134.5840  168.1040   12.6750 C.3   117  ALA117      0.1597
     40  C        133.2570  167.7300   13.3010 C.2   117  ALA117      0.2287
     41  O        132.2670  167.4680   12.6070 O.2   117  ALA117     -0.2864
     42  CB       134.4590  169.3620   11.8330 C.3   117  ALA117      0.0319
     43  N        137.8420  167.8720   16.0360 N.3   136  GLY136     -0.1210
     44  CA       138.2020  167.9300   14.6380 C.3   136  GLY136      0.1956
     45  C        139.5880  167.3810   14.4160 C.2   136  GLY136      0.2612
     46  O        140.4160  167.3320   15.3260 O.2   136  GLY136     -0.2717
     47  N        139.8160  166.9230   13.2250 N.am  137  ASP137     -0.1959
     48  CA       141.0900  166.4150   12.7910 C.3   137  ASP137      0.1840
     49  C        141.2150  166.7210   11.3090 C.2   137  ASP137      0.2621
     50  O        140.2300  166.9990   10.6290 O.2   137  ASP137     -0.2715
     51  CB       141.2360  164.9100   13.0650 C.3   137  ASP137      0.1450
     52  CG       140.2640  164.0560   12.2920 C.2   137  ASP137      0.3671
     53  OD1      140.5470  163.7550   11.1130 O.co2 137  ASP137     -0.2456
     54  OD2      139.2520  163.6410   12.8790 O.co2 137  ASP137     -0.2456
     55  N        142.4440  166.7150   10.8470 N.am  138  ILE138     -0.1977
     56  CA       142.8510  166.9200    9.4760 C.3   138  ILE138      0.1596
     57  C        144.1210  166.1360    9.3720 C.2   138  ILE138      0.2287
     58  O        145.0220  166.3180   10.1840 O.2   138  ILE138     -0.2864
     59  CB       142.9430  168.4140    9.0390 C.3   138  ILE138      0.0276
     60  CG1      143.0950  168.5640    7.5270 C.3   138  ILE138      0.0022
     61  CG2      144.0010  169.2120    9.7780 C.3   138  ILE138      0.0022
     62  CD1      141.9980  169.3440    6.9260 C.3   138  ILE138      0.0001
     63  N        146.8290  166.4290   12.3340 N.3   150  VAL150     -0.1231
     64  CA       146.6960  167.2330   13.5210 C.3   150  VAL150      0.1692
     65  C        145.2970  166.9920   14.0030 C.2   150  VAL150      0.2592
     66  O        144.3740  166.7720   13.2070 O.2   150  VAL150     -0.2718
     67  CB       147.1360  168.7150   13.4480 C.3   150  VAL150      0.0266
     68  CG1      148.6040  168.8310   13.0080 C.3   150  VAL150      0.0020
     69  CG2      146.2260  169.5320   12.5400 C.3   150  VAL150      0.0020
     70  N        145.1630  166.8910   15.3060 N.am  151  ARG151     -0.1966
     71  CA       143.9040  166.5610   15.8850 C.3   151  ARG151      0.1729
     72  C        143.6440  167.4850   17.0600 C.2   151  ARG151      0.2616
     73  O        144.5790  167.8470   17.7890 O.2   151  ARG151     -0.2715
     74  CB       143.9550  165.0840   16.2940 C.3   151  ARG151      0.0348
     75  CG       142.6300  164.5240   16.7380 C.3   151  ARG151      0.0492
     76  CD       142.7600  163.0430   16.9950 C.3   151  ARG151      0.2205
     77  NE       142.8650  162.2520   15.7800 N.pl3 151  ARG151     -0.0865
     78  CZ       141.8270  161.8690   15.0600 C.cat 151  ARG151      0.5346
     79  NH1      140.5940  162.2060   15.4270 N.pl3 151  ARG151      0.1354
     80  NH2      142.0070  161.1470   13.9640 N.pl3 151  ARG151      0.1354
     81  N        142.3950  167.9080   17.2060 N.am  152  ILE152     -0.1977
     82  CA       141.9910  168.7780   18.2890 C.3   152  ILE152      0.1596
     83  C        140.7520  168.2230   18.9430 C.2   152  ILE152      0.2287
     84  O        139.8200  167.7500   18.2660 O.2   152  ILE152     -0.2864
     85  CB       141.7990  170.2810   17.8560 C.3   152  ILE152      0.0276
     86  CG1      141.7500  171.2440   19.0890 C.3   152  ILE152      0.0022
     87  CG2      140.5460  170.4890   16.9770 C.3   152  ILE152      0.0022
     88  CD1      142.3830  172.6800   18.8630 C.3   152  ILE152      0.0001
     89  N        145.5320  169.0860   21.7260 N.3   182  LEU182     -0.1245
     90  CA       146.0580  169.4270   20.4230 C.3   182  LEU182      0.1561
     91  C        147.1410  168.4390   20.1560 C.2   182  LEU182      0.2260
     92  O        148.1660  168.4570   20.8180 O.2   182  LEU182     -0.2867
     93  CB       146.6170  170.8640   20.3880 C.3   182  LEU182      0.0270
     94  CG       147.1880  171.3970   19.0430 C.3   182  LEU182      0.0019
     95  CD1      146.3320  170.9940   17.8280 C.3   182  LEU182      0.0001
     96  CD2      147.3240  172.9140   19.0950 C.3   182  LEU182      0.0001
@<TRIPOS>BOND
     1    15    16    1
     2    19    16    1
     3    19    20    1
     4    16    17    1
     5    18    17    2
     6    22    20    1
     7    20    21    1
     8    12    14   ar
     9    12    10   ar
    10    14    13   ar
    11     9    10   ar
    12     9     7   ar
    13    10     8   ar
    14    13    11   ar
    15    62    60    1
    16     7     6   ar
    17    23    24    1
    18    27    24    1
    19     8    11   ar
    20     8     6   ar
    21    60    59    1
    22    24    25    1
    23     6     5    1
    24    26    25    2
    25    25    28   am
    26    59    56    1
    27    59    61    1
    28    57    56    1
    29    57    58    2
    30    56    55    1
    31     3     2    1
    32     3     4    2
    33     5     2    1
    34    36    37   ar
    35    36    34   ar
    36     2     1    1
    37    37    35   ar
    38    28    29    1
    39    34    33   ar
    40    50    49    2
    41    35    33   ar
    42    29    30    1
    43    29    32    1
    44    55    49   am
    45    33    32    1
    46    53    52   ar
    47    49    48    1
    48    30    38   am
    49    30    31    2
    50    42    39    1
    51    38    39    1
    52    52    54   ar
    53    52    51    1
    54    63    64    1
    55    69    67    1
    56    41    40    2
    57    39    40    1
    58    48    51    1
    59    48    47    1
    60    68    67    1
    61    66    65    2
    62    47    45   am
    63    67    64    1
    64    64    65    1
    65    80    78    1
    66    65    70   am
    67    45    44    1
    68    45    46    2
    69    44    43    1
    70    78    79    1
    71    78    77    2
    72    70    71    1
    73    77    76    1
    74    71    74    1
    75    71    72    1
    76    74    75    1
    77    75    76    1
    78    87    85    1
    79    72    81   am
    80    72    73    2
    81    81    82    1
    82    95    94    1
    83    85    82    1
    84    85    86    1
    85    84    83    2
    86    82    83    1
    87    88    86    1
    88    94    96    1
    89    94    93    1
    90    91    90    1
    91    91    92    2
    92    93    90    1
    93    90    89    1
