@<TRIPOS>MOLECULE
tmp/5d5dA04.pdb
 90 85 0 0 0
SMALL
GASTEIGER

@<TRIPOS>ATOM
      1  N        139.8370  159.3850   43.5890 N.3   217  THR217     -0.1203
      2  CA       138.9900  158.3210   44.1390 C.3   217  THR217      0.1994
      3  C        139.8290  157.3270   44.9690 C.2   217  THR217      0.2618
      4  O        141.0610  157.4350   45.0580 O.2   217  THR217     -0.2717
      5  CB       138.1950  157.5730   43.0320 C.3   217  THR217      0.1784
      6  OG1      139.0940  156.7910   42.2390 O.3   217  THR217     -0.2211
      7  CG2      137.3210  158.4900   42.1610 C.3   217  THR217      0.0376
      8  N        139.1150  156.3600   45.5750 N.am  218  THR218     -0.1952
      9  CA       139.5830  155.2120   46.3490 C.3   218  THR218      0.1897
     10  C        138.4660  154.1830   46.3090 C.2   218  THR218      0.2313
     11  O        137.3390  154.5210   45.9190 O.2   218  THR218     -0.2863
     12  CB       139.9940  155.6000   47.7710 C.3   218  THR218      0.1794
     13  OG1      140.9920  154.6800   48.2140 O.3   218  THR218     -0.2208
     14  CG2      138.8060  155.6380   48.7620 C.3   218  THR218      0.0378
     15  N        137.4410  160.9670   47.1890 N.3   227  THR227     -0.1218
     16  CA       138.2880  161.3510   48.3410 C.3   227  THR227      0.1862
     17  C        138.6220  162.8590   48.3360 C.2   227  THR227      0.2287
     18  O        139.2080  163.3770   49.2980 O.2   227  THR227     -0.2866
     19  CB       139.6420  160.6270   48.3030 C.3   227  THR227      0.1770
     20  OG1      140.2960  160.9680   47.0910 O.3   227  THR227     -0.2211
     21  CG2      139.5300  159.1420   48.4410 C.3   227  THR227      0.0375
     22  N        148.2750  159.7890   41.0710 N.3   336  ASP336     -0.1225
     23  CA       147.5090  158.6290   40.7080 C.3   336  ASP336      0.1805
     24  C        147.6890  158.3930   39.2150 C.2   336  ASP336      0.2597
     25  O        148.0040  159.3050   38.4580 O.2   336  ASP336     -0.2718
     26  CB       146.0360  158.8410   41.0820 C.3   336  ASP336      0.1424
     27  CG       145.2260  157.5690   41.2290 C.2   336  ASP336      0.3668
     28  OD1      145.8200  156.4760   41.1680 O.co2 336  ASP336     -0.2456
     29  OD2      144.0020  157.6690   41.4230 O.co2 336  ASP336     -0.2456
     30  N        147.5430  157.1640   38.8060 N.am  337  ILE337     -0.1980
     31  CA       147.7160  156.7460   37.4200 C.3   337  ILE337      0.1595
     32  C        146.3630  156.5430   36.7200 C.2   337  ILE337      0.2287
     33  O        145.3660  156.2150   37.3620 O.2   337  ILE337     -0.2864
     34  CB       148.5710  155.4610   37.4140 C.3   337  ILE337      0.0276
     35  CG1      147.8410  154.3010   38.1730 C.3   337  ILE337      0.0022
     36  CG2      149.9240  155.7900   38.0140 C.3   337  ILE337      0.0022
     37  CD1      148.4850  152.9980   38.2500 C.3   337  ILE337      0.0001
     38  N        144.0050  154.3730   34.8490 N.3   339  THR339     -0.1218
     39  CA       143.6990  152.9550   34.7460 C.3   339  THR339      0.1862
     40  C        142.2090  152.7840   34.9450 C.2   339  THR339      0.2287
     41  O        141.5960  153.4230   35.8050 O.2   339  THR339     -0.2866
     42  CB       144.5160  152.0850   35.7480 C.3   339  THR339      0.1770
     43  OG1      144.0040  150.7530   35.7580 O.3   339  THR339     -0.2211
     44  CG2      144.4820  152.6190   37.1630 C.3   339  THR339      0.0375
     45  N        142.5350  148.5160   37.2130 N.3   342  ILE342     -0.1231
     46  CA       143.0790  148.3030   38.5620 C.3   342  ILE342      0.1692
     47  C        142.6660  149.4750   39.4060 C.2   342  ILE342      0.2592
     48  O        142.9450  150.6030   39.0130 O.2   342  ILE342     -0.2718
     49  CB       144.6360  148.1160   38.6180 C.3   342  ILE342      0.0266
     50  CG1      145.1670  147.0770   37.5910 C.3   342  ILE342      0.0019
     51  CG2      145.1290  147.8040   40.0550 C.3   342  ILE342      0.0020
     52  CD1      144.8710  145.6010   37.8660 C.3   342  ILE342      0.0001
     53  N        142.0590  149.2320   40.5780 N.am  343  ASN343     -0.1960
     54  CA       141.6640  150.3160   41.4910 C.3   343  ASN343      0.1819
     55  C        142.4200  150.2910   42.8370 C.2   343  ASN343      0.2621
     56  O        142.1550  151.1090   43.7240 O.2   343  ASN343     -0.2715
     57  CB       140.1500  150.3450   41.6920 C.3   343  ASN343      0.1195
     58  CG       139.5640  149.0830   42.2370 C.2   343  ASN343      0.2630
     59  OD1      140.1850  148.3610   43.0060 O.2   343  ASN343     -0.2716
     60  ND2      138.3260  148.8100   41.8740 N.am  343  ASN343     -0.0877
     61  N        143.3800  149.3800   42.9670 N.am  344  ALA344     -0.1963
     62  CA       144.2260  149.2220   44.1450 C.3   344  ALA344      0.1728
     63  C        145.0140  150.4800   44.4440 C.2   344  ALA344      0.2616
     64  O        145.4920  151.1420   43.5290 O.2   344  ALA344     -0.2715
     65  CB       145.1810  148.0660   43.9440 C.3   344  ALA344      0.0334
     66  N        145.1670  150.7960   45.7380 N.am  345  ALA345     -0.1963
     67  CA       145.9360  151.9360   46.2270 C.3   345  ALA345      0.1728
     68  C        147.4080  151.8100   45.8530 C.2   345  ALA345      0.2616
     69  O        147.9520  150.7000   45.7120 O.2   345  ALA345     -0.2715
     70  CB       145.7990  152.0580   47.7310 C.3   345  ALA345      0.0334
     71  N        148.0370  152.9650   45.6740 N.am  346  LEU346     -0.1977
     72  CA       149.4230  153.0440   45.3120 C.3   346  LEU346      0.1596
     73  C        150.2060  153.6240   46.4790 C.2   346  LEU346      0.2287
     74  O        149.7440  154.5510   47.1500 O.2   346  LEU346     -0.2864
     75  CB       149.5990  153.8980   44.0490 C.3   346  LEU346      0.0297
     76  CG       149.0270  153.3080   42.7710 C.3   346  LEU346      0.0022
     77  CD1      148.3660  154.3680   41.9550 C.3   346  LEU346      0.0001
     78  CD2      150.0820  152.6130   41.9740 C.3   346  LEU346      0.0001
     79  N        152.2980  149.1570   44.0900 N.3   384  TYR384     -0.1241
     80  CA       151.1610  148.5800   44.7910 C.3   384  TYR384      0.1605
     81  C        151.5690  147.9230   46.1150 C.2   384  TYR384      0.2264
     82  O        150.7040  147.5300   46.8980 O.2   384  TYR384     -0.2867
     83  CB       150.4140  147.6130   43.8840 C.3   384  TYR384      0.0534
     84  CG       149.7330  148.2940   42.7200 C.ar  384  TYR384     -0.0201
     85  CD1      148.6000  149.0830   42.9150 C.ar  384  TYR384     -0.0009
     86  CD2      150.1600  148.0760   41.4110 C.ar  384  TYR384     -0.0009
     87  CE1      147.9220  149.6560   41.8400 C.ar  384  TYR384      0.0417
     88  CE2      149.4850  148.6380   40.3260 C.ar  384  TYR384      0.0417
     89  CZ       148.3810  149.4500   40.5500 C.ar  384  TYR384      0.1957
     90  OH       147.7100  150.0170   39.5050 O.3   384  TYR384     -0.2866
@<TRIPOS>BOND
     1    39    38    1
     2    39    40    1
     3    39    42    1
     4    40    41    2
     5    42    43    1
     6    42    44    1
     7    32    33    2
     8    32    31    1
     9    45    46    1
    10    34    31    1
    11    34    36    1
    12    34    35    1
    13    31    30    1
    14    50    52    1
    15    50    49    1
    16    35    37    1
    17    25    24    2
    18    46    49    1
    19    46    47    1
    20    49    51    1
    21    30    24   am
    22    48    47    2
    23    24    23    1
    24    47    53   am
    25    90    89    1
    26    88    89   ar
    27    88    86   ar
    28    89    87   ar
    29    53    54    1
    30    23    22    1
    31    23    26    1
    32    26    27    1
    33    28    27   ar
    34    27    29   ar
    35    86    84   ar
    36    54    57    1
    37    54    55    1
    38    57    58    1
    39    87    85   ar
    40    60    58   am
    41    77    76    1
    42    78    76    1
    43     7     5    1
    44    58    59    2
    45     6     5    1
    46    84    85   ar
    47    84    83    1
    48    76    75    1
    49    55    61   am
    50    55    56    2
    51    61    62    1
    52     5     2    1
    53    64    63    2
    54     1     2    1
    55    83    80    1
    56    65    62    1
    57    75    72    1
    58    79    80    1
    59     2     3    1
    60    62    63    1
    61    63    66   am
    62    80    81    1
    63     3     4    2
    64     3     8   am
    65    72    71    1
    66    72    73    1
    67     8     9    1
    68    71    68   am
    69    69    68    2
    70    66    67    1
    71    68    67    1
    72    11    10    2
    73    81    82    2
    74    67    70    1
    75    10     9    1
    76     9    12    1
    77    73    74    2
    78    20    19    1
    79    15    16    1
    80    12    13    1
    81    12    14    1
    82    19    16    1
    83    19    21    1
    84    17    16    1
    85    17    18    2
