@<TRIPOS>MOLECULE
tmp/5d5dA00.pdb
 110 101 0 0 0
SMALL
GASTEIGER

@<TRIPOS>ATOM
      1  N        134.4600  162.3900   36.1390 N.3   174  THR174     -0.1203
      2  CA       135.6590  162.3330   36.9430 C.3   174  THR174      0.1994
      3  C        136.3850  163.6320   36.7060 C.2   174  THR174      0.2617
      4  O        137.3170  163.9660   37.4430 O.2   174  THR174     -0.2717
      5  CB       136.4900  161.1190   36.6070 C.3   174  THR174      0.1784
      6  OG1      136.9030  161.2370   35.2570 O.3   174  THR174     -0.2211
      7  CG2      135.7420  159.8040   36.8520 C.3   174  THR174      0.0376
      8  N        135.9360  164.3980   35.7030 N.am  175  TYR175     -0.1975
      9  CA       136.5660  165.6860   35.4350 C.3   175  TYR175      0.1639
     10  C        135.5600  166.7110   34.9280 C.2   175  TYR175      0.2290
     11  O        134.4950  166.3560   34.4460 O.2   175  TYR175     -0.2864
     12  CB       137.8290  165.5620   34.5160 C.3   175  TYR175      0.0560
     13  CG       137.5390  165.5160   33.0330 C.ar  175  TYR175     -0.0198
     14  CD1      137.5450  166.6780   32.2650 C.ar  175  TYR175     -0.0009
     15  CD2      137.2040  164.3220   32.4050 C.ar  175  TYR175     -0.0009
     16  CE1      137.2170  166.6540   30.9120 C.ar  175  TYR175      0.0417
     17  CE2      136.9230  164.2750   31.0360 C.ar  175  TYR175      0.0417
     18  CZ       136.9180  165.4460   30.2970 C.ar  175  TYR175      0.1957
     19  OH       136.6260  165.4080   28.9600 O.3   175  TYR175     -0.2866
     20  N        140.9470  172.4520   34.7690 N.3   212  ARG212     -0.1245
     21  CA       140.4110  171.1510   35.1150 C.3   212  ARG212      0.1563
     22  C        140.2450  170.9580   36.5790 C.2   212  ARG212      0.2260
     23  O        141.1510  171.2250   37.3720 O.2   212  ARG212     -0.2867
     24  CB       141.3130  170.0420   34.5680 C.3   212  ARG212      0.0307
     25  CG       141.0850  168.6680   35.1890 C.3   212  ARG212      0.0489
     26  CD       141.8890  167.6710   34.4700 C.3   212  ARG212      0.2205
     27  NE       143.2690  167.7170   34.9200 N.pl3 212  ARG212     -0.0865
     28  CZ       144.2710  167.0890   34.3290 C.cat 212  ARG212      0.5346
     29  NH1      144.0640  166.3850   33.2230 N.pl3 212  ARG212      0.1354
     30  NH2      145.4900  167.1710   34.8260 N.pl3 212  ARG212      0.1354
     31  N        139.1650  167.6250   38.8140 N.3   214  ASN214     -0.1225
     32  CA       139.1260  166.1970   38.6240 C.3   214  ASN214      0.1785
     33  C        139.0390  165.5080   39.9700 C.2   214  ASN214      0.2597
     34  O        139.6170  165.9600   40.9610 O.2   214  ASN214     -0.2718
     35  CB       140.3300  165.7160   37.8220 C.3   214  ASN214      0.1169
     36  CG       141.6340  166.0020   38.5110 C.2   214  ASN214      0.2627
     37  OD1      142.3100  166.9970   38.2290 O.2   214  ASN214     -0.2716
     38  ND2      141.9760  165.1660   39.4670 N.am  214  ASN214     -0.0877
     39  N        138.3190  164.4050   39.9930 N.am  215  LEU215     -0.1980
     40  CA       138.1790  163.5800   41.1650 C.3   215  LEU215      0.1596
     41  C        139.4330  162.8370   41.4520 C.2   215  LEU215      0.2287
     42  O        140.2540  162.5520   40.5800 O.2   215  LEU215     -0.2864
     43  CB       137.0490  162.5500   40.9550 C.3   215  LEU215      0.0297
     44  CG       135.6420  163.0270   41.2670 C.3   215  LEU215      0.0022
     45  CD1      134.6450  161.9680   40.9370 C.3   215  LEU215      0.0001
     46  CD2      135.5130  163.4090   42.7110 C.3   215  LEU215      0.0001
     47  N        141.0920  167.7320   42.5850 N.3   230  GLN230     -0.1245
     48  CA       142.2380  168.5370   42.2140 C.3   230  GLN230      0.1566
     49  C        141.6500  169.6160   41.3260 C.2   230  GLN230      0.2260
     50  O        140.8640  169.3050   40.4360 O.2   230  GLN230     -0.2867
     51  CB       143.2770  167.7140   41.4510 C.3   230  GLN230      0.0367
     52  CG       143.9220  166.6080   42.2710 C.3   230  GLN230      0.0905
     53  CD       145.0280  165.9090   41.5270 C.2   230  GLN230      0.2608
     54  OE1      144.8940  165.5200   40.3630 O.2   230  GLN230     -0.2717
     55  NE2      146.1570  165.7330   42.1910 N.am  230  GLN230     -0.0878
     56  N        149.4160  166.6890   34.6960 N.3   270  GLN270     -0.1245
     57  CA       148.8520  165.3500   34.5690 C.3   270  GLN270      0.1566
     58  C        148.0870  165.2420   33.2640 C.2   270  GLN270      0.2260
     59  O        147.1000  165.9420   33.0500 O.2   270  GLN270     -0.2867
     60  CB       147.9500  165.0490   35.7700 C.3   270  GLN270      0.0367
     61  CG       147.3640  163.6430   35.7720 C.3   270  GLN270      0.0905
     62  CD       148.0310  162.7190   36.7400 C.2   270  GLN270      0.2608
     63  OE1      149.0600  163.0280   37.3160 O.2   270  GLN270     -0.2717
     64  NE2      147.4550  161.5470   36.9240 N.am  270  GLN270     -0.0878
     65  N        145.5850  163.4920   30.5180 N.3   272  GLN272     -0.1231
     66  CA       144.3710  162.7300   30.6480 C.3   272  GLN272      0.1698
     67  C        143.8730  162.5660   29.2650 C.2   272  GLN272      0.2592
     68  O        144.2760  163.3140   28.3630 O.2   272  GLN272     -0.2718
     69  CB       143.3270  163.4510   31.5050 C.3   272  GLN272      0.0381
     70  CG       142.5570  164.5450   30.7700 C.3   272  GLN272      0.0905
     71  CD       141.3240  164.8880   31.5160 C.2   272  GLN272      0.2608
     72  OE1      141.3760  165.3700   32.6350 O.2   272  GLN272     -0.2717
     73  NE2      140.1950  164.5710   30.9400 N.am  272  GLN272     -0.0878
     74  N        142.9900  161.5930   29.1030 N.am  273  GLN273     -0.1979
     75  CA       142.3140  161.3360   27.8430 C.3   273  GLN273      0.1601
     76  C        140.9410  162.0030   27.9140 C.2   273  GLN273      0.2287
     77  O        140.5530  162.4520   28.9930 O.2   273  GLN273     -0.2864
     78  CB       142.3000  159.8470   27.4820 C.3   273  GLN273      0.0394
     79  CG       143.7050  159.3680   27.1640 C.3   273  GLN273      0.0908
     80  CD       143.7380  157.9320   26.7810 C.2   273  GLN273      0.2608
     81  OE1      143.9940  157.0550   27.5990 O.2   273  GLN273     -0.2717
     82  NE2      143.5230  157.6710   25.5180 N.am  273  GLN273     -0.0878
     83  N        137.8710  161.0230   27.7660 N.3   275  GLY275     -0.1225
     84  CA       136.7900  160.3020   28.4210 C.3   275  GLY275      0.1811
     85  C        135.8880  159.6300   27.3980 C.2   275  GLY275      0.2280
     86  O        134.9680  158.9120   27.7760 O.2   275  GLY275     -0.2866
     87  N        137.4360  157.8290   24.9160 N.3   277  GLU277     -0.1245
     88  CA       138.3810  156.7920   24.4660 C.3   277  GLU277      0.1567
     89  C        138.0510  155.3650   24.9460 C.2   277  GLU277      0.2260
     90  O        137.4460  155.1950   26.0040 O.2   277  GLU277     -0.2867
     91  CB       139.8230  157.1840   24.8770 C.3   277  GLU277      0.0388
     92  CG       140.2200  156.8190   26.3010 C.3   277  GLU277      0.1160
     93  CD       139.6070  157.7110   27.3520 C.2   277  GLU277      0.3649
     94  OE1      139.1080  158.7890   26.9670 O.co2 277  GLU277     -0.2457
     95  OE2      139.7300  157.4020   28.5590 O.co2 277  GLU277     -0.2457
     96  N        145.1590  154.2570   31.0830 N.3   300  GLU300     -0.1245
     97  CA       144.5780  155.4400   30.5090 C.3   300  GLU300      0.1567
     98  C        145.7750  156.3530   30.5610 C.2   300  GLU300      0.2260
     99  O        146.4740  156.3580   31.5720 O.2   300  GLU300     -0.2867
    100  CB       143.3980  155.8960   31.4200 C.3   300  GLU300      0.0388
    101  CG       142.5760  157.0480   30.8810 C.3   300  GLU300      0.1160
    102  CD       142.9110  158.4130   31.4580 C.2   300  GLU300      0.3649
    103  OE1      143.0700  159.3580   30.6560 O.co2 300  GLU300     -0.2457
    104  OE2      142.9640  158.5570   32.7010 O.co2 300  GLU300     -0.2457
    105  N        147.6060  158.8480   31.5680 N.3   302  SER302     -0.1217
    106  CA       147.5190  159.8040   32.6650 C.3   302  SER302      0.1889
    107  C        148.5320  159.3590   33.7130 C.2   302  SER302      0.2288
    108  O        148.4070  158.2670   34.2570 O.2   302  SER302     -0.2866
    109  CB       146.0940  159.8100   33.2180 C.3   302  SER302      0.2089
    110  OG       145.9350  160.7940   34.2160 O.3   302  SER302     -0.2183
@<TRIPOS>BOND
     1    88    91    1
     2    88    87    1
     3    88    89    1
     4    91    92    1
     5    89    90    2
     6    82    80   am
     7    92    93    1
     8    80    79    1
     9    80    81    2
    10    94    93   ar
    11    79    78    1
    12    93    95   ar
    13    85    86    2
    14    85    84    1
    15    78    75    1
    16    83    84    1
    17    75    76    1
    18    75    74    1
    19    76    77    2
    20    68    67    2
    21    19    18    1
    22    74    67   am
    23    67    66    1
    24    18    16   ar
    25    18    17   ar
    26    97    98    1
    27    97    96    1
    28    97   100    1
    29    65    66    1
    30    98    99    2
    31    66    69    1
    32   103   102   ar
    33    70    69    1
    34    70    71    1
    35   101   100    1
    36   101   102    1
    37    16    14   ar
    38    73    71   am
    39    17    15   ar
    40   102   104   ar
    41    71    72    2
    42   105   106    1
    43    14    13   ar
    44    15    13   ar
    45   106   109    1
    46   106   107    1
    47    13    12    1
    48    59    58    2
    49   109   110    1
    50    29    28    1
    51    58    57    1
    52   107   108    2
    53    28    30    1
    54    28    27    2
    55    11    10    2
    56    26    27    1
    57    26    25    1
    58    12     9    1
    59    24    21    1
    60    24    25    1
    61    57    56    1
    62    57    60    1
    63    20    21    1
    64    10     9    1
    65    21    22    1
    66     6     5    1
    67     9     8    1
    68     8     3   am
    69    60    61    1
    70    61    62    1
    71     1     2    1
    72    22    23    2
    73     5     7    1
    74     5     2    1
    75     3     2    1
    76     3     4    2
    77    62    64   am
    78    62    63    2
    79    35    36    1
    80    35    32    1
    81    37    36    2
    82    36    38   am
    83    32    31    1
    84    32    33    1
    85    33    39   am
    86    33    34    2
    87    39    40    1
    88    54    53    2
    89    50    49    2
    90    42    41    2
    91    45    44    1
    92    43    40    1
    93    43    44    1
    94    40    41    1
    95    44    46    1
    96    49    48    1
    97    51    48    1
    98    51    52    1
    99    53    55   am
   100    53    52    1
   101    48    47    1
