@<TRIPOS>MOLECULE
tmp/5d5dA14.pdb
 120 111 0 0 0
SMALL
GASTEIGER

@<TRIPOS>ATOM
      1  N        139.1650  167.6250   38.8140 N.3   214  ASN214     -0.1225
      2  CA       139.1260  166.1970   38.6240 C.3   214  ASN214      0.1785
      3  C        139.0390  165.5080   39.9700 C.2   214  ASN214      0.2597
      4  O        139.6170  165.9600   40.9610 O.2   214  ASN214     -0.2718
      5  CB       140.3300  165.7160   37.8220 C.3   214  ASN214      0.1169
      6  CG       141.6340  166.0020   38.5110 C.2   214  ASN214      0.2627
      7  OD1      142.3100  166.9970   38.2290 O.2   214  ASN214     -0.2716
      8  ND2      141.9760  165.1660   39.4670 N.am  214  ASN214     -0.0877
      9  N        138.3190  164.4050   39.9930 N.am  215  LEU215     -0.1966
     10  CA       138.1790  163.5800   41.1650 C.3   215  LEU215      0.1728
     11  C        139.4330  162.8370   41.4520 C.2   215  LEU215      0.2616
     12  O        140.2540  162.5520   40.5800 O.2   215  LEU215     -0.2715
     13  CB       137.0490  162.5500   40.9550 C.3   215  LEU215      0.0311
     14  CG       135.6420  163.0270   41.2670 C.3   215  LEU215      0.0022
     15  CD1      134.6450  161.9680   40.9370 C.3   215  LEU215      0.0001
     16  CD2      135.5130  163.4090   42.7110 C.3   215  LEU215      0.0001
     17  N        139.5950  162.5650   42.7100 N.am  216  THR216     -0.1951
     18  CA       140.5960  161.7090   43.2690 C.3   216  THR216      0.1897
     19  C        139.6450  160.6680   43.9080 C.2   216  THR216      0.2313
     20  O        138.6530  161.0480   44.5480 O.2   216  THR216     -0.2863
     21  CB       141.5040  162.4930   44.2380 C.3   216  THR216      0.1794
     22  OG1      140.7300  162.9330   45.3540 O.3   216  THR216     -0.2208
     23  CG2      142.1850  163.6960   43.5710 C.3   216  THR216      0.0378
     24  N        141.0920  167.7320   42.5850 N.3   230  GLN230     -0.1245
     25  CA       142.2380  168.5370   42.2140 C.3   230  GLN230      0.1566
     26  C        141.6500  169.6160   41.3260 C.2   230  GLN230      0.2260
     27  O        140.8640  169.3050   40.4360 O.2   230  GLN230     -0.2867
     28  CB       143.2770  167.7140   41.4510 C.3   230  GLN230      0.0367
     29  CG       143.9220  166.6080   42.2710 C.3   230  GLN230      0.0905
     30  CD       145.0280  165.9090   41.5270 C.2   230  GLN230      0.2608
     31  OE1      144.8940  165.5200   40.3630 O.2   230  GLN230     -0.2717
     32  NE2      146.1570  165.7330   42.1910 N.am  230  GLN230     -0.0878
     33  N        147.3800  168.5120   39.8470 N.3   267  GLY267     -0.1225
     34  CA       147.5270  167.8390   38.5590 C.3   267  GLY267      0.1811
     35  C        147.8350  168.7410   37.3810 C.2   267  GLY267      0.2280
     36  O        147.3340  168.5070   36.2820 O.2   267  GLY267     -0.2866
     37  N        149.4160  166.6890   34.6960 N.3   270  GLN270     -0.1245
     38  CA       148.8520  165.3500   34.5690 C.3   270  GLN270      0.1566
     39  C        148.0870  165.2420   33.2640 C.2   270  GLN270      0.2260
     40  O        147.1000  165.9420   33.0500 O.2   270  GLN270     -0.2867
     41  CB       147.9500  165.0490   35.7700 C.3   270  GLN270      0.0367
     42  CG       147.3640  163.6430   35.7720 C.3   270  GLN270      0.0905
     43  CD       148.0310  162.7190   36.7400 C.2   270  GLN270      0.2608
     44  OE1      149.0600  163.0280   37.3160 O.2   270  GLN270     -0.2717
     45  NE2      147.4550  161.5470   36.9240 N.am  270  GLN270     -0.0878
     46  N        145.1590  154.2570   31.0830 N.3   300  GLU300     -0.1245
     47  CA       144.5780  155.4400   30.5090 C.3   300  GLU300      0.1567
     48  C        145.7750  156.3530   30.5610 C.2   300  GLU300      0.2260
     49  O        146.4740  156.3580   31.5720 O.2   300  GLU300     -0.2867
     50  CB       143.3980  155.8960   31.4200 C.3   300  GLU300      0.0388
     51  CG       142.5760  157.0480   30.8810 C.3   300  GLU300      0.1160
     52  CD       142.9110  158.4130   31.4580 C.2   300  GLU300      0.3649
     53  OE1      143.0700  159.3580   30.6560 O.co2 300  GLU300     -0.2457
     54  OE2      142.9640  158.5570   32.7010 O.co2 300  GLU300     -0.2457
     55  N        147.6060  158.8480   31.5680 N.3   302  SER302     -0.1217
     56  CA       147.5190  159.8040   32.6650 C.3   302  SER302      0.1889
     57  C        148.5320  159.3590   33.7130 C.2   302  SER302      0.2288
     58  O        148.4070  158.2670   34.2570 O.2   302  SER302     -0.2866
     59  CB       146.0940  159.8100   33.2180 C.3   302  SER302      0.2089
     60  OG       145.9350  160.7940   34.2160 O.3   302  SER302     -0.2183
     61  N        154.7630  154.9540   36.6270 N.3   330  ARG330     -0.1245
     62  CA       154.2310  156.2860   36.6630 C.3   330  ARG330      0.1563
     63  C        155.3390  157.2940   36.3950 C.2   330  ARG330      0.2260
     64  O        156.5140  156.9680   36.5530 O.2   330  ARG330     -0.2867
     65  CB       153.4110  156.5790   37.9130 C.3   330  ARG330      0.0307
     66  CG       153.9280  156.0570   39.2160 C.3   330  ARG330      0.0489
     67  CD       152.8380  156.3110   40.2400 C.3   330  ARG330      0.2205
     68  NE       153.2230  155.7460   41.5190 N.pl3 330  ARG330     -0.0865
     69  CZ       152.7210  156.0940   42.6910 C.cat 330  ARG330      0.5346
     70  NH1      151.7990  157.0430   42.7710 N.pl3 330  ARG330      0.1354
     71  NH2      153.1430  155.5040   43.7950 N.pl3 330  ARG330      0.1354
     72  N        154.0420  160.2400   43.0870 N.3   334  ASP334     -0.1225
     73  CA       153.1350  160.6910   44.1520 C.3   334  ASP334      0.1805
     74  C        151.7270  161.0280   43.5950 C.2   334  ASP334      0.2598
     75  O        150.8270  161.4260   44.3550 O.2   334  ASP334     -0.2718
     76  CB       153.7380  161.8700   44.9610 C.3   334  ASP334      0.1424
     77  CG       152.9490  162.2640   46.2110 C.2   334  ASP334      0.3668
     78  OD1      152.5550  161.3510   46.9860 O.co2 334  ASP334     -0.2456
     79  OD2      152.7040  163.4880   46.4050 O.co2 334  ASP334     -0.2456
     80  N        151.5350  160.8530   42.2660 N.am  335  SER335     -0.1938
     81  CA       150.2440  161.1000   41.6250 C.3   335  SER335      0.2055
     82  C        149.5730  159.7540   41.2630 C.2   335  SER335      0.2643
     83  O        150.2250  158.7150   41.1770 O.2   335  SER335     -0.2714
     84  CB       150.4060  161.9690   40.3810 C.3   335  SER335      0.2130
     85  OG       151.0230  163.2030   40.7020 O.3   335  SER335     -0.2179
     86  N        148.2750  159.7890   41.0710 N.am  336  ASP336     -0.1957
     87  CA       147.5090  158.6290   40.7080 C.3   336  ASP336      0.1840
     88  C        147.6890  158.3930   39.2150 C.2   336  ASP336      0.2622
     89  O        148.0040  159.3050   38.4580 O.2   336  ASP336     -0.2715
     90  CB       146.0360  158.8410   41.0820 C.3   336  ASP336      0.1450
     91  CG       145.2260  157.5690   41.2290 C.2   336  ASP336      0.3671
     92  OD1      145.8200  156.4760   41.1680 O.co2 336  ASP336     -0.2456
     93  OD2      144.0020  157.6690   41.4230 O.co2 336  ASP336     -0.2456
     94  N        147.5430  157.1640   38.8060 N.am  337  ILE337     -0.1963
     95  CA       147.7160  156.7460   37.4200 C.3   337  ILE337      0.1727
     96  C        146.3630  156.5430   36.7200 C.2   337  ILE337      0.2616
     97  O        145.3660  156.2150   37.3620 O.2   337  ILE337     -0.2715
     98  CB       148.5710  155.4610   37.4140 C.3   337  ILE337      0.0290
     99  CG1      147.8410  154.3010   38.1730 C.3   337  ILE337      0.0022
    100  CG2      149.9240  155.7900   38.0140 C.3   337  ILE337      0.0023
    101  CD1      148.4850  152.9980   38.2500 C.3   337  ILE337      0.0001
    102  N        146.3480  156.7180   35.4140 N.am  338  GLY338     -0.1955
    103  CA       145.1510  156.4730   34.6390 C.3   338  GLY338      0.1869
    104  C        145.0640  154.9900   34.3500 C.2   338  GLY338      0.2309
    105  O        145.9650  154.4080   33.7460 O.2   338  GLY338     -0.2863
    106  N        148.0370  152.9650   45.6740 N.3   346  LEU346     -0.1245
    107  CA       149.4230  153.0440   45.3120 C.3   346  LEU346      0.1561
    108  C        150.2060  153.6240   46.4790 C.2   346  LEU346      0.2260
    109  O        149.7440  154.5510   47.1500 O.2   346  LEU346     -0.2867
    110  CB       149.5990  153.8980   44.0490 C.3   346  LEU346      0.0270
    111  CG       149.0270  153.3080   42.7710 C.3   346  LEU346      0.0019
    112  CD1      148.3660  154.3680   41.9550 C.3   346  LEU346      0.0001
    113  CD2      150.0820  152.6130   41.9740 C.3   346  LEU346      0.0001
    114  N        153.1100  155.8150   47.8290 N.3   348  PRO348     -0.2116
    115  CA       153.9220  156.9330   47.3150 C.3   348  PRO348      0.1372
    116  C        155.4200  156.6260   47.2120 C.2   348  PRO348      0.2244
    117  O        155.9730  155.8910   48.0410 O.2   348  PRO348     -0.2868
    118  CB       153.6670  158.0430   48.3410 C.3   348  PRO348      0.0268
    119  CG       152.3610  157.7070   48.9460 C.3   348  PRO348      0.0207
    120  CD       152.3650  156.2170   49.0390 C.3   348  PRO348      0.0892
@<TRIPOS>BOND
     1    47    48    1
     2    47    46    1
     3    47    50    1
     4    48    49    2
     5    53    52   ar
     6    51    50    1
     7    51    52    1
     8    52    54   ar
     9    55    56    1
    10    56    59    1
    11    56    57    1
    12    40    39    2
    13    59    60    1
    14    39    38    1
    15    57    58    2
    16   105   104    2
    17   104   103    1
    18    38    37    1
    19    38    41    1
    20   103   102    1
    21   102    96   am
    22    41    42    1
    23    42    43    1
    24    36    35    2
    25    63    64    2
    26    63    62    1
    27    61    62    1
    28    62    65    1
    29    96    97    2
    30    96    95    1
    31    43    45   am
    32    43    44    2
    33    35    34    1
    34    98    95    1
    35    98   100    1
    36    98    99    1
    37    95    94    1
    38     5     6    1
    39     5     2    1
    40    65    66    1
    41    99   101    1
    42     7     6    2
    43    89    88    2
    44     6     8   am
    45    34    33    1
    46     2     1    1
    47     2     3    1
    48    94    88   am
    49    88    87    1
    50    66    67    1
    51     3     9   am
    52     3     4    2
    53     9    10    1
    54    67    68    1
    55    31    30    2
    56    84    85    1
    57    84    81    1
    58    27    26    2
    59    12    11    2
    60    87    86    1
    61    87    90    1
    62    15    14    1
    63    13    10    1
    64    13    14    1
    65    86    82   am
    66    90    91    1
    67    10    11    1
    68    92    91   ar
    69    83    82    2
    70    91    93   ar
    71    82    81    1
    72    14    16    1
    73    26    25    1
    74    28    25    1
    75    28    29    1
    76    11    17   am
    77    68    69    2
    78    30    32   am
    79    30    29    1
    80    81    80    1
    81   112   111    1
    82   113   111    1
    83    25    24    1
    84    80    74   am
    85    69    70    1
    86    69    71    1
    87    17    18    1
    88   111   110    1
    89    72    73    1
    90    18    19    1
    91    18    21    1
    92    23    21    1
    93    74    73    1
    94    74    75    2
    95    19    20    2
    96   110   107    1
    97    73    76    1
    98    21    22    1
    99    76    77    1
   100   107   106    1
   101   107   108    1
   102    77    79   ar
   103    77    78   ar
   104   108   109    2
   105   116   115    1
   106   116   117    2
   107   115   114    1
   108   115   118    1
   109   114   120    1
   110   118   119    1
   111   119   120    1
