@<TRIPOS>MOLECULE
tmp/5d5dA10.pdb
 80 73 0 0 0
SMALL
GASTEIGER

@<TRIPOS>ATOM
      1  N        136.0080  137.0100   33.3700 N.3    13  SER13      -0.1217
      2  CA       136.7140  136.5530   34.5460 C.3    13  SER13       0.1889
      3  C        137.6490  137.6690   34.9880 C.2    13  SER13       0.2288
      4  O        138.5920  138.0200   34.2880 O.2    13  SER13      -0.2866
      5  CB       137.5030  135.2880   34.2450 C.3    13  SER13       0.2089
      6  OG       138.1810  134.8310   35.4030 O.3    13  SER13      -0.2183
      7  N        133.2350  136.3240   37.6910 N.3    28  ASN28      -0.1240
      8  CA       133.2480  135.0340   37.0050 C.3    28  ASN28       0.1653
      9  C        131.8290  134.8690   36.4980 C.2    28  ASN28       0.2266
     10  O        131.0730  134.0210   36.9780 O.2    28  ASN28      -0.2867
     11  CB       133.7200  133.8800   37.9110 C.3    28  ASN28       0.1155
     12  CG       134.1030  132.6510   37.1260 C.2    28  ASN28       0.2627
     13  OD1      134.9550  132.6790   36.2350 O.2    28  ASN28      -0.2716
     14  ND2      133.4620  131.5440   37.4180 N.am   28  ASN28      -0.0877
     15  N        150.1120  138.1690   21.4370 N.3   323  LEU323     -0.1245
     16  CA       150.7330  138.0650   22.7430 C.3   323  LEU323      0.1561
     17  C        151.3600  139.4420   22.9590 C.2   323  LEU323      0.2260
     18  O        152.1050  139.9390   22.1050 O.2   323  LEU323     -0.2867
     19  CB       151.7600  136.9130   22.8360 C.3   323  LEU323      0.0270
     20  CG       152.3690  136.5910   24.2420 C.3   323  LEU323      0.0019
     21  CD1      151.3300  136.0060   25.1940 C.3   323  LEU323      0.0001
     22  CD2      153.4970  135.5960   24.1130 C.3   323  LEU323      0.0001
     23  N        151.1000  140.6400   30.6160 N.3   357  LEU357     -0.1245
     24  CA       151.1600  139.7050   29.5080 C.3   357  LEU357      0.1561
     25  C        149.7210  139.4260   29.0710 C.2   357  LEU357      0.2260
     26  O        148.9240  138.8760   29.8260 O.2   357  LEU357     -0.2867
     27  CB       151.9160  138.4070   29.8820 C.3   357  LEU357      0.0270
     28  CG       152.4650  137.5810   28.6870 C.3   357  LEU357      0.0019
     29  CD1      153.5010  138.3800   27.8610 C.3   357  LEU357      0.0001
     30  CD2      153.1040  136.2600   29.1760 C.3   357  LEU357      0.0001
     31  N        146.9800  138.0220   26.0510 N.3   359  LEU359     -0.1245
     32  CA       146.7380  137.0920   24.9770 C.3   359  LEU359      0.1561
     33  C        145.3490  137.3490   24.4220 C.2   359  LEU359      0.2260
     34  O        144.3680  137.4410   25.1580 O.2   359  LEU359     -0.2867
     35  CB       146.9030  135.6460   25.4450 C.3   359  LEU359      0.0270
     36  CG       146.6910  134.5660   24.3980 C.3   359  LEU359      0.0019
     37  CD1      147.9570  134.2700   23.6370 C.3   359  LEU359      0.0001
     38  CD2      146.1860  133.3080   25.0530 C.3   359  LEU359      0.0001
     39  N        139.1030  134.9050   22.7880 N.3   373  PHE373     -0.1241
     40  CA       139.6550  134.9370   24.1270 C.3   373  PHE373      0.1605
     41  C        140.4650  136.2520   24.1700 C.2   373  PHE373      0.2264
     42  O        141.3720  136.4300   23.3600 O.2   373  PHE373     -0.2867
     43  CB       140.5580  133.7100   24.4420 C.3   373  PHE373      0.0534
     44  CG       141.3030  133.8650   25.7490 C.ar  373  PHE373     -0.0203
     45  CD1      140.7020  133.5210   26.9590 C.ar  373  PHE373     -0.0042
     46  CD2      142.5770  134.4220   25.7810 C.ar  373  PHE373     -0.0042
     47  CE1      141.3650  133.7210   28.1710 C.ar  373  PHE373     -0.0003
     48  CE2      143.2390  134.6200   26.9930 C.ar  373  PHE373     -0.0003
     49  CZ       142.6380  134.2430   28.1780 C.ar  373  PHE373     -0.0000
     50  N        142.5030  138.1870   27.1010 N.3   375  GLY375     -0.1210
     51  CA       142.9220  138.0420   28.4780 C.3   375  GLY375      0.1956
     52  C        144.2080  138.7410   28.8250 C.2   375  GLY375      0.2612
     53  O        145.2020  138.6430   28.1110 O.2   375  GLY375     -0.2717
     54  N        144.1890  139.3950   29.9620 N.am  376  GLY376     -0.1942
     55  CA       145.3330  140.0960   30.4890 C.3   376  GLY376      0.2014
     56  C        145.7390  139.4960   31.7970 C.2   376  GLY376      0.2638
     57  O        144.8900  139.1890   32.6220 O.2   376  GLY376     -0.2714
     58  N        147.0230  139.3000   31.9560 N.am  377  LEU377     -0.1977
     59  CA       147.6390  138.7920   33.1480 C.3   377  LEU377      0.1596
     60  C        148.5920  139.8970   33.6170 C.2   377  LEU377      0.2287
     61  O        149.6200  140.1340   33.0080 O.2   377  LEU377     -0.2864
     62  CB       148.3890  137.4700   32.8520 C.3   377  LEU377      0.0297
     63  CG       149.0450  136.8150   34.0680 C.3   377  LEU377      0.0022
     64  CD1      148.0050  136.3010   35.0360 C.3   377  LEU377      0.0001
     65  CD2      150.0100  135.7230   33.6430 C.3   377  LEU377      0.0001
     66  N        144.1410  139.0460   36.7590 N.3   393  HIS393     -0.1241
     67  CA       143.7340  138.7320   35.4320 C.3   393  HIS393      0.1621
     68  C        142.3610  139.2660   35.1660 C.2   393  HIS393      0.2264
     69  O        141.5400  139.4350   36.0800 O.2   393  HIS393     -0.2867
     70  CB       143.8090  137.2260   35.1280 C.3   393  HIS393      0.0745
     71  CG       142.6890  136.4510   35.7190 C.ar  393  HIS393      0.0817
     72  ND1      142.8340  135.7980   36.9360 N.ar  393  HIS393     -0.2268
     73  CD2      141.4200  136.2880   35.2740 C.ar  393  HIS393      0.1154
     74  CE1      141.6530  135.2490   37.1820 C.ar  393  HIS393      0.1986
     75  NE2      140.7620  135.5440   36.2280 N.ar  393  HIS393     -0.2212
     76  N        139.9470  138.2100   31.8600 N.3   395  ALA395     -0.1245
     77  CA       139.8660  137.3470   30.7010 C.3   395  ALA395      0.1562
     78  C        138.4300  137.3100   30.2770 C.2   395  ALA395      0.2260
     79  O        137.5230  137.3660   31.1090 O.2   395  ALA395     -0.2867
     80  CB       140.3490  135.9530   31.0550 C.3   395  ALA395      0.0290
@<TRIPOS>BOND
     1    15    16    1
     2    18    17    2
     3    16    19    1
     4    16    17    1
     5    39    40    1
     6    19    20    1
     7    42    41    2
     8    37    36    1
     9    22    20    1
    10    40    41    1
    11    40    43    1
    12    20    21    1
    13    36    38    1
    14    36    35    1
    15    33    32    1
    16    33    34    2
    17    43    44    1
    18    32    35    1
    19    32    31    1
    20    44    46   ar
    21    44    45   ar
    22    46    48   ar
    23    45    47   ar
    24    48    49   ar
    25    50    51    1
    26    29    28    1
    27    53    52    2
    28    47    49   ar
    29    51    52    1
    30    28    30    1
    31    28    27    1
    32    52    54   am
    33    25    24    1
    34    25    26    2
    35    24    27    1
    36    24    23    1
    37    54    55    1
    38    78    77    1
    39    78    79    2
    40    55    56    1
    41    77    80    1
    42    77    76    1
    43    56    58   am
    44    56    57    2
    45    58    59    1
    46    62    59    1
    47    62    63    1
    48    61    60    2
    49    59    60    1
    50     1     2    1
    51    65    63    1
    52    63    64    1
    53     5     2    1
    54     5     6    1
    55     4     3    2
    56     2     3    1
    57    70    67    1
    58    70    71    1
    59    68    67    1
    60    68    69    2
    61    73    71   ar
    62    73    75   ar
    63    67    66    1
    64    71    72   ar
    65    75    74   ar
    66    13    12    2
    67     9    10    2
    68     9     8    1
    69    72    74   ar
    70     8     7    1
    71     8    11    1
    72    12    14   am
    73    12    11    1
