@<TRIPOS>MOLECULE
tmp/5d5qC01.pdb
 107 103 0 0 0
SMALL
GASTEIGER

@<TRIPOS>ATOM
      1  N          9.9130  -27.7570    9.6590 N.3    75  ASP75      -0.1239
      2  CA        11.2840  -28.2210    9.4270 C.3    75  ASP75       0.1674
      3  C         12.0440  -27.4540    8.3400 C.2    75  ASP75       0.2266
      4  O         13.1940  -27.7770    8.0410 O.2    75  ASP75      -0.2867
      5  CB        11.2760  -29.7100    9.0710 C.3    75  ASP75       0.1410
      6  CG        10.7100  -30.5730   10.1800 C.2    75  ASP75       0.3668
      7  OD1       10.7480  -30.1390   11.3510 O.co2  75  ASP75      -0.2456
      8  OD2       10.2250  -31.6840    9.8800 O.co2  75  ASP75      -0.2456
      9  N          7.3910  -24.8520   15.9140 N.3    84  LYS84      -0.1245
     10  CA         6.3440  -25.7960   16.2880 C.3    84  LYS84       0.1561
     11  C          5.5590  -25.2500   17.4750 C.2    84  LYS84       0.2260
     12  O          4.3190  -25.2110   17.4600 O.2    84  LYS84      -0.2867
     13  CB         6.9390  -27.1660   16.6320 C.3    84  LYS84       0.0271
     14  CG         7.5150  -27.9210   15.4430 C.3    84  LYS84       0.0035
     15  CD         7.9930  -29.3120   15.8390 C.3    84  LYS84       0.0206
     16  CE         8.6920  -30.0060   14.6770 C.3    84  LYS84       0.1093
     17  NZ         8.8540  -31.4680   14.9030 N.3    84  LYS84      -0.1314
     18  N          8.9770  -30.0950   20.2970 N.3   100  ARG100     -0.1231
     19  CA        10.2210  -30.8250   20.1060 C.3   100  ARG100      0.1694
     20  C         10.5410  -30.9550   18.6250 C.2   100  ARG100      0.2593
     21  O          9.7000  -31.3820   17.8350 O.2   100  ARG100     -0.2718
     22  CB        10.1290  -32.2010   20.7700 C.3   100  ARG100      0.0321
     23  CG        11.4630  -32.8880   21.0040 C.3   100  ARG100      0.0489
     24  CD        11.8020  -33.8380   19.8690 C.3   100  ARG100      0.2205
     25  NE        12.9800  -34.6460   20.1670 N.pl3 100  ARG100     -0.0865
     26  CZ        13.5350  -35.4960   19.3110 C.cat 100  ARG100      0.5346
     27  NH1       14.6080  -36.1900   19.6650 N.pl3 100  ARG100      0.1354
     28  NH2       13.0140  -35.6550   18.1020 N.pl3 100  ARG100      0.1354
     29  N         11.7610  -30.5910   18.2480 N.am  101  GLY101     -0.1942
     30  CA        12.1510  -30.6610   16.8510 C.3   101  GLY101      0.2014
     31  C         13.6440  -30.5060   16.6670 C.2   101  GLY101      0.2638
     32  O         14.4040  -30.6680   17.6120 O.2   101  GLY101     -0.2714
     33  N         14.0700  -30.2180   15.4440 N.am  102  ARG102     -0.1977
     34  CA        15.4800  -29.9620   15.1870 C.3   102  ARG102      0.1597
     35  C         15.8540  -28.6020   15.7680 C.2   102  ARG102      0.2287
     36  O         15.0540  -27.6680   15.7260 O.2   102  ARG102     -0.2864
     37  CB        15.7760  -30.0120   13.6870 C.3   102  ARG102      0.0334
     38  CG        17.2440  -29.8540   13.3260 C.3   102  ARG102      0.0492
     39  CD        17.4480  -30.0750   11.8400 C.3   102  ARG102      0.2205
     40  NE        16.8870  -28.9750   11.0620 N.pl3 102  ARG102     -0.0865
     41  CZ        16.0750  -29.1320   10.0210 C.cat 102  ARG102      0.5346
     42  NH1       15.7250  -30.3490    9.6280 N.pl3 102  ARG102      0.1354
     43  NH2       15.6110  -28.0710    9.3750 N.pl3 102  ARG102      0.1354
     44  N         20.0360  -28.4820    9.4760 N.3   106  PRO106     -0.2102
     45  CA        20.1380  -29.9420    9.3880 C.3   106  PRO106      0.1504
     46  C         21.4710  -30.4620    9.9290 C.2   106  PRO106      0.2576
     47  O         22.5280  -30.0280    9.4710 O.2   106  PRO106     -0.2718
     48  CB        20.0150  -30.2020    7.8880 C.3   106  PRO106      0.0282
     49  CG        19.1450  -29.0930    7.4060 C.3   106  PRO106      0.0208
     50  CD        19.5260  -27.8900    8.2270 C.3   106  PRO106      0.0893
     51  N         21.4140  -31.3810   10.8890 N.am  107  GLY107     -0.1943
     52  CA        22.6150  -31.9160   11.5060 C.3   107  GLY107      0.2014
     53  C         22.8860  -31.3470   12.8880 C.2   107  GLY107      0.2640
     54  O         23.8480  -31.7390   13.5480 O.2   107  GLY107     -0.2714
     55  N         22.0370  -30.4230   13.3280 N.am  108  SER108     -0.1935
     56  CA        22.2890  -29.6710   14.5570 C.3   108  SER108      0.2055
     57  C         21.7080  -30.3030   15.8230 C.2   108  SER108      0.2644
     58  O         21.7680  -29.7070   16.8990 O.2   108  SER108     -0.2714
     59  CB        21.7480  -28.2470   14.4150 C.3   108  SER108      0.2130
     60  OG        21.5490  -27.6470   15.6800 O.3   108  SER108     -0.2179
     61  N         21.1420  -31.4980   15.7020 N.am  109  GLY109     -0.1939
     62  CA        20.5750  -32.1770   16.8540 C.3   109  GLY109      0.2014
     63  C         19.1800  -31.6950   17.1990 C.2   109  GLY109      0.2639
     64  O         18.5590  -30.9750   16.4190 O.2   109  GLY109     -0.2714
     65  N         18.6890  -32.0720   18.3760 N.am  110  SER110     -0.1949
     66  CA        17.2980  -31.7960   18.7160 C.3   110  SER110      0.1924
     67  C         17.1390  -30.8530   19.9010 C.2   110  SER110      0.2314
     68  O         18.0330  -30.7090   20.7380 O.2   110  SER110     -0.2863
     69  CB        16.5480  -33.0990   19.0020 C.3   110  SER110      0.2116
     70  OG        16.9280  -33.6440   20.2510 O.3   110  SER110     -0.2180
     71  N         22.0560  -34.4030   21.3010 N.3   128  PRO128     -0.2102
     72  CA        22.9920  -34.5020   20.1770 C.3   128  PRO128      0.1504
     73  C         22.2940  -34.9510   18.9000 C.2   128  PRO128      0.2576
     74  O         21.1570  -35.4180   18.9600 O.2   128  PRO128     -0.2718
     75  CB        23.9970  -35.5570   20.6480 C.3   128  PRO128      0.0282
     76  CG        23.9260  -35.5100   22.1340 C.3   128  PRO128      0.0208
     77  CD        22.4950  -35.2070   22.4550 C.3   128  PRO128      0.0893
     78  N         22.9580  -34.7850   17.7620 N.am  129  SER129     -0.1938
     79  CA        22.4190  -35.2550   16.4930 C.3   129  SER129      0.2055
     80  C         22.1120  -36.7460   16.5900 C.2   129  SER129      0.2643
     81  O         22.8830  -37.5040   17.1800 O.2   129  SER129     -0.2714
     82  CB        23.4010  -34.9760   15.3530 C.3   129  SER129      0.2130
     83  OG        22.8550  -35.3490   14.1020 O.3   129  SER129     -0.2179
     84  N         20.9830  -37.1610   16.0200 N.am  130  SER130     -0.1949
     85  CA        20.5870  -38.5680   16.0290 C.3   130  SER130      0.1924
     86  C         21.6050  -39.4470   15.3080 C.2   130  SER130      0.2314
     87  O         21.6370  -40.6630   15.4950 O.2   130  SER130     -0.2863
     88  CB        19.2050  -38.7360   15.3950 C.3   130  SER130      0.2116
     89  OG        19.1900  -38.2440   14.0670 O.3   130  SER130     -0.2180
     90  N         23.9990  -40.1940   18.6350 N.3   133  HIS133     -0.1241
     91  CA        23.4920  -40.9360   19.7850 C.3   133  HIS133      0.1621
     92  C         22.6720  -42.1600   19.3830 C.2   133  HIS133      0.2264
     93  O         22.4950  -43.0690   20.1890 O.2   133  HIS133     -0.2867
     94  CB        22.6660  -40.0050   20.6880 C.3   133  HIS133      0.0745
     95  CG        21.3750  -39.5480   20.0860 C.ar  133  HIS133      0.0817
     96  ND1       20.2760  -40.3860   19.9360 N.ar  133  HIS133     -0.2268
     97  CD2       20.9890  -38.3520   19.6010 C.ar  133  HIS133      0.1154
     98  CE1       19.2930  -39.7170   19.3840 C.ar  133  HIS133      0.1986
     99  NE2       19.6890  -38.4720   19.1670 N.ar  133  HIS133     -0.2212
    100  N         13.3230  -41.8710   19.5620 N.3   137  ILE137     -0.1245
    101  CA        12.8930  -40.5100   19.8320 C.3   137  ILE137      0.1561
    102  C         12.0920  -40.4310   21.1460 C.2   137  ILE137      0.2260
    103  O         12.0990  -39.4020   21.8100 O.2   137  ILE137     -0.2867
    104  CB        12.0680  -39.9660   18.6420 C.3   137  ILE137      0.0252
    105  CG1       12.9340  -39.9120   17.3790 C.3   137  ILE137      0.0019
    106  CG2       11.3820  -38.6360   18.9720 C.3   137  ILE137      0.0019
    107  CD1       14.2300  -39.1310   17.5350 C.3   137  ILE137      0.0001
@<TRIPOS>BOND
     1    49    48    1
     2    49    50    1
     3    48    45    1
     4     4     3    2
     5    50    44    1
     6     3     2    1
     7     5     2    1
     8     5     6    1
     9    43    41    1
    10    45    44    1
    11    45    46    1
    12     2     1    1
    13    47    46    2
    14    42    41    1
    15     8     6   ar
    16    46    51   am
    17    41    40    2
    18     6     7   ar
    19    51    52    1
    20    40    39    1
    21    52    53    1
    22    39    38    1
    23    53    55   am
    24    53    54    2
    25    38    37    1
    26    55    56    1
    27    37    34    1
    28    89    88    1
    29    83    82    1
    30    59    56    1
    31    59    60    1
    32    56    57    1
    33    16    17    1
    34    16    15    1
    35    34    33    1
    36    34    35    1
    37    86    87    2
    38    86    85    1
    39    82    79    1
    40    88    85    1
    41    14    15    1
    42    14    13    1
    43    33    31   am
    44    61    57   am
    45    61    62    1
    46    36    35    2
    47    57    58    2
    48     9    10    1
    49    84    85    1
    50    84    80   am
    51    10    13    1
    52    10    11    1
    53    64    63    2
    54    79    80    1
    55    79    78    1
    56    80    81    2
    57    31    30    1
    58    31    32    2
    59    30    29    1
    60    62    63    1
    61    63    65   am
    62   105   107    1
    63   105   104    1
    64    12    11    2
    65    78    73   am
    66    21    20    2
    67    28    26    1
    68    29    20   am
    69    65    66    1
    70    20    19    1
    71    90    91    1
    72   104   106    1
    73   104   101    1
    74    66    69    1
    75    66    67    1
    76    73    74    2
    77    73    72    1
    78    69    70    1
    79    99    98   ar
    80    99    97   ar
    81    26    27    1
    82    26    25    2
    83    92    91    1
    84    92    93    2
    85    98    96   ar
    86   100   101    1
    87    97    95   ar
    88    91    94    1
    89   101   102    1
    90    24    25    1
    91    24    23    1
    92    67    68    2
    93    96    95   ar
    94    95    94    1
    95    19    18    1
    96    19    22    1
    97    72    75    1
    98    72    71    1
    99    75    76    1
   100    22    23    1
   101   102   103    2
   102    71    77    1
   103    76    77    1
