@<TRIPOS>MOLECULE
tmp/5d62A02.pdb
 113 115 0 0 0
SMALL
GASTEIGER

@<TRIPOS>ATOM
      1  N        -52.1520   24.3620    6.5520 N.3    19  ASP19      -0.1239
      2  CA       -52.4710   25.2960    5.4930 C.3    19  ASP19       0.1674
      3  C        -51.1280   26.0700    5.1200 C.2    19  ASP19       0.2266
      4  O        -50.4700   26.6380    5.9590 O.2    19  ASP19      -0.2867
      5  CB       -53.5180   26.2640    5.9860 C.3    19  ASP19       0.1410
      6  CG       -54.0470   27.2850    4.9250 C.2    19  ASP19       0.3668
      7  OD1      -53.2370   28.1640    4.4450 O.co2  19  ASP19      -0.2456
      8  OD2      -55.2820   27.2860    4.5730 O.co2  19  ASP19      -0.2456
      9  N        -55.5990   26.4520    9.9690 N.3    34  TRP34      -0.1227
     10  CA       -56.6960   27.1970    9.3120 C.3    34  TRP34       0.1737
     11  C        -57.9530   26.3450    9.2210 C.2    34  TRP34       0.2595
     12  O        -57.9000   25.1620    8.9070 O.2    34  TRP34      -0.2718
     13  CB       -56.2900   27.6930    7.9230 C.3    34  TRP34       0.0564
     14  CG       -56.9610   28.9390    7.4490 C.ar   34  TRP34       0.0003
     15  CD1      -58.2330   29.0780    6.9980 C.ar   34  TRP34       0.0946
     16  CD2      -56.4010   30.2430    7.4720 C.ar   34  TRP34       0.0152
     17  NE1      -58.5110   30.4100    6.6990 N.ar   34  TRP34      -0.2442
     18  CE2      -57.4110   31.1520    6.9940 C.ar   34  TRP34       0.0810
     19  CE3      -55.1420   30.7440    7.8520 C.ar   34  TRP34       0.0012
     20  CZ2      -57.2030   32.5440    6.8890 C.ar   34  TRP34       0.0191
     21  CZ3      -54.9360   32.1260    7.7720 C.ar   34  TRP34       0.0001
     22  CH2      -55.9810   33.0150    7.2810 C.ar   34  TRP34       0.0015
     23  N        -59.1250   26.9480    9.3720 N.am   35  GLN35      -0.1965
     24  CA       -60.3690   26.2500    9.1900 C.3    35  GLN35       0.1733
     25  C        -60.6220   25.8490    7.7630 C.2    35  GLN35       0.2616
     26  O        -60.0090   26.3680    6.8510 O.2    35  GLN35      -0.2715
     27  CB       -61.5630   27.0710    9.7330 C.3    35  GLN35       0.0408
     28  CG       -61.9150   28.2750    8.9150 C.3    35  GLN35       0.0908
     29  CD       -63.0580   29.0870    9.5340 C.2    35  GLN35       0.2608
     30  OE1      -64.1650   28.6170    9.5790 O.2    35  GLN35      -0.2717
     31  NE2      -62.7770   30.2760   10.0220 N.am   35  GLN35      -0.0878
     32  N        -61.5720   24.9190    7.5340 N.am   36  PHE36      -0.1960
     33  CA       -61.7790   24.3290    6.2270 C.3    36  PHE36       0.1771
     34  C        -63.2530   24.0560    6.0140 C.2    36  PHE36       0.2620
     35  O        -64.0490   24.1590    6.9980 O.2    36  PHE36      -0.2715
     36  CB       -60.9210   23.0230    6.1250 C.3    36  PHE36       0.0574
     37  CG       -61.3350   21.9440    7.0850 C.ar   36  PHE36      -0.0200
     38  CD1      -60.7420   21.8390    8.3030 C.ar   36  PHE36      -0.0042
     39  CD2      -62.2380   20.9860    6.7030 C.ar   36  PHE36      -0.0042
     40  CE1      -61.0780   20.8170    9.1900 C.ar   36  PHE36      -0.0003
     41  CE2      -62.6700   20.0030    7.6290 C.ar   36  PHE36      -0.0003
     42  CZ       -62.0480   19.9460    8.8460 C.ar   36  PHE36      -0.0000
     43  N        -63.5900   23.7780    4.7640 N.am   37  THR37      -0.1951
     44  CA       -64.9940   23.4580    4.4000 C.3    37  THR37       0.1897
     45  C        -64.9580   22.0330    3.8540 C.2    37  THR37       0.2313
     46  O        -64.2570   21.7680    2.8810 O.2    37  THR37      -0.2863
     47  CB       -65.5440   24.4770    3.3650 C.3    37  THR37       0.1794
     48  OG1      -65.3450   25.8190    3.8900 O.3    37  THR37      -0.2208
     49  CG2      -66.9800   24.2110    3.0630 C.3    37  THR37       0.0378
     50  N        -65.2470   20.2850   -0.3860 N.3    40  THR40      -0.1203
     51  CA       -64.8050   21.3160   -1.2950 C.3    40  THR40       0.1994
     52  C        -63.3310   20.9960   -1.5990 C.2    40  THR40       0.2618
     53  O        -62.7080   20.2220   -0.8620 O.2    40  THR40      -0.2717
     54  CB       -64.7680   22.7260   -0.7050 C.3    40  THR40       0.1784
     55  OG1      -63.7970   22.7960    0.3590 O.3    40  THR40      -0.2211
     56  CG2      -66.1460   23.1230   -0.1760 C.3    40  THR40       0.0376
     57  N        -62.7880   21.6380   -2.6180 N.am   41  ILE41      -0.1965
     58  CA       -61.3330   21.7460   -2.7850 C.3    41  ILE41       0.1727
     59  C        -60.8520   22.8270   -1.8030 C.2    41  ILE41       0.2616
     60  O        -61.1980   24.0460   -1.9810 O.2    41  ILE41      -0.2715
     61  CB       -60.9290   22.0950   -4.2150 C.3    41  ILE41       0.0290
     62  CG1      -61.3620   20.9400   -5.1770 C.3    41  ILE41       0.0022
     63  CG2      -59.4400   22.4370   -4.2590 C.3    41  ILE41       0.0023
     64  CD1      -60.7500   19.5820   -4.9430 C.3    41  ILE41       0.0001
     65  N        -60.0370   22.4260   -0.8010 N.am   42  ASN42      -0.1958
     66  CA       -59.3620   23.4220    0.1050 C.3    42  ASN42       0.1819
     67  C        -58.0340   23.7380   -0.4650 C.2    42  ASN42       0.2621
     68  O        -57.0490   22.9480   -0.2900 O.2    42  ASN42      -0.2715
     69  CB       -59.3050   22.8550    1.5430 C.3    42  ASN42       0.1195
     70  CG       -60.7020   22.7690    2.1550 C.2    42  ASN42       0.2630
     71  OD1      -61.2160   23.7630    2.6400 O.2    42  ASN42      -0.2716
     72  ND2      -61.3100   21.5510    2.1800 N.am   42  ASN42      -0.0877
     73  N        -58.0160   24.8410   -1.2400 N.am   43  TRP43      -0.1960
     74  CA       -56.9850   25.1040   -2.2240 C.3    43  TRP43       0.1771
     75  C        -55.5790   25.1600   -1.6320 C.2    43  TRP43       0.2620
     76  O        -54.5770   24.7750   -2.3110 O.2    43  TRP43      -0.2715
     77  CB       -57.2430   26.4340   -2.9650 C.3    43  TRP43       0.0590
     78  CG       -58.2560   26.2250   -4.0280 C.ar   43  TRP43       0.0006
     79  CD1      -59.6310   26.4750   -3.9450 C.ar   43  TRP43       0.0946
     80  CD2      -58.0050   25.6950   -5.3660 C.ar   43  TRP43       0.0152
     81  NE1      -60.2270   26.0890   -5.1480 N.ar   43  TRP43      -0.2442
     82  CE2      -59.2740   25.5850   -6.0070 C.ar   43  TRP43       0.0810
     83  CE3      -56.8330   25.2530   -6.0300 C.ar   43  TRP43       0.0012
     84  CZ2      -59.4140   25.1290   -7.3230 C.ar   43  TRP43       0.0191
     85  CZ3      -56.9650   24.7610   -7.3010 C.ar   43  TRP43       0.0001
     86  CH2      -58.2630   24.7250   -7.9650 C.ar   43  TRP43       0.0015
     87  N        -55.4490   25.6490   -0.3990 N.am   44  HIS44      -0.1959
     88  CA       -54.0670   25.7340    0.1870 C.3    44  HIS44       0.1787
     89  C        -53.7030   24.6390    1.1440 C.2    44  HIS44       0.2620
     90  O        -52.6500   24.6830    1.7960 O.2    44  HIS44      -0.2715
     91  CB       -53.8670   27.0990    0.8230 C.3    44  HIS44       0.0785
     92  CG       -54.2380   28.2360   -0.0860 C.ar   44  HIS44       0.0821
     93  ND1      -54.6460   29.4630    0.3970 N.ar   44  HIS44      -0.2267
     94  CD2      -54.1160   28.3760   -1.4220 C.ar   44  HIS44       0.1154
     95  CE1      -54.8450   30.2980   -0.6270 C.ar   44  HIS44       0.1986
     96  NE2      -54.4880   29.6790   -1.7300 N.ar   44  HIS44      -0.2212
     97  N        -54.5260   23.5640    1.2520 N.am   45  GLN45      -0.1977
     98  CA       -54.5100   22.6050    2.3410 C.3    45  GLN45       0.1601
     99  C        -54.3290   21.1620    1.8500 C.2    45  GLN45       0.2287
    100  O        -54.6670   20.2330    2.5880 O.2    45  GLN45      -0.2864
    101  CB       -55.7980   22.7140    3.1630 C.3    45  GLN45       0.0394
    102  CG       -55.9680   24.1590    3.7650 C.3    45  GLN45       0.0908
    103  CD       -57.2470   24.2950    4.5630 C.2    45  GLN45       0.2608
    104  OE1      -58.0820   23.3530    4.6210 O.2    45  GLN45      -0.2717
    105  NE2      -57.4000   25.3800    5.2280 N.am   45  GLN45      -0.0878
    106  N        -57.5120   31.0150   12.8570 N.3   130  ASP130     -0.1239
    107  CA       -57.0380   30.9670   11.4710 C.3   130  ASP130      0.1674
    108  C        -55.6500   31.6740   11.4420 C.2   130  ASP130      0.2266
    109  O        -55.4840   32.8740   11.8470 O.2   130  ASP130     -0.2867
    110  CB       -58.0270   31.6560   10.5050 C.3   130  ASP130      0.1410
    111  CG       -59.2900   30.8470   10.3030 C.2   130  ASP130      0.3668
    112  OD1      -59.1810   29.6300   10.5910 O.co2 130  ASP130     -0.2456
    113  OD2      -60.3140   31.4500    9.8730 O.co2 130  ASP130     -0.2456
@<TRIPOS>BOND
     1    86    84   ar
     2    86    85   ar
     3    84    82   ar
     4    85    83   ar
     5    83    80   ar
     6    82    80   ar
     7    82    81   ar
     8    80    78   ar
     9    62    64    1
    10    62    61    1
    11    81    79   ar
    12    63    61    1
    13    61    58    1
    14    78    79   ar
    15    78    77    1
    16    77    74    1
    17    58    57    1
    18    58    59    1
    19    57    52   am
    20    76    75    2
    21    74    75    1
    22    74    73    1
    23    60    59    2
    24    59    65   am
    25    96    94   ar
    26    96    95   ar
    27    75    87   am
    28    52    51    1
    29    52    53    2
    30    94    92   ar
    31    51    54    1
    32    51    50    1
    33    73    67   am
    34    65    66    1
    35    54    56    1
    36    54    55    1
    37    95    93   ar
    38    67    68    2
    39    67    66    1
    40    87    88    1
    41    92    93   ar
    42    92    91    1
    43    66    69    1
    44    88    91    1
    45    88    89    1
    46    89    97   am
    47    89    90    2
    48    97    98    1
    49    69    70    1
    50    99    98    1
    51    99   100    2
    52    70    72   am
    53    70    71    2
    54    98   101    1
    55    46    45    2
    56    49    47    1
    57   101   102    1
    58    47    48    1
    59    47    44    1
    60   102   103    1
    61    45    44    1
    62    44    43    1
    63     7     6   ar
    64   103   104    2
    65   103   105   am
    66     8     6   ar
    67    43    34   am
    68     6     5    1
    69     3     2    1
    70     3     4    2
    71     2     5    1
    72     2     1    1
    73    34    33    1
    74    34    35    2
    75    36    33    1
    76    36    37    1
    77    33    32    1
    78    17    18   ar
    79    17    15   ar
    80    39    37   ar
    81    39    41   ar
    82    26    25    2
    83    20    18   ar
    84    20    22   ar
    85    18    16   ar
    86    15    14   ar
    87    37    38   ar
    88    22    21   ar
    89    14    16   ar
    90    14    13    1
    91    16    19   ar
    92    32    25   am
    93    41    42   ar
    94    25    24    1
    95    21    19   ar
    96    13    10    1
    97    38    40   ar
    98    42    40   ar
    99    12    11    2
   100    28    29    1
   101    28    27    1
   102    24    23    1
   103    24    27    1
   104    11    10    1
   105    11    23   am
   106    10     9    1
   107    29    30    2
   108    29    31   am
   109   113   111   ar
   110   111   110    1
   111   111   112   ar
   112   110   107    1
   113   108   107    1
   114   108   109    2
   115   107   106    1
