@<TRIPOS>MOLECULE
tmp/5d69B00.pdb
 138 133 0 0 0
SMALL
GASTEIGER

@<TRIPOS>ATOM
      1  N         34.4260    2.0390  -17.5110 N.3     9  LEU9       -0.1245
      2  CA        34.4140    1.4080  -16.2060 C.3     9  LEU9        0.1561
      3  C         32.9940    1.4040  -15.5970 C.2     9  LEU9        0.2260
      4  O         32.6150    0.4240  -14.9880 O.2     9  LEU9       -0.2867
      5  CB        35.5300    2.0070  -15.2820 C.3     9  LEU9        0.0270
      6  CG        37.0180    1.4470  -15.3540 C.3     9  LEU9        0.0019
      7  CD1       37.3190    0.3140  -16.3520 C.3     9  LEU9        0.0001
      8  CD2       38.0940    2.5600  -15.5110 C.3     9  LEU9        0.0001
      9  N         33.0260   -2.7220   -5.7640 N.3    28  ILE28      -0.1231
     10  CA        34.0260   -1.8050   -6.2690 C.3    28  ILE28       0.1692
     11  C         34.7290   -0.9260   -5.2070 C.2    28  ILE28       0.2591
     12  O         35.9310   -0.6970   -5.2660 O.2    28  ILE28      -0.2718
     13  CB        33.5070   -0.9200   -7.4630 C.3    28  ILE28       0.0266
     14  CG1       34.6530   -0.3020   -8.2160 C.3    28  ILE28       0.0019
     15  CG2       32.6580    0.2390   -7.0360 C.3    28  ILE28       0.0020
     16  CD1       35.4900   -1.3370   -8.9280 C.3    28  ILE28       0.0001
     17  N         33.9780   -0.4280   -4.2540 N.am   29  LEU29      -0.1980
     18  CA        34.5610    0.3950   -3.1960 C.3    29  LEU29       0.1596
     19  C         35.5610   -0.4450   -2.3550 C.2    29  LEU29       0.2287
     20  O         36.6720    0.0250   -2.1110 O.2    29  LEU29      -0.2864
     21  CB        33.4580    0.9630   -2.3190 C.3    29  LEU29       0.0297
     22  CG        32.9460    2.3890   -2.4870 C.3    29  LEU29       0.0022
     23  CD1       33.3080    3.0860   -3.7050 C.3    29  LEU29       0.0001
     24  CD2       31.5110    2.6300   -2.0690 C.3    29  LEU29       0.0001
     25  N         37.1330   -3.2540   -3.3810 N.3    31  LYS31      -0.1231
     26  CA        38.2680   -3.5720   -4.2880 C.3    31  LYS31       0.1693
     27  C         39.2430   -2.4120   -4.3900 C.2    31  LYS31       0.2592
     28  O         40.4260   -2.5940   -4.2360 O.2    31  LYS31      -0.2718
     29  CB        37.7690   -3.9510   -5.6820 C.3    31  LYS31       0.0285
     30  CG        38.7400   -4.7510   -6.5370 C.3    31  LYS31       0.0035
     31  CD        38.1570   -5.0040   -7.9630 C.3    31  LYS31       0.0206
     32  CE        37.1450   -6.1800   -8.0820 C.3    31  LYS31       0.1093
     33  NZ        35.6720   -5.8550   -7.8560 N.3    31  LYS31      -0.1314
     34  N         38.7400   -1.1980   -4.5530 N.am   32  VAL32      -0.1966
     35  CA        39.6080   -0.0500   -4.6660 C.3    32  VAL32       0.1727
     36  C         40.3170    0.2640   -3.3290 C.2    32  VAL32       0.2616
     37  O         41.5160    0.4930   -3.3490 O.2    32  VAL32      -0.2715
     38  CB        38.8640    1.1900   -5.1410 C.3    32  VAL32       0.0290
     39  CG1       39.7660    2.4000   -5.1400 C.3    32  VAL32       0.0023
     40  CG2       38.3140    1.0170   -6.5050 C.3    32  VAL32       0.0023
     41  N         39.6240    0.2870   -2.1980 N.am   33  VAL33      -0.1977
     42  CA        40.3270    0.6090   -0.9200 C.3    33  VAL33       0.1596
     43  C         41.4590   -0.3460   -0.5480 C.2    33  VAL33       0.2287
     44  O         42.4230    0.0790    0.0830 O.2    33  VAL33      -0.2864
     45  CB        39.4980    0.7230    0.3790 C.3    33  VAL33       0.0276
     46  CG1       38.9200    2.0840    0.5190 C.3    33  VAL33       0.0022
     47  CG2       38.4810   -0.3700    0.5800 C.3    33  VAL33       0.0022
     48  N         43.7160   -1.2800   -2.4410 N.3    35  ARG35      -0.1231
     49  CA        44.9310   -0.7440   -3.0450 C.3    35  ARG35       0.1694
     50  C         45.4230    0.5460   -2.4010 C.2    35  ARG35       0.2592
     51  O         46.3120    1.1930   -2.9590 O.2    35  ARG35      -0.2718
     52  CB        44.7010   -0.4850   -4.5470 C.3    35  ARG35       0.0321
     53  CG        44.2250   -1.7220   -5.3020 C.3    35  ARG35       0.0489
     54  CD        44.1260   -1.5360   -6.8300 C.3    35  ARG35       0.2205
     55  NE        43.0140   -2.3400   -7.3480 N.pl3  35  ARG35      -0.0865
     56  CZ        43.1370   -3.4050   -8.1270 C.cat  35  ARG35       0.5346
     57  NH1       42.0310   -4.0420   -8.4900 N.pl3  35  ARG35       0.1354
     58  NH2       44.3270   -3.8290   -8.5470 N.pl3  35  ARG35       0.1354
     59  N         44.8070    0.9770   -1.2930 N.am   36  HIS36      -0.1976
     60  CA        45.2440    2.1910   -0.6090 C.3    36  HIS36       0.1656
     61  C         45.4660    1.8420    0.8670 C.2    36  HIS36       0.2291
     62  O         44.5630    2.0560    1.6820 O.2    36  HIS36      -0.2864
     63  CB        44.2290    3.3250   -0.7900 C.3    36  HIS36       0.0771
     64  CG        44.0520    3.7490   -2.2060 C.ar   36  HIS36       0.0820
     65  ND1       44.7780    4.7520   -2.7870 N.ar   36  HIS36      -0.2267
     66  CD2       43.2610    3.2560   -3.1880 C.ar   36  HIS36       0.1154
     67  CE1       44.4260    4.8910   -4.0510 C.ar   36  HIS36       0.1986
     68  NE2       43.5260    3.9700   -4.3260 N.ar   36  HIS36      -0.2212
     69  N         44.3380    4.0290    3.7980 N.3    39  LEU39      -0.1245
     70  CA        42.9600    4.1990    4.2030 C.3    39  LEU39       0.1561
     71  C         42.6680    3.0070    5.1330 C.2    39  LEU39       0.2260
     72  O         42.6390    1.8770    4.6600 O.2    39  LEU39      -0.2867
     73  CB        42.0170    4.2310    2.9780 C.3    39  LEU39       0.0270
     74  CG        42.3110    5.3330    1.9400 C.3    39  LEU39       0.0019
     75  CD1       41.3790    5.2820    0.7330 C.3    39  LEU39       0.0001
     76  CD2       42.2190    6.7090    2.5570 C.3    39  LEU39       0.0001
     77  N         33.3680   -1.5220    3.4640 N.3    44  PHE44      -0.1241
     78  CA        32.0740   -0.9810    3.1370 C.3    44  PHE44       0.1605
     79  C         31.0820   -2.1630    3.2730 C.2    44  PHE44       0.2264
     80  O         31.2240   -3.1790    2.5790 O.2    44  PHE44      -0.2867
     81  CB        32.0750   -0.3610    1.7100 C.3    44  PHE44       0.0534
     82  CG        32.8320    0.9600    1.5950 C.ar   44  PHE44      -0.0203
     83  CD1       34.2200    0.9890    1.3730 C.ar   44  PHE44      -0.0042
     84  CD2       32.1740    2.1570    1.7250 C.ar   44  PHE44      -0.0042
     85  CE1       34.9070    2.2100    1.2580 C.ar   44  PHE44      -0.0003
     86  CE2       32.8610    3.3580    1.6150 C.ar   44  PHE44      -0.0003
     87  CZ        34.2170    3.3730    1.3670 C.ar   44  PHE44      -0.0000
     88  N         30.8740    9.0920   -7.6400 N.3    73  TRP73      -0.1241
     89  CA        32.2400    8.7160   -7.8400 C.3    73  TRP73       0.1605
     90  C         33.2060    9.8980   -7.8840 C.2    73  TRP73       0.2264
     91  O         34.2680    9.8380   -7.3230 O.2    73  TRP73      -0.2867
     92  CB        32.3450    7.9420   -9.1770 C.3    73  TRP73       0.0550
     93  CG        33.5930    7.2820   -9.3120 C.ar   73  TRP73       0.0003
     94  CD1       34.6190    7.5910  -10.1950 C.ar   73  TRP73       0.0946
     95  CD2       34.0380    6.1680   -8.5340 C.ar   73  TRP73       0.0152
     96  NE1       35.6700    6.6990   -9.9980 N.ar   73  TRP73      -0.2442
     97  CE2       35.3350    5.8280   -8.9810 C.ar   73  TRP73       0.0810
     98  CE3       33.4570    5.4130   -7.4890 C.ar   73  TRP73       0.0012
     99  CZ2       36.0710    4.7590   -8.4080 C.ar   73  TRP73       0.0191
    100  CZ3       34.1820    4.3790   -6.9210 C.ar   73  TRP73       0.0001
    101  CH2       35.4820    4.0490   -7.3930 C.ar   73  TRP73       0.0015
    102  N         33.5930   10.9770   -4.2180 N.3    76  ILE76      -0.1231
    103  CA        34.4540   10.0000   -3.5140 C.3    76  ILE76       0.1692
    104  C         35.9060   10.2440   -3.8360 C.2    76  ILE76       0.2591
    105  O         36.7420   10.3090   -2.9380 O.2    76  ILE76      -0.2718
    106  CB        34.0170    8.5610   -3.7480 C.3    76  ILE76       0.0266
    107  CG1       32.6710    8.2940   -3.0470 C.3    76  ILE76       0.0019
    108  CG2       35.0920    7.5730   -3.2770 C.3    76  ILE76       0.0020
    109  CD1       32.0430    6.9510   -3.3900 C.3    76  ILE76       0.0001
    110  N         36.2060   10.4960   -5.1210 N.am   77  LYS77      -0.1980
    111  CA        37.5610   10.8510   -5.5040 C.3    77  LYS77       0.1596
    112  C         38.1160   12.0860   -4.8780 C.2    77  LYS77       0.2287
    113  O         39.2820   12.0760   -4.5220 O.2    77  LYS77      -0.2864
    114  CB        37.7300   10.9930   -7.0390 C.3    77  LYS77       0.0298
    115  CG        37.8670    9.6380   -7.7250 C.3    77  LYS77       0.0038
    116  CD        38.6500    9.7300   -9.0770 C.3    77  LYS77       0.0206
    117  CE        37.7940   10.1310  -10.2690 C.3    77  LYS77       0.1093
    118  NZ        37.2670   11.5320  -10.2190 N.3    77  LYS77      -0.1314
    119  N         38.3940   11.1890   -0.8470 N.3    80  GLN80      -0.1245
    120  CA        39.5160   10.3700   -0.4570 C.3    80  GLN80       0.1566
    121  C         40.8090   11.1290   -0.3950 C.2    80  GLN80       0.2260
    122  O         41.6030   10.8820    0.5180 O.2    80  GLN80      -0.2867
    123  CB        39.6650    9.0850   -1.2850 C.3    80  GLN80       0.0367
    124  CG        40.0410    9.3370   -2.7150 C.3    80  GLN80       0.0905
    125  CD        41.5140    9.4870   -3.0050 C.2    80  GLN80       0.2608
    126  OE1       42.3450    8.7830   -2.4560 O.2    80  GLN80      -0.2717
    127  NE2       41.8360   10.3330   -4.0000 N.am   80  GLN80      -0.0878
    128  N         37.4820    5.0590    7.0860 N.3   131  PHE131     -0.1241
    129  CA        37.2730    5.6330    5.7880 C.3   131  PHE131      0.1605
    130  C         35.8380    5.4220    5.2560 C.2   131  PHE131      0.2264
    131  O         35.2450    6.3380    4.7110 O.2   131  PHE131     -0.2867
    132  CB        38.3610    5.1600    4.8060 C.3   131  PHE131      0.0534
    133  CG        38.1670    5.6840    3.4500 C.ar  131  PHE131     -0.0203
    134  CD1       38.5060    7.0050    3.1410 C.ar  131  PHE131     -0.0042
    135  CD2       37.6380    4.8950    2.4570 C.ar  131  PHE131     -0.0042
    136  CE1       38.3310    7.5050    1.8700 C.ar  131  PHE131     -0.0003
    137  CE2       37.5130    5.4010    1.1620 C.ar  131  PHE131     -0.0003
    138  CZ        37.8430    6.7020    0.8720 C.ar  131  PHE131     -0.0000
@<TRIPOS>BOND
     1     1     2    1
     2     7     6    1
     3     2     3    1
     4     2     5    1
     5     3     4    2
     6     8     6    1
     7     6     5    1
     8   117   118    1
     9   117   116    1
    10    94    96   ar
    11    94    93   ar
    12    96    97   ar
    13    93    92    1
    14    93    95   ar
    15    92    89    1
    16   116   115    1
    17    97    95   ar
    18    97    99   ar
    19    16    14    1
    20    58    56    1
    21    95    98   ar
    22    57    56    1
    23    99   101   ar
    24    14    13    1
    25    56    55    2
    26    32    31    1
    27    32    33    1
    28    31    30    1
    29    90    89    1
    30    90    91    2
    31    89    88    1
    32   115   114    1
    33    98   100   ar
    34    13    15    1
    35    13    10    1
    36   101   100   ar
    37    55    54    1
    38   114   111    1
    39    54    53    1
    40    30    29    1
    41    40    38    1
    42    10     9    1
    43    10    11    1
    44    29    26    1
    45   111   110    1
    46   111   112    1
    47    53    52    1
    48    12    11    2
    49    11    17   am
    50    38    39    1
    51    38    35    1
    52   110   104   am
    53   112   113    2
    54    35    34    1
    55    35    36    1
    56    34    27   am
    57    52    49    1
    58    27    26    1
    59    27    28    2
    60    68    67   ar
    61    68    66   ar
    62    26    25    1
    63    17    18    1
    64   102   103    1
    65    67    65   ar
    66   127   125   am
    67   104   103    1
    68   104   105    2
    69   106   103    1
    70   106   108    1
    71   106   107    1
    72    23    22    1
    73   109   107    1
    74    37    36    2
    75    36    41   am
    76    18    19    1
    77    18    21    1
    78    66    64   ar
    79    49    48    1
    80    49    50    1
    81   125   124    1
    82   125   126    2
    83    51    50    2
    84    65    64   ar
    85   124   123    1
    86    22    21    1
    87    22    24    1
    88    50    59   am
    89    19    20    2
    90    64    63    1
    91    41    42    1
    92    59    60    1
    93   123   120    1
    94    42    43    1
    95    42    45    1
    96   119   120    1
    97    63    60    1
    98    60    61    1
    99    43    44    2
   100   120   121    1
   101   121   122    2
   102    45    46    1
   103    45    47    1
   104    75    74    1
   105    61    62    2
   106   138   137   ar
   107   138   136   ar
   108   137   135   ar
   109    85    87   ar
   110    85    83   ar
   111    87    86   ar
   112    83    82   ar
   113    82    81    1
   114    82    84   ar
   115    86    84   ar
   116    81    78    1
   117   136   134   ar
   118    74    76    1
   119    74    73    1
   120   135   133   ar
   121    80    79    2
   122    73    70    1
   123    78    79    1
   124    78    77    1
   125   134   133   ar
   126   133   132    1
   127    69    70    1
   128    70    71    1
   129    72    71    2
   130   131   130    2
   131   132   129    1
   132   130   129    1
   133   129   128    1
