@<TRIPOS>MOLECULE
tmp/5d6aA00.pdb
 133 128 0 0 0
SMALL
GASTEIGER

@<TRIPOS>ATOM
      1  N        -17.2500   33.5040   -8.9680 N.3   194  LEU194     -0.1231
      2  CA       -17.6440   33.2120   -7.5890 C.3   194  LEU194      0.1678
      3  C        -17.2060   34.2470   -6.5340 C.2   194  LEU194      0.2434
      4  O        -18.0330   34.6940   -5.7420 O.2   194  LEU194     -0.2733
      5  CB       -17.1300   31.8210   -7.1940 C.3   194  LEU194      0.0284
      6  CG       -17.4540   30.6840   -8.1720 C.3   194  LEU194      0.0019
      7  CD1      -16.8890   29.3640   -7.6710 C.3   194  LEU194      0.0001
      8  CD2      -18.9480   30.5690   -8.4080 C.3   194  LEU194      0.0001
      9  N        -15.9150   34.6390   -6.5190 N.am  195  PRO195     -0.2718
     10  CA       -15.4670   35.5900   -5.4920 C.3   195  PRO195      0.1535
     11  C        -16.0840   36.9810   -5.6080 C.2   195  PRO195      0.2598
     12  O        -16.3240   37.4590   -6.7200 O.2   195  PRO195     -0.2715
     13  CB       -13.9590   35.6770   -5.7380 C.3   195  PRO195      0.0310
     14  CG       -13.8170   35.4140   -7.1920 C.3   195  PRO195      0.0237
     15  CD       -14.8450   34.3580   -7.4930 C.3   195  PRO195      0.0939
     16  N        -16.3240   37.6170   -4.4580 N.am  196  ARG196     -0.1978
     17  CA       -16.8960   38.9570   -4.4170 C.3   196  ARG196      0.1597
     18  C        -15.7420   39.9460   -4.3040 C.2   196  ARG196      0.2287
     19  O        -14.6060   39.5360   -4.0720 O.2   196  ARG196     -0.2864
     20  CB       -17.8590   39.1170   -3.2330 C.3   196  ARG196      0.0334
     21  CG       -18.8000   37.9380   -2.9880 C.3   196  ARG196      0.0492
     22  CD       -19.3410   37.3100   -4.2680 C.3   196  ARG196      0.2205
     23  NE       -20.1180   38.2190   -5.1000 N.pl3 196  ARG196     -0.0865
     24  CZ       -20.4820   37.9580   -6.3540 C.cat 196  ARG196      0.5346
     25  NH1      -20.1110   36.8280   -6.9490 N.pl3 196  ARG196      0.1354
     26  NH2      -21.1980   38.8440   -7.0330 N.pl3 196  ARG196      0.1354
     27  N        -11.7030   40.7580  -12.8170 N.3   206  ASP206     -0.1225
     28  CA       -10.3890   40.1610  -13.0630 C.3   206  ASP206      0.1805
     29  C        -10.1650   39.0110  -12.0850 C.2   206  ASP206      0.2598
     30  O         -9.2170   39.0160  -11.3020 O.2   206  ASP206     -0.2718
     31  CB        -9.2550   41.1960  -12.9590 C.3   206  ASP206      0.1424
     32  CG        -9.4090   42.3450  -13.9480 C.2   206  ASP206      0.3668
     33  OD1       -8.5540   43.2570  -13.9290 O.co2 206  ASP206     -0.2456
     34  OD2      -10.3770   42.3420  -14.7410 O.co2 206  ASP206     -0.2456
     35  N        -11.0690   38.0380  -12.1310 N.am  207  ALA207     -0.1966
     36  CA       -10.9940   36.8540  -11.2870 C.3   207  ALA207      0.1728
     37  C        -10.8530   35.6270  -12.1730 C.2   207  ALA207      0.2616
     38  O        -11.1340   35.6850  -13.3690 O.2   207  ALA207     -0.2715
     39  CB       -12.2400   36.7400  -10.4270 C.3   207  ALA207      0.0334
     40  N        -10.4110   34.5190  -11.5880 N.am  208  VAL208     -0.1977
     41  CA       -10.2540   33.2750  -12.3300 C.3   208  VAL208      0.1596
     42  C        -11.6380   32.6570  -12.5050 C.2   208  VAL208      0.2287
     43  O        -12.2410   32.1990  -11.5330 O.2   208  VAL208     -0.2864
     44  CB        -9.3340   32.2820  -11.5860 C.3   208  VAL208      0.0276
     45  CG1       -9.1720   30.9950  -12.3860 C.3   208  VAL208      0.0022
     46  CG2       -7.9800   32.9180  -11.3060 C.3   208  VAL208      0.0022
     47  N        -14.7130   30.1830  -13.2240 N.3   210  PHE210     -0.1241
     48  CA       -14.9020   28.8000  -12.8160 C.3   210  PHE210      0.1605
     49  C        -15.0110   27.8380  -13.9960 C.2   210  PHE210      0.2264
     50  O        -15.6430   28.1430  -15.0080 O.2   210  PHE210     -0.2867
     51  CB       -16.1560   28.6810  -11.9500 C.3   210  PHE210      0.0534
     52  CG       -16.4040   27.2950  -11.4360 C.ar  210  PHE210     -0.0203
     53  CD1      -15.8370   26.8720  -10.2410 C.ar  210  PHE210     -0.0042
     54  CD2      -17.2000   26.4110  -12.1480 C.ar  210  PHE210     -0.0042
     55  CE1      -16.0640   25.5940   -9.7640 C.ar  210  PHE210     -0.0003
     56  CE2      -17.4290   25.1310  -11.6790 C.ar  210  PHE210     -0.0003
     57  CZ       -16.8610   24.7220  -10.4850 C.ar  210  PHE210     -0.0000
     58  N         -5.2510   25.9480    2.4750 N.3   244  GLY244     -0.1210
     59  CA        -5.8120   27.2360    2.8580 C.3   244  GLY244      0.1956
     60  C         -5.6520   28.3330    1.8200 C.2   244  GLY244      0.2611
     61  O         -4.6200   28.4350    1.1560 O.2   244  GLY244     -0.2717
     62  N         -6.6970   29.1450    1.6860 N.am  245  PHE245     -0.1976
     63  CA        -6.7300   30.2930    0.7760 C.3   245  PHE245      0.1639
     64  C         -6.7760   29.8740   -0.7030 C.2   245  PHE245      0.2290
     65  O         -6.2210   30.5540   -1.5650 O.2   245  PHE245     -0.2864
     66  CB        -5.5370   31.2250    1.0610 C.3   245  PHE245      0.0560
     67  CG        -5.7810   32.6610    0.6870 C.ar  245  PHE245     -0.0200
     68  CD1       -6.4930   33.4920    1.5440 C.ar  245  PHE245     -0.0042
     69  CD2       -5.2890   33.1920   -0.4960 C.ar  245  PHE245     -0.0042
     70  CE1       -6.7240   34.8170    1.2200 C.ar  245  PHE245     -0.0003
     71  CE2       -5.5160   34.5200   -0.8240 C.ar  245  PHE245     -0.0003
     72  CZ        -6.2310   35.3340    0.0370 C.ar  245  PHE245     -0.0000
     73  N         -9.9730   28.8570   -2.1950 N.3   247  GLY247     -0.1210
     74  CA       -11.3180   29.1180   -2.7230 C.3   247  GLY247      0.1956
     75  C        -12.4340   28.1620   -2.3310 C.2   247  GLY247      0.2612
     76  O        -13.4260   28.0580   -3.0470 O.2   247  GLY247     -0.2717
     77  N        -12.2910   27.4800   -1.1970 N.am  248  LYS248     -0.1965
     78  CA       -13.3050   26.5220   -0.7460 C.3   248  LYS248      0.1728
     79  C        -14.5600   27.2290   -0.2470 C.2   248  LYS248      0.2617
     80  O        -15.6690   26.8750   -0.6460 O.2   248  LYS248     -0.2715
     81  CB       -12.7540   25.6040    0.3460 C.3   248  LYS248      0.0311
     82  CG       -11.5080   24.8280   -0.0640 C.3   248  LYS248      0.0038
     83  CD       -11.0320   23.8680    1.0220 C.3   248  LYS248      0.0206
     84  CE       -10.5640   24.5720    2.2890 C.3   248  LYS248      0.1093
     85  NZ        -9.3970   25.4610    2.0450 N.3   248  LYS248     -0.1314
     86  N        -14.3890   28.2170    0.6290 N.am  249  SER249     -0.1936
     87  CA       -15.5300   28.9780    1.1470 C.3   249  SER249      0.2055
     88  C        -16.2100   29.7570    0.0440 C.2   249  SER249      0.2643
     89  O        -17.4340   29.8370    0.0110 O.2   249  SER249     -0.2714
     90  CB       -15.1160   29.9510    2.2490 C.3   249  SER249      0.2130
     91  OG       -14.8440   29.2740    3.4580 O.3   249  SER249     -0.2179
     92  N        -15.4170   30.3360   -0.8540 N.am  250  THR250     -0.1950
     93  CA       -15.9620   31.1140   -1.9620 C.3   250  THR250      0.1897
     94  C        -16.9070   30.2600   -2.8070 C.2   250  THR250      0.2313
     95  O        -17.9590   30.7340   -3.2460 O.2   250  THR250     -0.2863
     96  CB       -14.8450   31.6960   -2.8430 C.3   250  THR250      0.1794
     97  OG1      -14.0040   32.5390   -2.0470 O.3   250  THR250     -0.2208
     98  CG2      -15.4270   32.5070   -3.9930 C.3   250  THR250      0.0378
     99  N        -19.3150   24.2370    6.9360 N.3   336  ASP336     -0.1239
    100  CA       -17.9590   24.7350    6.7320 C.3   336  ASP336      0.1674
    101  C        -17.1730   24.4600    8.0060 C.2   336  ASP336      0.2266
    102  O        -17.4530   25.0400    9.0550 O.2   336  ASP336     -0.2867
    103  CB       -17.9730   26.2300    6.4020 C.3   336  ASP336      0.1410
    104  CG       -16.5950   26.7690    6.0390 C.2   336  ASP336      0.3668
    105  OD1      -15.5810   26.1000    6.3300 O.co2 336  ASP336     -0.2456
    106  OD2      -16.5270   27.8760    5.4630 O.co2 336  ASP336     -0.2456
    107  N        -14.5110   25.4570    9.0990 N.3   338  ASP338     -0.1239
    108  CA       -13.9320   26.6410    9.7350 C.3   338  ASP338      0.1674
    109  C        -14.9320   27.4320   10.5940 C.2   338  ASP338      0.2266
    110  O        -14.5300   28.2790   11.3870 O.2   338  ASP338     -0.2867
    111  CB       -13.2660   27.5450    8.6910 C.3   338  ASP338      0.1410
    112  CG       -12.0240   26.9060    8.0700 C.2   338  ASP338      0.3668
    113  OD1      -11.6930   25.7510    8.4240 O.co2 338  ASP338     -0.2456
    114  OD2      -11.3700   27.5640    7.2340 O.co2 338  ASP338     -0.2456
    115  N        -17.1020   21.8670    3.4390 N.3   381  VAL381     -0.1245
    116  CA       -15.7790   22.4210    3.1930 C.3   381  VAL381      0.1561
    117  C        -14.9310   21.9210    4.3500 C.2   381  VAL381      0.2260
    118  O        -15.2460   22.1940    5.5070 O.2   381  VAL381     -0.2867
    119  CB       -15.7840   23.9610    3.1750 C.3   381  VAL381      0.0252
    120  CG1      -14.3630   24.5050    3.1800 C.3   381  VAL381      0.0019
    121  CG2      -16.5540   24.4770    1.9690 C.3   381  VAL381      0.0019
    122  N         -7.7640   28.3390   -7.3570 N.3   399  TYR399     -0.1241
    123  CA        -9.1350   28.7410   -7.7030 C.3   399  TYR399      0.1605
    124  C         -9.7370   28.0090   -8.9090 C.2   399  TYR399      0.2264
    125  O        -10.3230   28.6260   -9.7990 O.2   399  TYR399     -0.2867
    126  CB        -9.2160   30.2610   -7.8880 C.3   399  TYR399      0.0534
    127  CG        -8.4980   31.0170   -6.7940 C.ar  399  TYR399     -0.0201
    128  CD1       -8.9560   30.9790   -5.4830 C.ar  399  TYR399     -0.0009
    129  CD2       -7.3600   31.7700   -7.0690 C.ar  399  TYR399     -0.0009
    130  CE1       -8.2990   31.6590   -4.4740 C.ar  399  TYR399      0.0417
    131  CE2       -6.7010   32.4580   -6.0670 C.ar  399  TYR399      0.0417
    132  CZ        -7.1750   32.3990   -4.7720 C.ar  399  TYR399      0.1957
    133  OH        -6.5240   33.0780   -3.7720 O.3   399  TYR399     -0.2866
@<TRIPOS>BOND
     1    50    49    2
     2    34    32   ar
     3    49    48    1
     4    32    33   ar
     5    32    31    1
     6    38    37    2
     7    47    48    1
     8    28    31    1
     9    28    27    1
    10    28    29    1
    11    48    51    1
    12    42    41    1
    13    42    43    2
    14    45    44    1
    15    41    40    1
    16    41    44    1
    17    37    40   am
    18    37    36    1
    19    54    56   ar
    20    54    52   ar
    21    35    29   am
    22    35    36    1
    23    29    30    2
    24    51    52    1
    25    56    57   ar
    26    44    46    1
    27    52    53   ar
    28    36    39    1
    29    57    55   ar
    30    53    55   ar
    31   125   124    2
    32     1     2    1
    33   124   123    1
    34     8     6    1
    35     6     7    1
    36     6     5    1
    37   126   123    1
    38   126   127    1
    39   123   122    1
    40     2     5    1
    41     2     3    1
    42    15    14    1
    43    15     9    1
    44    14    13    1
    45   129   127   ar
    46   129   131   ar
    47    26    24    1
    48    25    24    1
    49   127   128   ar
    50    12    11    2
    51     3     9   am
    52     3     4    2
    53     9    10    1
    54    24    23    2
    55   131   132   ar
    56    13    10    1
    57    11    10    1
    58    11    16   am
    59   128   130   ar
    60    23    22    1
    61   132   130   ar
    62   132   133    1
    63    16    17    1
    64    17    18    1
    65    17    20    1
    66    18    19    2
    67    22    21    1
    68    98    96    1
    69    95    94    2
    70    20    21    1
    71    76    75    2
    72    96    97    1
    73    96    93    1
    74    94    93    1
    75    74    75    1
    76    74    73    1
    77    75    77   am
    78    93    92    1
    79    65    64    2
    80    77    78    1
    81    92    88   am
    82    71    69   ar
    83    71    72   ar
    84    78    79    1
    85    78    81    1
    86    64    63    1
    87    80    79    2
    88    69    67   ar
    89    79    86   am
    90    82    81    1
    91    82    83    1
    92    89    88    2
    93    72    70   ar
    94    88    87    1
    95    86    87    1
    96    67    66    1
    97    67    68   ar
    98    63    66    1
    99    63    62    1
   100    83    84    1
   101    87    90    1
   102    61    60    2
   103    70    68   ar
   104    62    60   am
   105    60    59    1
   106   121   119    1
   107    85    84    1
   108    90    91    1
   109    58    59    1
   110   119   120    1
   111   119   116    1
   112   116   115    1
   113   116   117    1
   114   117   118    2
   115   106   104   ar
   116   104   105   ar
   117   104   103    1
   118   103   100    1
   119   100    99    1
   120   100   101    1
   121   114   112   ar
   122   101   102    2
   123   112   113   ar
   124   112   111    1
   125   111   108    1
   126   107   108    1
   127   108   109    1
   128   109   110    2
