@<TRIPOS>MOLECULE
tmp/5d6eA00.pdb
 194 186 0 0 0
SMALL
GASTEIGER

@<TRIPOS>ATOM
      1  N         21.4380   18.2900    9.7500 N.3   111  PHE111     -0.1241
      2  CA        21.4120   17.5120   10.9850 C.3   111  PHE111      0.1605
      3  C         20.0250   17.5460   11.5740 C.2   111  PHE111      0.2264
      4  O         19.2150   18.3720   11.1900 O.2   111  PHE111     -0.2867
      5  CB        22.4770   18.0080   11.9840 C.3   111  PHE111      0.0534
      6  CG        22.3490   19.4610   12.3520 C.ar  111  PHE111     -0.0203
      7  CD1       21.5210   19.8580   13.3640 C.ar  111  PHE111     -0.0042
      8  CD2       23.1080   20.4040   11.6960 C.ar  111  PHE111     -0.0042
      9  CE1       21.4180   21.2100   13.7280 C.ar  111  PHE111     -0.0003
     10  CE2       23.0080   21.7550   12.0710 C.ar  111  PHE111     -0.0003
     11  CZ        22.1530   22.1530   13.0660 C.ar  111  PHE111     -0.0000
     12  N         21.0550   20.3100   24.5140 N.3   122  ALA122     -0.1231
     13  CA        21.3980   19.9890   23.1410 C.3   122  ALA122      0.1694
     14  C         21.2160   18.4840   22.8720 C.2   122  ALA122      0.2592
     15  O         21.3110   17.6630   23.7740 O.2   122  ALA122     -0.2718
     16  CB        22.8400   20.3470   22.8350 C.3   122  ALA122      0.0304
     17  N         20.9940   18.1900   21.5860 N.am  123  HIS123     -0.1976
     18  CA        21.0430   16.8440   21.0560 C.3   123  HIS123      0.1656
     19  C         19.8610   15.9520   21.4400 C.2   123  HIS123      0.2291
     20  O         19.9620   14.7430   21.3060 O.2   123  HIS123     -0.2864
     21  CB        22.3950   16.1650   21.2430 C.3   123  HIS123      0.0771
     22  CG        23.4960   16.8860   20.5630 C.ar  123  HIS123      0.0820
     23  ND1       24.8130   16.6100   20.7790 N.ar  123  HIS123     -0.2267
     24  CD2       23.4700   17.9050   19.6820 C.ar  123  HIS123      0.1154
     25  CE1       25.5660   17.4260   20.0620 C.ar  123  HIS123      0.1986
     26  NE2       24.7790   18.2230   19.3910 N.ar  123  HIS123     -0.2212
     27  N         17.1730   23.9210   17.2410 N.3   143  ASP143     -0.1239
     28  CA        18.5230   23.9570   16.6160 C.3   143  ASP143      0.1674
     29  C         18.3940   23.0670   15.3860 C.2   143  ASP143      0.2266
     30  O         18.2450   21.8760   15.4940 O.2   143  ASP143     -0.2867
     31  CB        19.6110   23.4960   17.5290 C.3   143  ASP143      0.1410
     32  CG        21.0050   23.7310   17.0330 C.2   143  ASP143      0.3668
     33  OD1       21.2240   24.0460   15.8670 O.co2 143  ASP143     -0.2456
     34  OD2       21.9370   23.6180   17.8560 O.co2 143  ASP143     -0.2456
     35  N         24.2440   26.2260   10.5880 N.3   154  ASP154     -0.1239
     36  CA        23.9000   25.7670   11.9130 C.3   154  ASP154      0.1674
     37  C         23.4810   27.0010   12.7020 C.2   154  ASP154      0.2266
     38  O         24.2660   27.9140   12.8890 O.2   154  ASP154     -0.2867
     39  CB        25.1360   25.1360   12.5640 C.3   154  ASP154      0.1410
     40  CG        24.7950   24.3790   13.8380 C.2   154  ASP154      0.3668
     41  OD1       23.6080   24.6100   14.3280 O.co2 154  ASP154     -0.2456
     42  OD2       25.7050   23.6740   14.3350 O.co2 154  ASP154     -0.2456
     43  N         31.2580   23.0970   29.0950 N.3   219  ASN219     -0.1225
     44  CA        31.6540   21.9880   28.2140 C.3   219  ASN219      0.1785
     45  C         30.8230   21.8870   26.9240 C.2   219  ASN219      0.2597
     46  O         30.8640   20.8720   26.2430 O.2   219  ASN219     -0.2718
     47  CB        31.6960   20.6650   28.9870 C.3   219  ASN219      0.1169
     48  CG        30.3680   20.2180   29.5290 C.2   219  ASN219      0.2627
     49  OD1       29.4890   20.9730   29.8620 O.2   219  ASN219     -0.2716
     50  ND2       30.2690   18.9230   29.7500 N.am  219  ASN219     -0.0877
     51  N         30.0950   22.9640   26.6110 N.am  220  LEU220     -0.1966
     52  CA        29.5670   23.1680   25.2950 C.3   220  LEU220      0.1728
     53  C         30.3520   24.2920   24.5940 C.2   220  LEU220      0.2616
     54  O         30.9310   25.1760   25.2380 O.2   220  LEU220     -0.2715
     55  CB        28.0710   23.4680   25.3260 C.3   220  LEU220      0.0311
     56  CG        27.1980   22.3270   25.8570 C.3   220  LEU220      0.0022
     57  CD1       25.7180   22.7260   25.9520 C.3   220  LEU220      0.0001
     58  CD2       27.2860   21.0780   24.9860 C.3   220  LEU220      0.0001
     59  N         30.3980   24.2030   23.2910 N.am  221  ASN221     -0.1972
     60  CA        31.3120   25.0360   22.5140 C.3   221  ASN221      0.1688
     61  C         30.7680   25.2710   21.1220 C.2   221  ASN221      0.2292
     62  O         29.9410   24.5320   20.5700 O.2   221  ASN221     -0.2864
     63  CB        32.6210   24.3050   22.2820 C.3   221  ASN221      0.1181
     64  CG        33.2640   23.8320   23.5180 C.2   221  ASN221      0.2629
     65  OD1       33.1230   22.6410   23.9320 O.2   221  ASN221     -0.2716
     66  ND2       34.0500   24.7100   24.0940 N.am  221  ASN221     -0.0877
     67  N         32.0060   25.9040   17.0850 N.3   223  HIS223     -0.1241
     68  CA        32.8110   24.9920   16.2840 C.3   223  HIS223      0.1621
     69  C         32.9900   25.5100   14.8860 C.2   223  HIS223      0.2264
     70  O         32.0820   26.0820   14.3330 O.2   223  HIS223     -0.2867
     71  CB        32.1980   23.6010   16.2740 C.3   223  HIS223      0.0745
     72  CG        30.7640   23.5630   15.8900 C.ar  223  HIS223      0.0817
     73  ND1       30.3720   23.3790   14.5800 N.ar  223  HIS223     -0.2268
     74  CD2       29.6350   23.8030   16.5950 C.ar  223  HIS223      0.1154
     75  CE1       29.0530   23.4140   14.5270 C.ar  223  HIS223      0.1986
     76  NE2       28.5920   23.7310   15.7280 N.ar  223  HIS223     -0.2212
     77  N         30.0240   19.0760   10.1060 N.3   230  ILE230     -0.1231
     78  CA        29.4130   20.0140   11.0250 C.3   230  ILE230      0.1692
     79  C         30.4190   20.5080   12.0730 C.2   230  ILE230      0.2592
     80  O         30.3440   21.6760   12.4620 O.2   230  ILE230     -0.2718
     81  CB        28.1200   19.4630   11.6770 C.3   230  ILE230      0.0266
     82  CG1       27.4520   20.4590   12.5430 C.3   230  ILE230      0.0019
     83  CG2       28.3980   18.2220   12.5470 C.3   230  ILE230      0.0020
     84  CD1       26.8480   21.6370   11.8160 C.3   230  ILE230      0.0001
     85  N         31.3280   19.6640   12.5190 N.am  231  HIS231     -0.1976
     86  CA        32.3430   20.0220   13.4650 C.3   231  HIS231      0.1656
     87  C         33.6700   19.7120   12.8600 C.2   231  HIS231      0.2291
     88  O         34.1010   18.5730   12.8560 O.2   231  HIS231     -0.2864
     89  CB        32.1250   19.3150   14.8350 C.3   231  HIS231      0.0771
     90  CG        33.0180   19.8640   15.9150 C.ar  231  HIS231      0.0820
     91  ND1       34.3230   20.2790   15.6670 N.ar  231  HIS231     -0.2267
     92  CD2       32.7760   20.1440   17.2210 C.ar  231  HIS231      0.1154
     93  CE1       34.8460   20.7340   16.7850 C.ar  231  HIS231      0.1986
     94  NE2       33.9240   20.6820   17.7340 N.ar  231  HIS231     -0.2212
     95  N         28.0290   29.3500   18.8900 N.3   256  GLU256     -0.1245
     96  CA        26.9270   29.0100   19.7960 C.3   256  GLU256      0.1567
     97  C         27.2820   29.4110   21.2310 C.2   256  GLU256      0.2260
     98  O         28.4100   29.3260   21.6480 O.2   256  GLU256     -0.2867
     99  CB        26.4400   27.6170   19.7900 C.3   256  GLU256      0.0388
    100  CG        27.3590   26.4900   19.4590 C.3   256  GLU256      0.1160
    101  CD        26.4150   25.3290   19.2200 C.2   256  GLU256      0.3649
    102  OE1       25.1990   25.5740   19.4610 O.co2 256  GLU256     -0.2457
    103  OE2       26.7510   24.2620   18.6420 O.co2 256  GLU256     -0.2457
    104  N         25.4350   28.9010   25.2970 N.3   258  PHE258     -0.1241
    105  CA        24.4500   28.2620   26.1360 C.3   258  PHE258      0.1605
    106  C         24.6310   28.8600   27.5420 C.2   258  PHE258      0.2264
    107  O         25.7350   28.9410   28.0440 O.2   258  PHE258     -0.2867
    108  CB        24.6770   26.7550   26.2630 C.3   258  PHE258      0.0534
    109  CG        24.4770   25.9540   24.9910 C.ar  258  PHE258     -0.0203
    110  CD1       25.4860   25.8580   24.0510 C.ar  258  PHE258     -0.0042
    111  CD2       23.2700   25.3610   24.7500 C.ar  258  PHE258     -0.0042
    112  CE1       25.3350   25.0840   22.9410 C.ar  258  PHE258     -0.0003
    113  CE2       23.0820   24.5930   23.6070 C.ar  258  PHE258     -0.0003
    114  CZ        24.1000   24.4940   22.7050 C.ar  258  PHE258     -0.0000
    115  N         27.1360   20.0360   31.3200 N.3   266  VAL266     -0.1245
    116  CA        26.2260   19.0220   30.8140 C.3   266  VAL266      0.1561
    117  C         26.8320   17.6150   30.9710 C.2   266  VAL266      0.2260
    118  O         28.0640   17.4540   30.9050 O.2   266  VAL266     -0.2867
    119  CB        25.7260   19.2250   29.3700 C.3   266  VAL266      0.0252
    120  CG1       24.8040   20.4420   29.3640 C.3   266  VAL266      0.0019
    121  CG2       26.8990   19.4150   28.4340 C.3   266  VAL266      0.0019
    122  N         20.5330   11.0480   18.0770 N.3   274  HIS274     -0.1226
    123  CA        21.4500   11.6270   17.0890 C.3   274  HIS274      0.1752
    124  C         22.7060   10.7480   16.8970 C.2   274  HIS274      0.2596
    125  O         23.3150   10.2540   17.8510 O.2   274  HIS274     -0.2718
    126  CB        22.0060   12.9590   17.5870 C.3   274  HIS274      0.0759
    127  CG        21.0650   14.0960   17.5420 C.ar  274  HIS274      0.0818
    128  ND1       19.7980   14.0810   18.0980 N.ar  274  HIS274     -0.2268
    129  CD2       21.2520   15.3670   17.0810 C.ar  274  HIS274      0.1154
    130  CE1       19.2810   15.3160   17.9960 C.ar  274  HIS274      0.1986
    131  NE2       20.1610   16.0930   17.4030 N.ar  274  HIS274     -0.2212
    132  N         23.0510   10.5530   15.6150 N.am  275  TYR275     -0.1962
    133  CA        24.2360    9.7990   15.2410 C.3   275  TYR275      0.1771
    134  C         24.8820   10.4210   14.0100 C.2   275  TYR275      0.2619
    135  O         24.2490   11.1780   13.2750 O.2   275  TYR275     -0.2715
    136  CB        23.7640    8.3490   14.8220 C.3   275  TYR275      0.0574
    137  CG        23.0210    7.6230   15.9010 C.ar  275  TYR275     -0.0198
    138  CD1       21.6390    7.8380   16.0930 C.ar  275  TYR275     -0.0009
    139  CD2       23.6590    6.7320   16.7140 C.ar  275  TYR275     -0.0009
    140  CE1       20.9620    7.2200   17.1530 C.ar  275  TYR275      0.0417
    141  CE2       22.9910    6.0960   17.7420 C.ar  275  TYR275      0.0417
    142  CZ        21.6510    6.3520   17.9710 C.ar  275  TYR275      0.1957
    143  OH        21.0060    5.6850   19.0080 O.3   275  TYR275     -0.2866
    144  N         26.1550   10.1340   13.8260 N.am  276  MET276     -0.1977
    145  CA        26.8560   10.6380   12.6450 C.3   276  MET276      0.1605
    146  C         28.0920    9.7870   12.3840 C.2   276  MET276      0.2287
    147  O         28.8260    9.4420   13.3100 O.2   276  MET276     -0.2864
    148  CB        27.3420   12.0880   12.9670 C.3   276  MET276      0.0413
    149  CG        27.8840   12.8420   11.7590 C.3   276  MET276      0.0598
    150  SD        28.0630   14.5920   12.0420 S.3   276  MET276     -0.1393
    151  CE        29.1600   14.6710   13.3970 C.3   276  MET276      0.0692
    152  N         24.9520   14.3850    9.9860 N.3   306  ALA306     -0.1245
    153  CA        24.2670   13.7460   11.0910 C.3   306  ALA306      0.1562
    154  C         22.8580   13.3470   10.6830 C.2   306  ALA306      0.2260
    155  O         22.2240   13.8780    9.7740 O.2   306  ALA306     -0.2867
    156  CB        24.1680   14.7170   12.2700 C.3   306  ALA306      0.0290
    157  N         25.4920   10.5750   19.6560 N.3   336  TYR336     -0.1241
    158  CA        25.5370   11.9470   20.2490 C.3   336  TYR336      0.1605
    159  C         24.3050   12.0660   21.1310 C.2   336  TYR336      0.2264
    160  O         23.2550   12.5990   20.7260 O.2   336  TYR336     -0.2867
    161  CB        25.5670   13.0160   19.1290 C.3   336  TYR336      0.0534
    162  CG        26.8510   13.0650   18.4280 C.ar  336  TYR336     -0.0201
    163  CD1       27.1430   12.2110   17.3770 C.ar  336  TYR336     -0.0009
    164  CD2       27.8100   14.0020   18.7540 C.ar  336  TYR336     -0.0009
    165  CE1       28.3540   12.2690   16.6960 C.ar  336  TYR336      0.0417
    166  CE2       29.0080   14.0680   18.0690 C.ar  336  TYR336      0.0417
    167  CZ        29.2580   13.1760   17.0110 C.ar  336  TYR336      0.1957
    168  OH        30.4440   13.2420   16.3540 O.3   336  TYR336     -0.2866
    169  N         22.4360   16.1090   25.9440 N.3   339  LEU339     -0.1245
    170  CA        23.3310   16.7280   26.8790 C.3   339  LEU339      0.1561
    171  C         22.5550   17.6720   27.7950 C.2   339  LEU339      0.2260
    172  O         21.9350   18.6430   27.3430 O.2   339  LEU339     -0.2867
    173  CB        24.4140   17.5160   26.1120 C.3   339  LEU339      0.0270
    174  CG        25.2180   16.6690   25.1330 C.3   339  LEU339      0.0019
    175  CD1       26.0760   17.5390   24.2380 C.3   339  LEU339      0.0001
    176  CD2       26.0460   15.6370   25.8590 C.3   339  LEU339      0.0001
    177  N         19.8460   28.8060   24.5230 N.3   349  GLN349     -0.1245
    178  CA        20.8380   28.7650   23.4430 C.3   349  GLN349      0.1566
    179  C         20.5040   29.7590   22.3210 C.2   349  GLN349      0.2260
    180  O         19.3220   29.8790   21.9300 O.2   349  GLN349     -0.2867
    181  CB        20.8750   27.3910   22.8150 C.3   349  GLN349      0.0367
    182  CG        21.7680   27.2190   21.6430 C.3   349  GLN349      0.0905
    183  CD        21.5030   25.9870   20.8240 C.2   349  GLN349      0.2608
    184  OE1       20.4190   25.4140   20.8810 O.2   349  GLN349     -0.2717
    185  NE2       22.4770   25.6610   19.9700 N.am  349  GLN349     -0.0878
    186  N         22.5660   30.7160   18.4070 N.3   351  GLU351     -0.1245
    187  CA        23.6540   30.3130   17.5890 C.3   351  GLU351      0.1567
    188  C         23.5110   30.9160   16.1790 C.2   351  GLU351      0.2260
    189  O         22.3860   30.9480   15.6650 O.2   351  GLU351     -0.2867
    190  CB        23.6470   28.8320   17.4020 C.3   351  GLU351      0.0388
    191  CG        24.8080   28.2680   16.6160 C.3   351  GLU351      0.1160
    192  CD        24.7110   26.7440   16.4440 C.2   351  GLU351      0.3649
    193  OE1       23.5800   26.1870   16.5330 O.co2 351  GLU351     -0.2457
    194  OE2       25.7680   26.1210   16.2820 O.co2 351  GLU351     -0.2457
@<TRIPOS>BOND
     1     1     2    1
     2   155   154    2
     3   152   153    1
     4    77    78    1
     5    35    36    1
     6   154   153    1
     7     2     3    1
     8     2     5    1
     9    78    81    1
    10    78    79    1
    11   153   156    1
    12     4     3    2
    13    81    82    1
    14    81    83    1
    15     8    10   ar
    16     8     6   ar
    17   149   150    1
    18   149   148    1
    19    84    82    1
    20    36    39    1
    21    36    37    1
    22     5     6    1
    23   150   151    1
    24    10    11   ar
    25    79    80    2
    26    79    85   am
    27     6     7   ar
    28   146   145    1
    29   146   147    2
    30    85    86    1
    31    39    40    1
    32   145   148    1
    33   145   144    1
    34    37    38    2
    35    88    87    2
    36    87    86    1
    37    11     9   ar
    38   135   134    2
    39     7     9   ar
    40    86    89    1
    41   144   134   am
    42    40    41   ar
    43    40    42   ar
    44   134   133    1
    45    70    69    2
    46    75    73   ar
    47    75    76   ar
    48    73    72   ar
    49   136   133    1
    50   136   137    1
    51    89    90    1
    52    69    68    1
    53   133   132    1
    54    29    30    2
    55    29    28    1
    56   132   124   am
    57   189   188    2
    58    91    90   ar
    59    91    93   ar
    60    76    74   ar
    61    33    32   ar
    62    72    71    1
    63    72    74   ar
    64   137   138   ar
    65   137   139   ar
    66    90    92   ar
    67   138   140   ar
    68   188   187    1
    69    71    68    1
    70   194   192   ar
    71    68    67    1
    72   168   167    1
    73   192   193   ar
    74   192   191    1
    75    28    27    1
    76    28    31    1
    77   191   190    1
    78   165   167   ar
    79   165   163   ar
    80   139   141   ar
    81    93    94   ar
    82   124   123    1
    83   124   125    2
    84   167   166   ar
    85    32    31    1
    86    32    34   ar
    87   129   131   ar
    88   129   127   ar
    89   123   126    1
    90   123   122    1
    91   140   142   ar
    92    92    94   ar
    93   163   162   ar
    94   190   187    1
    95   131   130   ar
    96   127   126    1
    97   127   128   ar
    98   187   186    1
    99   141   142   ar
   100   142   143    1
   101   130   128   ar
   102   166   164   ar
   103   162   164   ar
   104   162   161    1
   105   103   101   ar
   106    95    96    1
   107   161   158    1
   108   101   100    1
   109   101   102   ar
   110    26    24   ar
   111    26    25   ar
   112   100    99    1
   113   157   158    1
   114    24    22   ar
   115    99    96    1
   116    96    97    1
   117   185   183   am
   118    25    23   ar
   119   158   159    1
   120    22    23   ar
   121    22    21    1
   122    62    61    2
   123   160   159    2
   124   183   184    2
   125   183   182    1
   126    18    21    1
   127    18    19    1
   128    18    17    1
   129    61    60    1
   130    97    98    2
   131    20    19    2
   132    17    14   am
   133   182   181    1
   134   180   179    2
   135    63    60    1
   136    63    64    1
   137   179   178    1
   138    60    59    1
   139   114   112   ar
   140   114   113   ar
   141   181   178    1
   142    16    13    1
   143    14    13    1
   144    14    15    2
   145   112   110   ar
   146    13    12    1
   147    59    53   am
   148   178   177    1
   149    64    65    2
   150    64    66   am
   151   113   111   ar
   152   110   109   ar
   153   175   174    1
   154    53    54    2
   155    53    52    1
   156   111   109   ar
   157    58    56    1
   158   109   108    1
   159   174   176    1
   160   174   173    1
   161    52    55    1
   162    52    51    1
   163   104   105    1
   164    55    56    1
   165    56    57    1
   166   169   170    1
   167   173   170    1
   168   105   108    1
   169   105   106    1
   170    46    45    2
   171    51    45   am
   172   170   171    1
   173    45    44    1
   174   172   171    2
   175   106   107    2
   176    44    47    1
   177    44    43    1
   178   121   119    1
   179    47    48    1
   180   120   119    1
   181   119   116    1
   182    48    50   am
   183    48    49    2
   184   116   117    1
   185   116   115    1
   186   118   117    2
