@<TRIPOS>MOLECULE
tmp/5d6jA00.pdb
 192 187 0 0 0
SMALL
GASTEIGER

@<TRIPOS>ATOM
      1  N        -40.7100   -0.5890    8.3710 N.3   186  TYR186     -0.1227
      2  CA       -40.3190   -0.7430    9.7640 C.3   186  TYR186      0.1736
      3  C        -38.9520   -0.1210   10.0300 C.2   186  TYR186      0.2596
      4  O        -38.0440   -0.1910    9.1930 O.2   186  TYR186     -0.2718
      5  CB       -40.3430   -2.2220   10.1680 C.3   186  TYR186      0.0548
      6  CG       -41.7360   -2.6410   10.5730 C.ar  186  TYR186     -0.0200
      7  CD1      -42.6680   -3.0110    9.6140 C.ar  186  TYR186     -0.0009
      8  CD2      -42.1360   -2.6160   11.9110 C.ar  186  TYR186     -0.0009
      9  CE1      -43.9500   -3.3710    9.9650 C.ar  186  TYR186      0.0417
     10  CE2      -43.4290   -2.9770   12.2770 C.ar  186  TYR186      0.0417
     11  CZ       -44.3310   -3.3490   11.2870 C.ar  186  TYR186      0.1957
     12  OH       -45.6180   -3.7100   11.6070 O.3   186  TYR186     -0.2866
     13  N        -38.8360    0.5200   11.1900 N.am  187  THR187     -0.1939
     14  CA       -37.5830    1.1240   11.6280 C.3   187  THR187      0.2028
     15  C        -36.5740    0.0300   11.9550 C.2   187  THR187      0.2643
     16  O        -36.9380   -1.1370   12.0510 O.2   187  THR187     -0.2714
     17  CB       -37.7900    2.0230   12.8630 C.3   187  THR187      0.1808
     18  OG1      -38.2540    1.2290   13.9640 O.3   187  THR187     -0.2208
     19  CG2      -38.8080    3.1140   12.5670 C.3   187  THR187      0.0379
     20  N        -35.3090    0.4060   12.1300 N.am  188  SER188     -0.1935
     21  CA       -34.2580   -0.5730   12.4050 C.3   188  SER188      0.2055
     22  C        -34.3420   -1.1400   13.8170 C.2   188  SER188      0.2644
     23  O        -33.7070   -2.1450   14.1260 O.2   188  SER188     -0.2714
     24  CB       -32.8800    0.0510   12.1880 C.3   188  SER188      0.2130
     25  OG       -32.6940    0.3680   10.8200 O.3   188  SER188     -0.2179
     26  N        -35.1170   -0.4900   14.6760 N.am  189  GLY189     -0.1939
     27  CA       -35.2250   -0.9160   16.0570 C.3   189  GLY189      0.2014
     28  C        -33.9590   -0.6440   16.8510 C.2   189  GLY189      0.2640
     29  O        -33.5530   -1.4550   17.6810 O.2   189  GLY189     -0.2714
     30  N        -33.3330    0.5020   16.5960 N.am  190  SER190     -0.1935
     31  CA       -32.1080    0.8790   17.2960 C.3   190  SER190      0.2055
     32  C        -32.3720    1.2840   18.7480 C.2   190  SER190      0.2644
     33  O        -31.5690    0.9980   19.6260 O.2   190  SER190     -0.2714
     34  CB       -31.3980    2.0190   16.5570 C.3   190  SER190      0.2130
     35  OG       -30.9990    1.6130   15.2540 O.3   190  SER190     -0.2179
     36  N        -33.5000    1.9400   18.9950 N.am  191  THR191     -0.1936
     37  CA       -33.7930    2.4750   20.3190 C.3   191  THR191      0.2028
     38  C        -35.0380    1.8540   20.9530 C.2   191  THR191      0.2642
     39  O        -35.4590    2.2720   22.0310 O.2   191  THR191     -0.2714
     40  CB       -34.0000    4.0070   20.2700 C.3   191  THR191      0.1808
     41  OG1      -35.2410    4.3020   19.6150 O.3   191  THR191     -0.2208
     42  CG2      -32.8530    4.6850   19.5280 C.3   191  THR191      0.0379
     43  N        -35.6180    0.8610   20.2830 N.am  192  ARG192     -0.1977
     44  CA       -36.9180    0.3110   20.6630 C.3   192  ARG192      0.1597
     45  C        -37.2360   -0.9140   19.8150 C.2   192  ARG192      0.2287
     46  O        -36.4330   -1.3170   18.9750 O.2   192  ARG192     -0.2864
     47  CB       -38.0120    1.3570   20.4650 C.3   192  ARG192      0.0334
     48  CG       -38.0030    1.8790   19.0230 C.3   192  ARG192      0.0492
     49  CD       -39.1480    2.8020   18.6770 C.3   192  ARG192      0.2205
     50  NE       -38.8550    3.4960   17.4250 N.pl3 192  ARG192     -0.0865
     51  CZ       -39.6250    4.4370   16.8900 C.cat 192  ARG192      0.5346
     52  NH1      -40.7510    4.7910   17.4930 N.pl3 192  ARG192      0.1354
     53  NH2      -39.2700    5.0230   15.7520 N.pl3 192  ARG192      0.1354
     54  N        -34.5610    0.0100    5.0000 N.3   232  ASP232     -0.1239
     55  CA       -34.9710    1.3150    4.4890 C.3   232  ASP232      0.1674
     56  C        -34.3620    1.6370    3.1180 C.2   232  ASP232      0.2266
     57  O        -35.0780    1.8950    2.1430 O.2   232  ASP232     -0.2867
     58  CB       -34.5790    2.3940    5.5000 C.3   232  ASP232      0.1410
     59  CG       -35.4460    3.6240    5.4060 C.2   232  ASP232      0.3668
     60  OD1      -36.5400    3.5350    4.8060 O.co2 232  ASP232     -0.2456
     61  OD2      -35.0310    4.6770    5.9360 O.co2 232  ASP232     -0.2456
     62  N        -28.0100    5.4420    6.8720 N.3   314  SER314     -0.1202
     63  CA       -28.3430    4.7150    8.1030 C.3   314  SER314      0.2020
     64  C        -27.3910    5.0540    9.2500 C.2   314  SER314      0.2619
     65  O        -27.6150    4.6440   10.3850 O.2   314  SER314     -0.2717
     66  CB       -28.3600    3.1970    7.8710 C.3   314  SER314      0.2103
     67  OG       -27.0460    2.6600    7.9040 O.3   314  SER314     -0.2182
     68  N        -26.3530    5.8270    8.9540 N.am  315  GLU315     -0.1965
     69  CA       -25.2630    6.0430    9.8950 C.3   315  GLU315      0.1718
     70  C        -24.3630    7.1850    9.4230 C.2   315  GLU315      0.2458
     71  O        -24.3910    7.5450    8.2460 O.2   315  GLU315     -0.2730
     72  CB       -24.4460    4.7560   10.0420 C.3   315  GLU315      0.0428
     73  CG       -23.7530    4.3480    8.7490 C.3   315  GLU315      0.1163
     74  CD       -23.0090    3.0270    8.8660 C.2   315  GLU315      0.3649
     75  OE1      -22.9290    2.3020    7.8530 O.co2 315  GLU315     -0.2457
     76  OE2      -22.4980    2.7160    9.9610 O.co2 315  GLU315     -0.2457
     77  N        -23.5500    7.7510   10.3320 N.am  316  PRO316     -0.2716
     78  CA       -22.5570    8.7280    9.8700 C.3   316  PRO316      0.1536
     79  C        -21.4400    8.0560    9.0780 C.2   316  PRO316      0.2598
     80  O        -20.9430    7.0070    9.4880 O.2   316  PRO316     -0.2715
     81  CB       -22.0160    9.3270   11.1760 C.3   316  PRO316      0.0310
     82  CG       -22.1960    8.2320   12.1900 C.3   316  PRO316      0.0237
     83  CD       -23.4820    7.5400   11.7940 C.3   316  PRO316      0.0939
     84  N        -21.0510    8.6420    7.9530 N.am  317  ILE317     -0.1978
     85  CA       -19.9330    8.0970    7.1940 C.3   317  ILE317      0.1596
     86  C        -18.6190    8.3300    7.9370 C.2   317  ILE317      0.2287
     87  O        -18.4140    9.3780    8.5490 O.2   317  ILE317     -0.2864
     88  CB       -19.8500    8.7050    5.7770 C.3   317  ILE317      0.0276
     89  CG1      -18.7670    7.9980    4.9610 C.3   317  ILE317      0.0022
     90  CG2      -19.6210   10.2120    5.8410 C.3   317  ILE317      0.0022
     91  CD1      -19.2090    7.6200    3.5780 C.3   317  ILE317      0.0001
     92  N        -22.7080   10.8320    1.2940 N.3   341  PRO341     -0.2102
     93  CA       -23.2700   10.7340    2.6450 C.3   341  PRO341      0.1504
     94  C        -24.6690   11.3470    2.6700 C.2   341  PRO341      0.2576
     95  O        -24.9190   12.3450    1.9950 O.2   341  PRO341     -0.2718
     96  CB       -22.2830   11.5350    3.5050 C.3   341  PRO341      0.0282
     97  CG       -21.0040   11.5540    2.7040 C.3   341  PRO341      0.0208
     98  CD       -21.4560   11.6080    1.2680 C.3   341  PRO341      0.0893
     99  N        -25.5830   10.7390    3.4120 N.am  342  SER342     -0.1938
    100  CA       -26.9560   11.2080    3.4190 C.3   342  SER342      0.2055
    101  C        -27.6140   11.0020    4.7660 C.2   342  SER342      0.2643
    102  O        -27.1760   10.1740    5.5620 O.2   342  SER342     -0.2714
    103  CB       -27.7780   10.4930    2.3450 C.3   342  SER342      0.2130
    104  OG       -28.0520    9.1640    2.7490 O.3   342  SER342     -0.2179
    105  N        -28.6750   11.7650    5.0070 N.am  343  TYR343     -0.1959
    106  CA       -29.5230   11.5660    6.1670 C.3   343  TYR343      0.1771
    107  C        -30.8430   10.9650    5.7030 C.2   343  TYR343      0.2620
    108  O        -31.4420   11.4250    4.7310 O.2   343  TYR343     -0.2715
    109  CB       -29.7470   12.8850    6.9140 C.3   343  TYR343      0.0574
    110  CG       -30.6300   12.7950    8.1440 C.ar  343  TYR343     -0.0198
    111  CD1      -30.3640   11.8740    9.1540 C.ar  343  TYR343     -0.0009
    112  CD2      -31.7110   13.6570    8.3120 C.ar  343  TYR343     -0.0009
    113  CE1      -31.1640   11.7990   10.2910 C.ar  343  TYR343      0.0417
    114  CE2      -32.5150   13.5950    9.4500 C.ar  343  TYR343      0.0417
    115  CZ       -32.2340   12.6660   10.4350 C.ar  343  TYR343      0.1957
    116  OH       -33.0270   12.6040   11.5640 O.3   343  TYR343     -0.2866
    117  N        -31.2780    9.9230    6.4000 N.am  344  GLY344     -0.1940
    118  CA       -32.5250    9.2630    6.0930 C.3   344  GLY344      0.2014
    119  C        -33.0790    8.4950    7.2760 C.2   344  GLY344      0.2639
    120  O        -32.3610    8.2090    8.2320 O.2   344  GLY344     -0.2714
    121  N        -34.3640    8.1650    7.2050 N.am  345  LEU345     -0.1963
    122  CA       -35.0400    7.4080    8.2520 C.3   345  LEU345      0.1728
    123  C        -36.3960    6.9490    7.7360 C.2   345  LEU345      0.2616
    124  O        -36.9290    7.5170    6.7810 O.2   345  LEU345     -0.2715
    125  CB       -35.2010    8.2380    9.5380 C.3   345  LEU345      0.0311
    126  CG       -36.0830    9.4920    9.5720 C.3   345  LEU345      0.0022
    127  CD1      -36.2790    9.9550   11.0220 C.3   345  LEU345      0.0001
    128  CD2      -35.5000   10.6230    8.7450 C.3   345  LEU345      0.0001
    129  N        -36.9440    5.9170    8.3680 N.am  346  ALA346     -0.1963
    130  CA       -38.2040    5.3270    7.9240 C.3   346  ALA346      0.1728
    131  C        -39.3340    6.3510    7.9030 C.2   346  ALA346      0.2616
    132  O        -40.1870    6.3110    7.0130 O.2   346  ALA346     -0.2715
    133  CB       -38.5820    4.1420    8.8180 C.3   346  ALA346      0.0334
    134  N        -39.3380    7.2640    8.8790 N.am  347  GLU347     -0.1977
    135  CA       -40.4230    8.2420    9.0160 C.3   347  GLU347      0.1602
    136  C        -40.5320    9.1580    7.7900 C.2   347  GLU347      0.2287
    137  O        -41.5930    9.7180    7.5010 O.2   347  GLU347     -0.2864
    138  CB       -40.2370    9.0930   10.2820 C.3   347  GLU347      0.0415
    139  CG       -40.5520    8.3870   11.6100 C.3   347  GLU347      0.1163
    140  CD       -39.4070    7.5240   12.1320 C.2   347  GLU347      0.3649
    141  OE1      -38.4050    7.3180   11.4110 O.co2 347  GLU347     -0.2457
    142  OE2      -39.5140    7.0480   13.2790 O.co2 347  GLU347     -0.2457
    143  N        -19.9420   13.8890   10.8730 N.3   390  ALA390     -0.1231
    144  CA       -20.0780   13.6810    9.4320 C.3   390  ALA390      0.1694
    145  C        -21.2340   14.4800    8.8550 C.2   390  ALA390      0.2593
    146  O        -22.3670   14.3780    9.3260 O.2   390  ALA390     -0.2718
    147  CB       -20.2630   12.2040    9.1240 C.3   390  ALA390      0.0304
    148  N        -20.9410   15.2740    7.8320 N.am  391  SER391     -0.1938
    149  CA       -21.9710   16.0430    7.1460 C.3   391  SER391      0.2055
    150  C        -22.9500   15.1420    6.4020 C.2   391  SER391      0.2642
    151  O        -22.5430   14.1890    5.7400 O.2   391  SER391     -0.2714
    152  CB       -21.3420   17.0270    6.1580 C.3   391  SER391      0.2130
    153  OG       -22.3440   17.6110    5.3380 O.3   391  SER391     -0.2179
    154  N        -24.2370   15.4590    6.5130 N.am  392  ALA392     -0.1977
    155  CA       -25.2750   14.7770    5.7490 C.3   392  ALA392      0.1597
    156  C        -25.7780   15.6630    4.6010 C.2   392  ALA392      0.2287
    157  O        -26.7780   15.3470    3.9500 O.2   392  ALA392     -0.2864
    158  CB       -26.4320   14.3680    6.6650 C.3   392  ALA392      0.0319
    159  N        -37.7070   13.2600   14.8390 N.3   467  THR467     -0.1218
    160  CA       -36.8660   12.1760   14.3470 C.3   467  THR467      0.1862
    161  C        -36.3000   11.2920   15.4550 C.2   467  THR467      0.2287
    162  O        -36.0010   10.1230   15.2200 O.2   467  THR467     -0.2866
    163  CB       -35.6900   12.7200   13.5290 C.3   467  THR467      0.1770
    164  OG1      -34.8720   13.5480   14.3670 O.3   467  THR467     -0.2211
    165  CG2      -36.1950   13.5300   12.3250 C.3   467  THR467      0.0375
    166  N        -33.5120   12.2430   16.8040 N.3   469  ASP469     -0.1239
    167  CA       -32.0840   12.5350   16.6600 C.3   469  ASP469      0.1674
    168  C        -31.7200   13.9290   17.1540 C.2   469  ASP469      0.2266
    169  O        -32.5110   14.8590   17.0260 O.2   469  ASP469     -0.2867
    170  CB       -31.6500   12.4180   15.1950 C.3   469  ASP469      0.1410
    171  CG       -31.8790   11.0380   14.6230 C.2   469  ASP469      0.3668
    172  OD1      -31.6940   10.0500   15.3620 O.co2 469  ASP469     -0.2456
    173  OD2      -32.2490   10.9500   13.4320 O.co2 469  ASP469     -0.2456
    174  N        -25.7310   15.0870   12.1860 N.3   480  ILE480     -0.1245
    175  CA       -26.4670   14.3500   13.2070 C.3   480  ILE480      0.1561
    176  C        -25.4720   13.9580   14.2980 C.2   480  ILE480      0.2260
    177  O        -24.5310   13.2010   14.0440 O.2   480  ILE480     -0.2867
    178  CB       -27.1710   13.0840   12.6510 C.3   480  ILE480      0.0252
    179  CG1      -28.3820   13.4440   11.7810 C.3   480  ILE480      0.0019
    180  CG2      -27.6370   12.1980   13.8000 C.3   480  ILE480      0.0019
    181  CD1      -28.0510   14.0220   10.4130 C.3   480  ILE480      0.0001
    182  N        -28.3910   10.0950   18.9920 N.3   483  ARG483     -0.1245
    183  CA       -29.7920    9.7780   19.2350 C.3   483  ARG483      0.1563
    184  C        -30.2390   10.3180   20.5890 C.2   483  ARG483      0.2260
    185  O        -29.5410   10.1480   21.5910 O.2   483  ARG483     -0.2867
    186  CB       -30.0110    8.2670   19.1670 C.3   483  ARG483      0.0307
    187  CG       -29.5650    7.6220   17.8460 C.3   483  ARG483      0.0489
    188  CD       -29.7600    6.0990   17.8960 C.3   483  ARG483      0.2205
    189  NE       -29.4280    5.4510   16.6280 N.pl3 483  ARG483     -0.0865
    190  CZ       -30.2880    5.2800   15.6280 C.cat 483  ARG483      0.5346
    191  NH1      -31.5390    5.7090   15.7480 N.pl3 483  ARG483      0.1354
    192  NH2      -29.8970    4.6780   14.5100 N.pl3 483  ARG483      0.1354
@<TRIPOS>BOND
     1    98    92    1
     2    98    97    1
     3    92    93    1
     4    95    94    2
     5    57    56    2
     6   103   104    1
     7   103   100    1
     8    93    94    1
     9    93    96    1
    10    94    99   am
    11    97    96    1
    12    56    55    1
    13    99   100    1
    14   100   101    1
    15    91    89    1
    16   157   156    2
    17    55    54    1
    18    55    58    1
    19   156   155    1
    20   108   107    2
    21   101   105   am
    22   101   102    2
    23    60    59   ar
    24    89    88    1
    25   105   106    1
    26   153   152    1
    27    59    58    1
    28    59    61   ar
    29   107   106    1
    30   107   117   am
    31   151   150    2
    32   155   154    1
    33   155   158    1
    34    88    90    1
    35    88    85    1
    36   118   117    1
    37   118   119    1
    38   152   149    1
    39   106   109    1
    40   150   154   am
    41   150   149    1
    42   124   123    2
    43    62    63    1
    44   109   110    1
    45   132   131    2
    46   149   148    1
    47    85    86    1
    48    85    84    1
    49   121   119   am
    50   121   122    1
    51   119   120    2
    52   137   136    2
    53   123   122    1
    54   123   129   am
    55   136   135    1
    56   148   145   am
    57    75    74   ar
    58    66    67    1
    59    66    63    1
    60   131   130    1
    61   131   134   am
    62   130   129    1
    63   130   133    1
    64    86    87    2
    65    84    79   am
    66    63    64    1
    67   110   112   ar
    68   110   111   ar
    69    71    70    2
    70   122   125    1
    71   112   114   ar
    72     1     2    1
    73   128   126    1
    74    73    74    1
    75    73    72    1
    76   145   146    2
    77   145   144    1
    78    74    76   ar
    79   134   135    1
    80    68    64   am
    81    68    69    1
    82   135   138    1
    83    79    80    2
    84    79    78    1
    85   147   144    1
    86   111   113   ar
    87     4     3    2
    88    64    65    2
    89    70    69    1
    90    70    77   am
    91   144   143    1
    92   114   115   ar
    93   125   126    1
    94   126   127    1
    95     7     9   ar
    96     7     6   ar
    97     2     3    1
    98     2     5    1
    99    78    77    1
   100    78    81    1
   101    69    72    1
   102     9    11   ar
   103     3    13   am
   104     5     6    1
   105   138   139    1
   106   113   115   ar
   107    77    83    1
   108   181   179    1
   109   115   116    1
   110     6     8   ar
   111    25    24    1
   112    81    82    1
   113    13    14    1
   114    11    12    1
   115    11    10   ar
   116   141   140   ar
   117   139   140    1
   118    14    15    1
   119    14    17    1
   120   179   178    1
   121    83    82    1
   122     8    10   ar
   123    15    16    2
   124    15    20   am
   125    20    21    1
   126   140   142   ar
   127   174   175    1
   128    24    21    1
   129   165   163    1
   130    21    22    1
   131    19    17    1
   132   178   175    1
   133   178   180    1
   134    17    18    1
   135   175   176    1
   136   173   171   ar
   137   163   160    1
   138   163   164    1
   139    22    23    2
   140    22    26   am
   141   177   176    2
   142   160   159    1
   143   160   161    1
   144   192   190    1
   145   171   170    1
   146   171   172   ar
   147    26    27    1
   148   170   167    1
   149   162   161    2
   150    35    34    1
   151   190   191    1
   152   190   189    2
   153    53    51    1
   154    27    28    1
   155    34    31    1
   156    30    28   am
   157    30    31    1
   158   189   188    1
   159   167   166    1
   160   167   168    1
   161    28    29    2
   162    51    50    2
   163    51    52    1
   164   169   168    2
   165    31    32    1
   166    50    49    1
   167   187   188    1
   168   187   186    1
   169    49    48    1
   170    32    36   am
   171    32    33    2
   172    46    45    2
   173   182   183    1
   174    36    37    1
   175    48    47    1
   176   186   183    1
   177   183   184    1
   178    42    40    1
   179    41    40    1
   180    45    44    1
   181    40    37    1
   182    43    44    1
   183    43    38   am
   184    37    38    1
   185    47    44    1
   186   184   185    2
   187    38    39    2
