@<TRIPOS>MOLECULE
tmp/5d6lA05.pdb
 98 90 0 0 0
SMALL
GASTEIGER

@<TRIPOS>ATOM
      1  N         32.0170   53.7080   20.3020 N.3   204  ILE204     -0.1245
      2  CA        31.2180   54.7840   20.8790 C.3   204  ILE204      0.1561
      3  C         30.0960   55.2120   19.9310 C.2   204  ILE204      0.2260
      4  O         29.0400   55.6640   20.3750 O.2   204  ILE204     -0.2867
      5  CB        32.0950   56.0070   21.2510 C.3   204  ILE204      0.0252
      6  CG1       31.3020   56.9960   22.1100 C.3   204  ILE204      0.0019
      7  CG2       32.6670   56.6800   20.0080 C.3   204  ILE204      0.0019
      8  CD1       32.1170   58.1660   22.6040 C.3   204  ILE204      0.0001
      9  N         31.0390   62.2240   15.1000 N.3   269  ASN269     -0.1240
     10  CA        32.4660   62.2600   15.4020 C.3   269  ASN269      0.1653
     11  C         32.9110   63.6680   15.7880 C.2   269  ASN269      0.2266
     12  O         33.8300   63.8430   16.5890 O.2   269  ASN269     -0.2867
     13  CB        33.2870   61.7560   14.2130 C.3   269  ASN269      0.1155
     14  CG        32.9730   60.3140   13.8530 C.2   269  ASN269      0.2627
     15  OD1       32.5580   59.5250   14.7020 O.2   269  ASN269     -0.2716
     16  ND2       33.1730   59.9650   12.5860 N.am  269  ASN269     -0.0877
     17  N         31.5120   64.2760   19.3680 N.3   272  VAL272     -0.1231
     18  CA        32.3760   63.5590   20.3000 C.3   272  VAL272      0.1692
     19  C         33.6500   64.3550   20.5620 C.2   272  VAL272      0.2592
     20  O         34.0820   64.4990   21.7070 O.2   272  VAL272     -0.2718
     21  CB        32.7370   62.1570   19.7690 C.3   272  VAL272      0.0266
     22  CG1       33.9420   61.5940   20.5030 C.3   272  VAL272      0.0020
     23  CG2       31.5480   61.2250   19.9000 C.3   272  VAL272      0.0020
     24  N         34.2380   64.8770   19.4900 N.am  273  ASP273     -0.1974
     25  CA        35.4210   65.7230   19.5890 C.3   273  ASP273      0.1709
     26  C         35.1460   66.9370   20.4680 C.2   273  ASP273      0.2293
     27  O         35.9700   67.3090   21.3020 O.2   273  ASP273     -0.2864
     28  CB        35.8750   66.1690   18.1970 C.3   273  ASP273      0.1436
     29  CG        37.0180   67.1650   18.2470 C.2   273  ASP273      0.3671
     30  OD1       38.1870   66.7290   18.3110 O.co2 273  ASP273     -0.2456
     31  OD2       36.7480   68.3840   18.2190 O.co2 273  ASP273     -0.2456
     32  N         34.7510   65.8430   24.2610 N.3   276  VAL276     -0.1231
     33  CA        36.0370   65.5530   24.8890 C.3   276  VAL276      0.1692
     34  C         36.7840   66.8340   25.2570 C.2   276  VAL276      0.2591
     35  O         37.3430   66.9390   26.3500 O.2   276  VAL276     -0.2718
     36  CB        36.9240   64.6840   23.9740 C.3   276  VAL276      0.0266
     37  CG1       38.3370   64.5800   24.5290 C.3   276  VAL276      0.0020
     38  CG2       36.3160   63.3030   23.8110 C.3   276  VAL276      0.0020
     39  N         36.7850   67.8070   24.3480 N.am  277  ARG277     -0.1980
     40  CA        37.4380   69.0900   24.6030 C.3   277  ARG277      0.1597
     41  C         36.8060   69.8020   25.7900 C.2   277  ARG277      0.2287
     42  O         37.5010   70.4120   26.6020 O.2   277  ARG277     -0.2864
     43  CB        37.3730   69.9940   23.3710 C.3   277  ARG277      0.0334
     44  CG        38.1230   69.4690   22.1640 C.3   277  ARG277      0.0492
     45  CD        38.1330   70.4910   21.0390 C.3   277  ARG277      0.2205
     46  NE        38.5280   69.8930   19.7680 N.pl3 277  ARG277     -0.0865
     47  CZ        39.7870   69.6960   19.3890 C.cat 277  ARG277      0.5346
     48  NH1       40.7880   70.0460   20.1860 N.pl3 277  ARG277      0.1354
     49  NH2       40.0450   69.1430   18.2110 N.pl3 277  ARG277      0.1354
     50  N         37.8080   68.0480   29.0490 N.3   280  LEU280     -0.1245
     51  CA        39.1740   68.4010   29.4220 C.3   280  LEU280      0.1561
     52  C         39.2830   69.8440   29.9170 C.2   280  LEU280      0.2260
     53  O         40.2630   70.2110   30.5650 O.2   280  LEU280     -0.2867
     54  CB        40.1190   68.1750   28.2400 C.3   280  LEU280      0.0270
     55  CG        40.2990   66.7160   27.8110 C.3   280  LEU280      0.0019
     56  CD1       41.1680   66.6130   26.5680 C.3   280  LEU280      0.0001
     57  CD2       40.8920   65.8940   28.9440 C.3   280  LEU280      0.0001
     58  N         38.2870   61.6870   33.6140 N.3   289  TYR289     -0.1241
     59  CA        38.4900   61.2830   32.2270 C.3   289  TYR289      0.1605
     60  C         39.9330   60.8620   31.9680 C.2   289  TYR289      0.2264
     61  O         40.1820   59.8780   31.2720 O.2   289  TYR289     -0.2867
     62  CB        38.0960   62.4240   31.2860 C.3   289  TYR289      0.0534
     63  CG        38.1800   62.0940   29.8110 C.ar  289  TYR289     -0.0201
     64  CD1       37.0990   61.5360   29.1410 C.ar  289  TYR289     -0.0009
     65  CD2       39.3340   62.3580   29.0850 C.ar  289  TYR289     -0.0009
     66  CE1       37.1690   61.2400   27.7910 C.ar  289  TYR289      0.0417
     67  CE2       39.4150   62.0640   27.7370 C.ar  289  TYR289      0.0417
     68  CZ        38.3300   61.5060   27.0950 C.ar  289  TYR289      0.1957
     69  OH        38.4080   61.2140   25.7520 O.3   289  TYR289     -0.2866
     70  N         39.8490   53.6240   27.5900 N.3   294  ALA294     -0.1245
     71  CA        39.1400   54.0600   26.3870 C.3   294  ALA294      0.1562
     72  C         37.6440   53.7440   26.4210 C.2   294  ALA294      0.2260
     73  O         36.8200   54.5850   26.0610 O.2   294  ALA294     -0.2867
     74  CB        39.7770   53.4340   25.1530 C.3   294  ALA294      0.0290
     75  N         35.8670   55.8610   28.9990 N.3   297  ARG297     -0.1231
     76  CA        35.8270   57.2330   28.5040 C.3   297  ARG297      0.1694
     77  C         34.6090   57.4040   27.6050 C.2   297  ARG297      0.2591
     78  O         33.9310   58.4290   27.6520 O.2   297  ARG297     -0.2718
     79  CB        37.1120   57.5920   27.7470 C.3   297  ARG297      0.0321
     80  CG        38.3020   57.8910   28.6490 C.3   297  ARG297      0.0489
     81  CD        39.5570   58.2510   27.8590 C.3   297  ARG297      0.2205
     82  NE        40.7080   58.4170   28.7450 N.pl3 297  ARG297     -0.0865
     83  CZ        41.9080   58.8430   28.3600 C.cat 297  ARG297      0.5346
     84  NH1       42.1340   59.1580   27.0940 N.pl3 297  ARG297      0.1354
     85  NH2       42.8870   58.9570   29.2470 N.pl3 297  ARG297      0.1354
     86  N         34.3300   56.3870   26.7950 N.am  298  ALA298     -0.1980
     87  CA        33.1530   56.3920   25.9340 C.3   298  ALA298      0.1597
     88  C         31.8820   56.4330   26.7760 C.2   298  ALA298      0.2287
     89  O         30.8880   57.0470   26.3910 O.2   298  ALA298     -0.2864
     90  CB        33.1510   55.1740   25.0210 C.3   298  ALA298      0.0319
     91  N         31.5270   60.0340   28.0410 N.3   301  ILE301     -0.1245
     92  CA        31.0750   60.8530   26.9210 C.3   301  ILE301      0.1561
     93  C         29.5910   60.6170   26.6580 C.2   301  ILE301      0.2260
     94  O         28.8420   61.5550   26.3770 O.2   301  ILE301     -0.2867
     95  CB        31.8860   60.5550   25.6440 C.3   301  ILE301      0.0252
     96  CG1       33.3530   60.9360   25.8460 C.3   301  ILE301      0.0019
     97  CG2       31.3120   61.3040   24.4510 C.3   301  ILE301      0.0019
     98  CD1       34.2700   60.4160   24.7660 C.3   301  ILE301      0.0001
@<TRIPOS>BOND
     1    16    14   am
     2    14    13    1
     3    14    15    2
     4    13    10    1
     5     9    10    1
     6    10    11    1
     7    11    12    2
     8    28    29    1
     9    28    25    1
    10    49    47    1
    11    31    29   ar
    12    29    30   ar
    13    17    18    1
    14    47    46    2
    15    47    48    1
    16    24    25    1
    17    24    19   am
    18    25    26    1
    19    46    45    1
    20    21    23    1
    21    21    18    1
    22    21    22    1
    23     3     4    2
    24     3     2    1
    25     7     5    1
    26    18    19    1
    27     1     2    1
    28    26    27    2
    29    19    20    2
    30     2     5    1
    31    45    44    1
    32     5     6    1
    33     6     8    1
    34    44    43    1
    35    43    40    1
    36    38    36    1
    37    36    37    1
    38    36    33    1
    39    32    33    1
    40    39    40    1
    41    39    34   am
    42    97    95    1
    43    40    41    1
    44    98    96    1
    45    33    34    1
    46    90    87    1
    47    74    71    1
    48    34    35    2
    49    95    96    1
    50    95    92    1
    51    69    68    1
    52    41    42    2
    53    87    88    1
    54    87    86    1
    55    73    72    2
    56    94    93    2
    57    71    72    1
    58    71    70    1
    59    89    88    2
    60    56    55    1
    61    93    92    1
    62    86    77   am
    63    92    91    1
    64    84    83    1
    65    68    67   ar
    66    68    66   ar
    67    77    78    2
    68    77    76    1
    69    67    65   ar
    70    79    76    1
    71    79    80    1
    72    66    64   ar
    73    55    54    1
    74    55    57    1
    75    81    80    1
    76    81    82    1
    77    54    51    1
    78    83    82    2
    79    83    85    1
    80    76    75    1
    81    50    51    1
    82    65    63   ar
    83    64    63   ar
    84    51    52    1
    85    63    62    1
    86    52    53    2
    87    61    60    2
    88    62    59    1
    89    60    59    1
    90    59    58    1
