@<TRIPOS>MOLECULE
tmp/5d6pB00.pdb
 110 101 0 0 0
SMALL
GASTEIGER

@<TRIPOS>ATOM
      1  N         18.3640   -9.2320   28.8120 N.3    32  ILE32      -0.1245
      2  CA        18.6520  -10.6130   29.1910 C.3    32  ILE32       0.1561
      3  C         18.7030  -10.7850   30.7350 C.2    32  ILE32       0.2260
      4  O         18.1060  -11.7410   31.2910 O.2    32  ILE32      -0.2867
      5  CB        19.9980  -11.0800   28.6480 C.3    32  ILE32       0.0252
      6  CG1       20.1040  -10.9580   27.1040 C.3    32  ILE32       0.0019
      7  CG2       20.2500  -12.5030   29.1190 C.3    32  ILE32       0.0019
      8  CD1       19.0280  -11.7070   26.3530 C.3    32  ILE32       0.0001
      9  N         15.2970  -11.2010   32.5060 N.3    35  ASN35      -0.1225
     10  CA        14.6770  -12.5350   32.5550 C.3    35  ASN35       0.1785
     11  C         15.1960  -13.3690   33.7110 C.2    35  ASN35       0.2597
     12  O         14.4610  -14.1610   34.2830 O.2    35  ASN35      -0.2718
     13  CB        14.9040  -13.2840   31.2380 C.3    35  ASN35       0.1169
     14  CG        14.3220  -12.5550   30.0160 C.2    35  ASN35       0.2627
     15  OD1       14.8850  -12.6260   28.9430 O.2    35  ASN35      -0.2716
     16  ND2       13.2220  -11.8430   30.1870 N.am   35  ASN35      -0.0877
     17  N         16.5050  -13.2590   33.9820 N.am   36  SER36      -0.1952
     18  CA        17.1130  -13.9260   35.1060 C.3    36  SER36       0.1924
     19  C         16.5300  -13.3390   36.3790 C.2    36  SER36       0.2314
     20  O         16.2460  -14.0820   37.3140 O.2    36  SER36      -0.2863
     21  CB        18.6380  -13.7810   35.1290 C.3    36  SER36       0.2116
     22  OG        19.2960  -14.6100   34.1900 O.3    36  SER36      -0.2180
     23  N         13.2670  -14.8120   36.9690 N.3    39  GLU39      -0.1245
     24  CA        13.4390  -16.1460   37.4220 C.3    39  GLU39       0.1567
     25  C         13.7650  -16.2040   38.9270 C.2    39  GLU39       0.2260
     26  O         13.2270  -17.0450   39.6260 O.2    39  GLU39      -0.2867
     27  CB        14.4640  -16.8780   36.5530 C.3    39  GLU39       0.0388
     28  CG        14.5480  -18.3660   36.7960 C.3    39  GLU39       0.1160
     29  CD        13.2800  -19.1490   36.4690 C.2    39  GLU39       0.3649
     30  OE1       12.2720  -18.6130   35.9480 O.co2  39  GLU39      -0.2457
     31  OE2       13.2880  -20.3480   36.7830 O.co2  39  GLU39      -0.2457
     32  N         25.3920  -14.3630   30.1900 N.3    60  VAL60      -0.1245
     33  CA        24.5540  -14.2640   31.4170 C.3    60  VAL60       0.1561
     34  C         24.0990  -15.6580   31.7890 C.2    60  VAL60       0.2260
     35  O         23.6850  -16.4140   30.9080 O.2    60  VAL60      -0.2867
     36  CB        23.2980  -13.4050   31.2010 C.3    60  VAL60       0.0252
     37  CG1       22.4930  -13.3240   32.5010 C.3    60  VAL60       0.0019
     38  CG2       23.6920  -12.0250   30.6920 C.3    60  VAL60       0.0019
     39  N         21.8240  -17.8570   34.9200 N.3    62  ASP62      -0.1239
     40  CA        21.1230  -18.0300   36.1650 C.3    62  ASP62       0.1674
     41  C         21.0410  -19.5120   36.5090 C.2    62  ASP62       0.2266
     42  O         21.1970  -20.3760   35.6440 O.2    62  ASP62      -0.2867
     43  CB        19.7600  -17.2730   36.2020 C.3    62  ASP62       0.1410
     44  CG        18.7200  -17.8150   35.2020 C.2    62  ASP62       0.3668
     45  OD1       18.3350  -17.0710   34.2820 O.co2  62  ASP62      -0.2456
     46  OD2       18.2860  -18.9830   35.3190 O.co2  62  ASP62      -0.2456
     47  N         15.1740  -22.5170   36.5590 N.3    65  ARG65      -0.1231
     48  CA        14.6150  -23.7860   36.0050 C.3    65  ARG65       0.1694
     49  C         15.0840  -24.1450   34.5720 C.2    65  ARG65       0.2593
     50  O         14.8970  -25.2720   34.1220 O.2    65  ARG65      -0.2718
     51  CB        13.0790  -23.7210   36.0170 C.3    65  ARG65       0.0321
     52  CG        12.4730  -23.6210   37.4130 C.3    65  ARG65       0.0489
     53  CD        11.0170  -23.2780   37.3610 C.3    65  ARG65       0.2205
     54  NE        10.8320  -21.8790   36.9760 N.pl3  65  ARG65      -0.0865
     55  CZ         9.6560  -21.2630   36.8600 C.cat  65  ARG65       0.5346
     56  NH1        9.5970  -19.9780   36.5020 N.pl3  65  ARG65       0.1354
     57  NH2        8.5300  -21.9260   37.1010 N.pl3  65  ARG65       0.1354
     58  N         15.6480  -23.1730   33.8570 N.am   66  GLY66      -0.1942
     59  CA        15.9740  -23.3180   32.4220 C.3    66  GLY66       0.2014
     60  C         14.7680  -22.9980   31.5730 C.2    66  GLY66       0.2639
     61  O         13.6430  -23.4200   31.8890 O.2    66  GLY66      -0.2714
     62  N         14.9900  -22.2660   30.4840 N.am   67  ILE67      -0.1963
     63  CA        13.9610  -22.0080   29.5030 C.3    67  ILE67       0.1712
     64  C         13.3150  -23.3160   29.0190 C.2    67  ILE67       0.2458
     65  O         14.0280  -24.2410   28.5920 O.2    67  ILE67      -0.2730
     66  CB        14.5320  -21.2510   28.2710 C.3    67  ILE67       0.0289
     67  CG1       15.1950  -19.9350   28.6890 C.3    67  ILE67       0.0022
     68  CG2       13.4200  -20.9800   27.2490 C.3    67  ILE67       0.0023
     69  CD1       15.9290  -19.2100   27.5650 C.3    67  ILE67       0.0001
     70  N         11.9660  -23.3880   29.0270 N.am   68  PRO68      -0.2727
     71  CA        11.3220  -24.6250   28.5920 C.3    68  PRO68       0.1402
     72  C         11.7380  -25.0670   27.1940 C.2    68  PRO68       0.2269
     73  O         11.9750  -24.2320   26.3210 O.2    68  PRO68      -0.2865
     74  CB         9.8220  -24.2640   28.6260 C.3    68  PRO68       0.0296
     75  CG         9.7240  -23.2080   29.6440 C.3    68  PRO68       0.0237
     76  CD        10.9550  -22.3840   29.4130 C.3    68  PRO68       0.0939
     77  N         10.5950  -18.6080   21.6750 N.3    80  ILE80      -0.1245
     78  CA        10.9180  -17.4410   22.4730 C.3    80  ILE80       0.1561
     79  C         12.0500  -16.6400   21.8710 C.2    80  ILE80       0.2260
     80  O         11.9310  -15.4280   21.7350 O.2    80  ILE80      -0.2867
     81  CB        11.3310  -17.8140   23.9050 C.3    80  ILE80       0.0252
     82  CG1       10.1470  -18.4640   24.6460 C.3    80  ILE80       0.0019
     83  CG2       11.8490  -16.5860   24.6340 C.3    80  ILE80       0.0019
     84  CD1       10.5420  -19.2530   25.8850 C.3    80  ILE80       0.0001
     85  N         18.2440  -28.5680   32.1580 N.3    99  ARG99      -0.1245
     86  CA        16.8530  -28.8750   32.4380 C.3    99  ARG99       0.1563
     87  C         16.6630  -30.3590   32.1000 C.2    99  ARG99       0.2260
     88  O         17.3440  -30.9000   31.2000 O.2    99  ARG99      -0.2867
     89  CB        15.9600  -28.0400   31.5430 C.3    99  ARG99       0.0307
     90  CG        14.5270  -28.0300   32.0060 C.3    99  ARG99       0.0489
     91  CD        13.7190  -27.0200   31.2670 C.3    99  ARG99       0.2205
     92  NE        12.3300  -27.2540   31.5480 N.pl3  99  ARG99      -0.0865
     93  CZ        11.4740  -26.4720   32.1900 C.cat  99  ARG99       0.5346
     94  NH1       11.7520  -25.2400   32.5550 N.pl3  99  ARG99       0.1354
     95  NH2       10.2300  -26.9060   32.3110 N.pl3  99  ARG99       0.1354
     96  N         19.9830  -21.4740   32.8440 N.3   128  THR128     -0.1218
     97  CA        20.0690  -20.9570   31.4390 C.3   128  THR128      0.1862
     98  C         21.3550  -20.1470   31.2950 C.2   128  THR128      0.2287
     99  O         21.7520  -19.4380   32.2170 O.2   128  THR128     -0.2866
    100  CB        18.8850  -20.0310   31.1720 C.3   128  THR128      0.1770
    101  OG1       17.6900  -20.7230   31.4890 O.3   128  THR128     -0.2211
    102  CG2       18.8400  -19.4690   29.7440 C.3   128  THR128      0.0375
    103  N         22.9110  -17.5850   28.2770 N.3   130  ILE130     -0.1245
    104  CA        22.8310  -16.8820   26.9920 C.3   130  ILE130      0.1561
    105  C         24.1650  -16.1530   26.8220 C.2   130  ILE130      0.2260
    106  O         24.5960  -15.4210   27.7320 O.2   130  ILE130     -0.2867
    107  CB        21.6680  -15.8550   26.9530 C.3   130  ILE130      0.0252
    108  CG1       20.3290  -16.4960   27.2880 C.3   130  ILE130      0.0019
    109  CG2       21.5910  -15.0640   25.6310 C.3   130  ILE130      0.0019
    110  CD1       19.7970  -17.4060   26.2670 C.3   130  ILE130      0.0001
@<TRIPOS>BOND
     1    77    78    1
     2    80    79    2
     3    79    78    1
     4    78    81    1
     5    81    83    1
     6    81    82    1
     7    82    84    1
     8   109   107    1
     9   110   108    1
    10    73    72    2
    11     8     6    1
    12   105   104    1
    13   105   106    2
    14   107   104    1
    15   107   108    1
    16   104   103    1
    17     6     5    1
    18    72    71    1
    19    68    66    1
    20    69    67    1
    21    66    67    1
    22    66    63    1
    23    71    74    1
    24    71    70    1
    25    65    64    2
    26    74    75    1
    27     5     7    1
    28     5     2    1
    29     1     2    1
    30    15    14    2
    31    64    70   am
    32    64    63    1
    33    70    76    1
    34     2     3    1
    35    76    75    1
    36    63    62    1
    37   102   100    1
    38    14    16   am
    39    14    13    1
    40    32    33    1
    41    62    60   am
    42    38    36    1
    43     3     4    2
    44    35    34    2
    45   100    97    1
    46   100   101    1
    47    88    87    2
    48    36    33    1
    49    36    37    1
    50    13    10    1
    51    91    92    1
    52    91    90    1
    53    98    97    1
    54    98    99    2
    55    33    34    1
    56    97    96    1
    57    89    90    1
    58    89    86    1
    59    92    93    2
    60    60    61    2
    61    60    59    1
    62    87    86    1
    63    85    86    1
    64    93    95    1
    65    93    94    1
    66    59    58    1
    67     9    10    1
    68    10    11    1
    69    11    17   am
    70    11    12    2
    71    58    49   am
    72    17    18    1
    73    50    49    2
    74    22    21    1
    75    45    44   ar
    76    49    48    1
    77    39    40    1
    78    18    21    1
    79    18    19    1
    80    44    46   ar
    81    44    43    1
    82    42    41    2
    83    30    29   ar
    84    48    51    1
    85    48    47    1
    86    51    52    1
    87    40    43    1
    88    40    41    1
    89    19    20    2
    90    29    31   ar
    91    29    28    1
    92    56    55    1
    93    27    28    1
    94    27    24    1
    95    55    54    2
    96    55    57    1
    97    23    24    1
    98    54    53    1
    99    53    52    1
   100    24    25    1
   101    25    26    2
