@<TRIPOS>MOLECULE
tmp/5d6qB02.pdb
 125 117 0 0 0
SMALL
GASTEIGER

@<TRIPOS>ATOM
      1  N        -17.4680   -9.1840  -29.2940 N.3    32  ILE32      -0.1245
      2  CA       -17.7230  -10.6220  -29.5590 C.3    32  ILE32       0.1561
      3  C        -17.7790  -10.8190  -31.0830 C.2    32  ILE32       0.2260
      4  O        -17.2030  -11.7480  -31.6140 O.2    32  ILE32      -0.2867
      5  CB       -19.0520  -11.0550  -28.9400 C.3    32  ILE32       0.0252
      6  CG1      -19.0620  -10.9290  -27.3990 C.3    32  ILE32       0.0019
      7  CG2      -19.3950  -12.4360  -29.3870 C.3    32  ILE32       0.0019
      8  CD1      -17.9050  -11.6750  -26.7190 C.3    32  ILE32       0.0001
      9  N        -14.4270  -11.3740  -32.8430 N.3    35  ASN35      -0.1225
     10  CA       -13.8990  -12.7440  -32.8130 C.3    35  ASN35       0.1785
     11  C        -14.3630  -13.5400  -34.0360 C.2    35  ASN35       0.2597
     12  O        -13.5720  -14.2600  -34.6590 O.2    35  ASN35      -0.2718
     13  CB       -14.3760  -13.5430  -31.5620 C.3    35  ASN35       0.1169
     14  CG       -13.9740  -12.9640  -30.2550 C.2    35  ASN35       0.2627
     15  OD1      -13.0160  -12.2270  -30.1390 O.2    35  ASN35      -0.2716
     16  ND2      -14.7420  -13.3340  -29.2230 N.am   35  ASN35      -0.0877
     17  N        -15.6410  -13.3660  -34.4120 N.am   36  SER36      -0.1952
     18  CA       -16.1870  -14.0450  -35.5280 C.3    36  SER36       0.1924
     19  C        -15.5680  -13.5040  -36.8470 C.2    36  SER36       0.2314
     20  O        -15.2520  -14.2220  -37.7760 O.2    36  SER36      -0.2863
     21  CB       -17.6910  -13.8820  -35.6020 C.3    36  SER36       0.2116
     22  OG       -18.3560  -14.3660  -34.4760 O.3    36  SER36      -0.2180
     23  N        -12.2520  -14.9820  -37.3230 N.3    39  GLU39      -0.1245
     24  CA       -12.3700  -16.2950  -37.8630 C.3    39  GLU39       0.1567
     25  C        -12.6640  -16.3370  -39.3610 C.2    39  GLU39       0.2260
     26  O        -12.2000  -17.1860  -40.1160 O.2    39  GLU39      -0.2867
     27  CB       -13.4200  -17.0230  -37.0050 C.3    39  GLU39       0.0388
     28  CG       -13.3820  -18.4580  -36.9830 C.3    39  GLU39       0.1160
     29  CD       -12.0900  -19.1860  -36.5130 C.2    39  GLU39       0.3649
     30  OE1      -10.9540  -18.6980  -36.3580 O.co2  39  GLU39      -0.2457
     31  OE2      -12.2990  -20.4250  -36.5100 O.co2  39  GLU39      -0.2457
     32  N        -24.4260  -14.2000  -30.4460 N.3    60  VAL60      -0.1231
     33  CA       -23.6190  -14.1710  -31.6950 C.3    60  VAL60       0.1692
     34  C        -23.2370  -15.6260  -31.9790 C.2    60  VAL60       0.2593
     35  O        -22.6660  -16.3570  -31.1150 O.2    60  VAL60      -0.2718
     36  CB       -22.3410  -13.3460  -31.4520 C.3    60  VAL60       0.0266
     37  CG1      -21.4770  -13.3100  -32.7150 C.3    60  VAL60       0.0020
     38  CG2      -22.6720  -11.9030  -31.0240 C.3    60  VAL60       0.0020
     39  N        -23.3720  -15.9780  -33.2670 N.am   61  THR61      -0.1939
     40  CA       -23.0450  -17.3190  -33.7270 C.3    61  THR61       0.2028
     41  C        -22.1670  -17.1460  -35.0000 C.2    61  THR61       0.2642
     42  O        -22.4460  -16.3070  -35.8460 O.2    61  THR61      -0.2714
     43  CB       -24.3040  -18.0970  -34.1140 C.3    61  THR61       0.1808
     44  OG1      -25.1540  -18.1610  -32.9550 O.3    61  THR61      -0.2208
     45  CG2      -24.0280  -19.5140  -34.5240 C.3    61  THR61       0.0379
     46  N        -21.1790  -17.9990  -35.0990 N.am   62  ASP62      -0.1971
     47  CA       -20.4710  -18.1110  -36.4040 C.3    62  ASP62       0.1709
     48  C        -20.2780  -19.6270  -36.7310 C.2    62  ASP62       0.2293
     49  O        -20.4190  -20.4720  -35.8540 O.2    62  ASP62      -0.2864
     50  CB       -19.1160  -17.3010  -36.4380 C.3    62  ASP62       0.1436
     51  CG       -18.0650  -17.8080  -35.4900 C.2    62  ASP62       0.3671
     52  OD1      -17.6430  -17.0620  -34.5990 O.co2  62  ASP62      -0.2456
     53  OD2      -17.7130  -19.0100  -35.5370 O.co2  62  ASP62      -0.2456
     54  N        -14.2530  -22.5540  -36.6020 N.3    65  ARG65      -0.1231
     55  CA       -13.7710  -23.8630  -36.1000 C.3    65  ARG65       0.1694
     56  C        -14.3740  -24.2360  -34.7480 C.2    65  ARG65       0.2593
     57  O        -14.3950  -25.4760  -34.4170 O.2    65  ARG65      -0.2718
     58  CB       -12.2440  -23.8350  -35.9960 C.3    65  ARG65       0.0321
     59  CG       -11.5810  -23.7360  -37.3360 C.3    65  ARG65       0.0489
     60  CD       -10.1280  -23.4230  -37.1290 C.3    65  ARG65       0.2205
     61  NE        -9.8780  -22.0650  -36.7800 N.pl3  65  ARG65      -0.0865
     62  CZ        -8.6840  -21.5240  -36.5820 C.cat  65  ARG65       0.5346
     63  NH1       -8.5970  -20.2030  -36.3810 N.pl3  65  ARG65       0.1354
     64  NH2       -7.5560  -22.2600  -36.6770 N.pl3  65  ARG65       0.1354
     65  N        -14.7600  -23.2970  -33.9770 N.am   66  GLY66      -0.1942
     66  CA       -15.1930  -23.4990  -32.5610 C.3    66  GLY66       0.2014
     67  C        -13.9820  -23.2630  -31.6580 C.2    66  GLY66       0.2639
     68  O        -12.8400  -23.7100  -31.9390 O.2    66  GLY66      -0.2714
     69  N        -14.2040  -22.5360  -30.5520 N.am   67  ILE67      -0.1963
     70  CA       -13.1260  -22.1780  -29.6310 C.3    67  ILE67       0.1712
     71  C        -12.5580  -23.5170  -29.0940 C.2    67  ILE67       0.2458
     72  O        -13.3190  -24.4130  -28.7360 O.2    67  ILE67      -0.2730
     73  CB       -13.6300  -21.3320  -28.4360 C.3    67  ILE67       0.0289
     74  CG1      -14.2870  -20.0400  -28.9290 C.3    67  ILE67       0.0022
     75  CG2      -12.4980  -21.1120  -27.4680 C.3    67  ILE67       0.0023
     76  CD1      -14.9320  -19.2530  -27.8290 C.3    67  ILE67       0.0001
     77  N        -11.2030  -23.6760  -29.0140 N.am   68  PRO68      -0.2727
     78  CA       -10.7700  -24.9730  -28.5620 C.3    68  PRO68       0.1402
     79  C        -11.1810  -25.3270  -27.1250 C.2    68  PRO68       0.2269
     80  O        -11.2890  -24.4270  -26.2770 O.2    68  PRO68      -0.2865
     81  CB        -9.2360  -24.8100  -28.5570 C.3    68  PRO68       0.0296
     82  CG        -9.0190  -23.8720  -29.6900 C.3    68  PRO68       0.0237
     83  CD       -10.1060  -22.8980  -29.6290 C.3    68  PRO68       0.0939
     84  N         -9.9190  -18.6840  -21.9510 N.3    80  ILE80      -0.1231
     85  CA       -10.2270  -17.5720  -22.8460 C.3    80  ILE80       0.1692
     86  C        -11.4110  -16.7680  -22.3200 C.2    80  ILE80       0.2591
     87  O        -11.3040  -15.5000  -22.2370 O.2    80  ILE80      -0.2718
     88  CB       -10.4740  -18.0780  -24.2880 C.3    80  ILE80       0.0266
     89  CG1       -9.1960  -18.7080  -24.9010 C.3    80  ILE80       0.0019
     90  CG2      -11.0360  -16.9590  -25.1720 C.3    80  ILE80       0.0020
     91  CD1       -9.4810  -19.6980  -25.9950 C.3    80  ILE80       0.0001
     92  N        -12.5300  -17.4020  -21.9680 N.am   81  LEU81      -0.1980
     93  CA       -13.7320  -16.6520  -21.5980 C.3    81  LEU81       0.1596
     94  C        -13.5700  -15.9940  -20.2180 C.2    81  LEU81       0.2287
     95  O        -14.1290  -14.9040  -19.9830 O.2    81  LEU81      -0.2864
     96  CB       -15.0460  -17.4440  -21.7770 C.3    81  LEU81       0.0297
     97  CG       -15.2810  -17.6520  -23.2850 C.3    81  LEU81       0.0022
     98  CD1      -16.5500  -18.4570  -23.4550 C.3    81  LEU81       0.0001
     99  CD2      -15.4390  -16.3530  -24.0990 C.3    81  LEU81       0.0001
    100  N        -17.6090  -28.5810  -31.9600 N.3    99  ARG99      -0.1245
    101  CA       -16.3180  -29.0130  -32.3800 C.3    99  ARG99       0.1563
    102  C        -16.2000  -30.5110  -32.0820 C.2    99  ARG99       0.2260
    103  O        -16.7920  -30.9640  -31.1100 O.2    99  ARG99      -0.2867
    104  CB       -15.3000  -28.2270  -31.5240 C.3    99  ARG99       0.0307
    105  CG       -13.9190  -28.2830  -31.8520 C.3    99  ARG99       0.0489
    106  CD       -13.1720  -27.2530  -31.0480 C.3    99  ARG99       0.2205
    107  NE       -11.8470  -27.6320  -31.2840 N.pl3  99  ARG99      -0.0865
    108  CZ       -10.9930  -27.0860  -32.0990 C.cat  99  ARG99       0.5346
    109  NH1      -11.2170  -25.9340  -32.6850 N.pl3  99  ARG99       0.1354
    110  NH2       -9.8220  -27.7060  -32.2480 N.pl3  99  ARG99       0.1354
    111  N        -19.0890  -21.4460  -33.0610 N.3   128  THR128     -0.1218
    112  CA       -19.3110  -21.0190  -31.6650 C.3   128  THR128      0.1862
    113  C        -20.5830  -20.2360  -31.5780 C.2   128  THR128      0.2287
    114  O        -20.8740  -19.3780  -32.4380 O.2   128  THR128     -0.2866
    115  CB       -18.0930  -20.1890  -31.1520 C.3   128  THR128      0.1770
    116  OG1      -16.8290  -20.8860  -31.4310 O.3   128  THR128     -0.2211
    117  CG2      -18.1930  -19.8750  -29.7060 C.3   128  THR128      0.0375
    118  N        -22.0450  -17.5370  -28.5790 N.3   130  ILE130     -0.1245
    119  CA       -21.8310  -16.7680  -27.3400 C.3   130  ILE130      0.1561
    120  C        -23.1350  -16.0180  -27.1150 C.2   130  ILE130      0.2260
    121  O        -23.5460  -15.2510  -27.9970 O.2   130  ILE130     -0.2867
    122  CB       -20.6360  -15.7340  -27.4320 C.3   130  ILE130      0.0252
    123  CG1      -19.3040  -16.4550  -27.5290 C.3   130  ILE130      0.0019
    124  CG2      -20.5770  -14.8190  -26.1980 C.3   130  ILE130      0.0019
    125  CD1      -18.8400  -16.9280  -26.2080 C.3   130  ILE130      0.0001
@<TRIPOS>BOND
     1    26    25    2
     2    25    24    1
     3    24    23    1
     4    24    27    1
     5    20    19    2
     6    59    60    1
     7    59    58    1
     8    60    61    1
     9    27    28    1
    10    28    29    1
    11    19    18    1
    12    61    62    2
    13    48    47    1
    14    48    49    2
    15    64    62    1
    16    54    55    1
    17    62    63    1
    18    29    31   ar
    19    29    30   ar
    20    50    47    1
    21    50    51    1
    22    47    46    1
    23    55    58    1
    24    55    56    1
    25    42    41    2
    26    21    18    1
    27    21    22    1
    28    53    51   ar
    29    18    17    1
    30    51    52   ar
    31    46    41   am
    32    41    40    1
    33    56    57    2
    34    56    65   am
    35    12    11    2
    36    45    43    1
    37    17    11   am
    38    43    40    1
    39    43    44    1
    40    11    10    1
    41    65    66    1
    42    40    39    1
    43    39    34   am
    44   111   112    1
    45     9    10    1
    46    10    13    1
    47    37    36    1
    48   109   108    1
    49    66    67    1
    50   114   113    2
    51   101   102    1
    52   101   100    1
    53   101   104    1
    54   110   108    1
    55   108   107    2
    56   102   103    2
    57    34    33    1
    58    34    35    2
    59    68    67    2
    60   105   104    1
    61   105   106    1
    62    33    36    1
    63    33    32    1
    64   112   113    1
    65   112   115    1
    66    67    69   am
    67     4     3    2
    68    13    14    1
    69    36    38    1
    70   116   115    1
    71   107   106    1
    72   115   117    1
    73     3     2    1
    74    69    70    1
    75    14    15    2
    76    14    16   am
    77    82    83    1
    78    82    81    1
    79    70    71    1
    80    70    73    1
    81    83    77    1
    82     2     1    1
    83     2     5    1
    84     7     5    1
    85    71    77   am
    86    71    72    2
    87    77    78    1
    88     5     6    1
    89    74    73    1
    90    74    76    1
    91   118   119    1
    92    78    81    1
    93    78    79    1
    94    73    75    1
    95   121   120    2
    96   123   122    1
    97   123   125    1
    98   122   119    1
    99   122   124    1
   100     6     8    1
   101   119   120    1
   102    79    80    2
   103    91    89    1
   104    90    88    1
   105    89    88    1
   106    88    85    1
   107    99    97    1
   108    98    97    1
   109    97    96    1
   110    85    86    1
   111    85    84    1
   112    86    87    2
   113    86    92   am
   114    92    93    1
   115    96    93    1
   116    93    94    1
   117    94    95    2
