@<TRIPOS>MOLECULE
tmp/5d6rA00.pdb
 180 175 0 0 0
SMALL
GASTEIGER

@<TRIPOS>ATOM
      1  N          2.2190   27.5010   -3.7450 N.3    84  THR84      -0.1218
      2  CA         1.7430   28.0420   -5.0160 C.3    84  THR84       0.1862
      3  C          2.9290   28.4570   -5.8770 C.2    84  THR84       0.2287
      4  O          2.9430   28.2230   -7.0870 O.2    84  THR84      -0.2866
      5  CB         0.8000   29.2440   -4.8140 C.3    84  THR84       0.1770
      6  OG1       -0.3820   28.8130   -4.1260 O.3    84  THR84      -0.2211
      7  CG2        0.4010   29.8600   -6.1540 C.3    84  THR84       0.0375
      8  N         -1.0890   37.6110  -14.8170 N.3   386  MET386     -0.1230
      9  CA        -2.2520   36.9290  -15.3840 C.3   386  MET386      0.1702
     10  C         -3.5120   37.7910  -15.2990 C.2   386  MET386      0.2593
     11  O         -3.8020   38.3920  -14.2650 O.2   386  MET386     -0.2718
     12  CB        -2.4790   35.5910  -14.6780 C.3   386  MET386      0.0401
     13  CG        -3.6400   34.7790  -15.2360 C.3   386  MET386      0.0596
     14  SD        -3.6030   34.5860  -17.0320 S.3   386  MET386     -0.1393
     15  CE        -2.1030   33.6420  -17.2630 C.3   386  MET386      0.0692
     16  N         -4.2530   37.8350  -16.4030 N.am  387  GLY387     -0.1942
     17  CA        -5.4490   38.6520  -16.5160 C.3   387  GLY387      0.2014
     18  C         -5.8170   38.8660  -17.9730 C.2   387  GLY387      0.2640
     19  O         -5.3230   38.1620  -18.8490 O.2   387  GLY387     -0.2714
     20  N         -6.6920   39.8290  -18.2410 N.am  388  SER388     -0.1935
     21  CA        -7.1170   40.1010  -19.6110 C.3   388  SER388      0.2055
     22  C         -5.9760   40.6930  -20.4370 C.2   388  SER388      0.2643
     23  O         -5.8160   40.3700  -21.6130 O.2   388  SER388     -0.2714
     24  CB        -8.3170   41.0450  -19.6190 C.3   388  SER388      0.2130
     25  OG        -9.4660   40.4020  -19.0970 O.3   388  SER388     -0.2179
     26  N         -5.1950   41.5660  -19.8090 N.am  389  PHE389     -0.1973
     27  CA        -4.0180   42.1630  -20.4360 C.3   389  PHE389      0.1639
     28  C         -3.0650   41.0950  -20.9600 C.2   389  PHE389      0.2290
     29  O         -2.3860   41.2920  -21.9680 O.2   389  PHE389     -0.2864
     30  CB        -3.2860   43.0570  -19.4360 C.3   389  PHE389      0.0560
     31  CG        -2.8690   42.3420  -18.1910 C.ar  389  PHE389     -0.0200
     32  CD1       -1.6220   41.7490  -18.0980 C.ar  389  PHE389     -0.0042
     33  CD2       -3.7330   42.2480  -17.1150 C.ar  389  PHE389     -0.0042
     34  CE1       -1.2450   41.0840  -16.9530 C.ar  389  PHE389     -0.0003
     35  CE2       -3.3630   41.5850  -15.9700 C.ar  389  PHE389     -0.0003
     36  CZ        -2.1220   41.0000  -15.8880 C.ar  389  PHE389     -0.0000
     37  N         -0.2970   27.3480  -14.8160 N.3   411  GLN411     -0.1231
     38  CA        -1.1430   27.3790  -13.6270 C.3   411  GLN411      0.1698
     39  C         -2.0070   28.6380  -13.6040 C.2   411  GLN411      0.2592
     40  O         -2.9610   28.7300  -12.8350 O.2   411  GLN411     -0.2718
     41  CB        -0.2890   27.3090  -12.3570 C.3   411  GLN411      0.0381
     42  CG         0.3360   25.9460  -12.1030 C.3   411  GLN411      0.0905
     43  CD        -0.6930   24.8690  -11.8220 C.2   411  GLN411      0.2608
     44  OE1       -1.7940   25.1530  -11.3500 O.2   411  GLN411     -0.2717
     45  NE2       -0.3390   23.6230  -12.1130 N.am  411  GLN411     -0.0878
     46  N         -1.6610   29.6000  -14.4540 N.am  412  GLN412     -0.1966
     47  CA        -2.3880   30.8620  -14.5540 C.3   412  GLN412      0.1733
     48  C         -2.3910   31.5990  -13.2200 C.2   412  GLN412      0.2617
     49  O         -3.3740   32.2380  -12.8480 O.2   412  GLN412     -0.2715
     50  CB        -3.8230   30.6250  -15.0340 C.3   412  GLN412      0.0408
     51  CG        -3.9110   29.8990  -16.3670 C.3   412  GLN412      0.0908
     52  CD        -5.3310   29.5100  -16.7280 C.2   412  GLN412      0.2608
     53  OE1       -6.1250   30.3470  -17.1550 O.2   412  GLN412     -0.2717
     54  NE2       -5.6570   28.2330  -16.5600 N.am  412  GLN412     -0.0878
     55  N         -1.2720   31.5040  -12.5090 N.am  413  THR413     -0.1937
     56  CA        -1.1150   32.1630  -11.2210 C.3   413  THR413      0.2028
     57  C         -1.0070   33.6740  -11.3840 C.2   413  THR413      0.2642
     58  O         -0.2400   34.1600  -12.2160 O.2   413  THR413     -0.2714
     59  CB         0.1410   31.6520  -10.4940 C.3   413  THR413      0.1808
     60  OG1        0.1120   30.2220  -10.4340 O.3   413  THR413     -0.2208
     61  CG2        0.2310   32.2280   -9.0890 C.3   413  THR413      0.0379
     62  N         -1.7640   34.4110  -10.5780 N.am  414  MET414     -0.1976
     63  CA        -1.6840   35.8680  -10.5720 C.3   414  MET414      0.1605
     64  C         -0.6380   36.3400   -9.5610 C.2   414  MET414      0.2287
     65  O         -0.3040   35.6240   -8.6180 O.2   414  MET414     -0.2864
     66  CB        -3.0510   36.4850  -10.2670 C.3   414  MET414      0.0413
     67  CG        -3.5660   36.2130   -8.8760 C.3   414  MET414      0.0598
     68  SD        -5.3140   36.6340   -8.7040 S.3   414  MET414     -0.1393
     69  CE        -5.2880   38.3970   -8.9860 C.3   414  MET414      0.0692
     70  N         -2.4760   43.3240  -13.5390 N.3   438  GLY438     -0.1210
     71  CA        -3.7300   44.0050  -13.2870 C.3   438  GLY438      0.1956
     72  C         -3.7460   44.4850  -11.8500 C.2   438  GLY438      0.2612
     73  O         -2.7960   44.2530  -11.1050 O.2   438  GLY438     -0.2717
     74  N         -4.8210   45.1580  -11.4600 N.am  439  ASP439     -0.1959
     75  CA        -4.9630   45.6320  -10.0880 C.3   439  ASP439      0.1840
     76  C         -5.1580   44.4570   -9.1280 C.2   439  ASP439      0.2623
     77  O         -4.7010   44.4950   -7.9840 O.2   439  ASP439     -0.2715
     78  CB        -6.1230   46.6280   -9.9750 C.3   439  ASP439      0.1450
     79  CG        -7.3270   46.2280  -10.8070 C.2   439  ASP439      0.3671
     80  OD1       -7.5730   45.0140  -10.9600 O.co2 439  ASP439     -0.2456
     81  OD2       -8.0180   47.1310  -11.3220 O.co2 439  ASP439     -0.2456
     82  N         -5.8290   43.4110   -9.6010 N.am  440  GLY440     -0.1940
     83  CA        -6.0260   42.2110   -8.8080 C.3   440  GLY440      0.2014
     84  C         -4.7130   41.5130   -8.5040 C.2   440  GLY440      0.2639
     85  O         -4.3820   41.2750   -7.3420 O.2   440  GLY440     -0.2714
     86  N         -3.9640   41.1860   -9.5540 N.am  441  GLY441     -0.1954
     87  CA        -2.6950   40.4920   -9.4120 C.3   441  GLY441      0.1869
     88  C         -1.6580   41.3220   -8.6850 C.2   441  GLY441      0.2309
     89  O         -0.8450   40.7920   -7.9290 O.2   441  GLY441     -0.2863
     90  N         -1.6020   41.1460   -4.8540 N.3   444  GLN444     -0.1245
     91  CA        -1.2720   39.8320   -4.3030 C.3   444  GLN444      0.1566
     92  C          0.2270   39.6790   -4.0540 C.2   444  GLN444      0.2260
     93  O          0.6470   38.7930   -3.3100 O.2   444  GLN444     -0.2867
     94  CB        -1.7540   38.7150   -5.2320 C.3   444  GLN444      0.0367
     95  CG        -3.2730   38.5600   -5.2690 C.3   444  GLN444      0.0905
     96  CD        -3.7250   37.1210   -5.4660 C.2   444  GLN444      0.2608
     97  OE1       -2.9270   36.2440   -5.7960 O.2   444  GLN444     -0.2717
     98  NE2       -5.0150   36.8740   -5.2670 N.am  444  GLN444     -0.0878
     99  N         -2.7490   47.7780  -15.1950 N.3   464  TRP464     -0.1241
    100  CA        -3.9800   47.9950  -15.9450 C.3   464  TRP464      0.1605
    101  C         -5.1390   48.0580  -14.9520 C.2   464  TRP464      0.2264
    102  O         -5.5920   47.0280  -14.4520 O.2   464  TRP464     -0.2867
    103  CB        -4.2060   46.8870  -16.9790 C.3   464  TRP464      0.0550
    104  CG        -3.1750   46.8460  -18.0810 C.ar  464  TRP464      0.0003
    105  CD1       -1.8410   47.1130  -17.9690 C.ar  464  TRP464      0.0946
    106  CD2       -3.4040   46.5250  -19.4610 C.ar  464  TRP464      0.0152
    107  NE1       -1.2250   46.9740  -19.1890 N.ar  464  TRP464     -0.2442
    108  CE2       -2.1620   46.6140  -20.1210 C.ar  464  TRP464      0.0810
    109  CE3       -4.5360   46.1700  -20.2000 C.ar  464  TRP464      0.0012
    110  CZ2       -2.0210   46.3610  -21.4840 C.ar  464  TRP464      0.0191
    111  CZ3       -4.3940   45.9180  -21.5530 C.ar  464  TRP464      0.0001
    112  CH2       -3.1450   46.0140  -22.1800 C.ar  464  TRP464      0.0015
    113  N         -8.8320   48.5230  -13.7220 N.3   466  ASP466     -0.1239
    114  CA       -10.2560   48.4700  -14.0390 C.3   466  ASP466      0.1674
    115  C        -11.0780   48.3120  -12.7620 C.2   466  ASP466      0.2266
    116  O        -12.3080   48.2980  -12.8040 O.2   466  ASP466     -0.2867
    117  CB       -10.5600   47.3140  -14.9910 C.3   466  ASP466      0.1410
    118  CG       -10.5730   45.9710  -14.2870 C.2   466  ASP466      0.3668
    119  OD1      -11.5630   45.2260  -14.4480 O.co2 466  ASP466     -0.2456
    120  OD2       -9.6020   45.6650  -13.5620 O.co2 466  ASP466     -0.2456
    121  N        -11.3590   45.5890  -10.8070 N.3   468  GLY468     -0.1210
    122  CA       -12.1020   44.3420  -10.8540 C.3   468  GLY468      0.1956
    123  C        -11.3100   43.1790  -11.4230 C.2   468  GLY468      0.2612
    124  O        -10.1980   43.3520  -11.9160 O.2   468  GLY468     -0.2717
    125  N        -11.8940   41.9860  -11.3420 N.am  469  TYR469     -0.1962
    126  CA       -11.3220   40.7850  -11.9430 C.3   469  TYR469      0.1771
    127  C        -11.9240   40.5800  -13.3280 C.2   469  TYR469      0.2620
    128  O        -12.8590   39.7970  -13.5020 O.2   469  TYR469     -0.2715
    129  CB       -11.5900   39.5600  -11.0640 C.3   469  TYR469      0.0574
    130  CG       -10.9830   39.6390   -9.6800 C.ar  469  TYR469     -0.0198
    131  CD1       -9.6780   40.0740   -9.4930 C.ar  469  TYR469     -0.0009
    132  CD2      -11.7180   39.2790   -8.5600 C.ar  469  TYR469     -0.0009
    133  CE1       -9.1230   40.1450   -8.2300 C.ar  469  TYR469      0.0417
    134  CE2      -11.1720   39.3480   -7.2960 C.ar  469  TYR469      0.0417
    135  CZ        -9.8770   39.7800   -7.1360 C.ar  469  TYR469      0.1957
    136  OH        -9.3310   39.8490   -5.8760 O.3   469  TYR469     -0.2866
    137  N        -11.3790   41.2840  -14.3130 N.am  470  ASN470     -0.1958
    138  CA       -12.0200   41.3890  -15.6180 C.3   470  ASN470      0.1819
    139  C        -12.0400   40.0860  -16.4130 C.2   470  ASN470      0.2621
    140  O        -13.0630   39.7400  -17.0050 O.2   470  ASN470     -0.2715
    141  CB       -11.3370   42.4800  -16.4400 C.3   470  ASN470      0.1195
    142  CG       -11.9030   42.5960  -17.8380 C.2   470  ASN470      0.2630
    143  OD1      -11.3390   42.0620  -18.7920 O.2   470  ASN470     -0.2716
    144  ND2      -13.0270   43.2900  -17.9670 N.am  470  ASN470     -0.0877
    145  N        -10.9260   39.3610  -16.4240 N.am  471  MET471     -0.1963
    146  CA       -10.8300   38.1490  -17.2340 C.3   471  MET471      0.1736
    147  C        -11.8720   37.1190  -16.8120 C.2   471  MET471      0.2616
    148  O        -12.2820   36.2780  -17.6120 O.2   471  MET471     -0.2715
    149  CB        -9.4310   37.5400  -17.1410 C.3   471  MET471      0.0427
    150  CG        -9.1600   36.5000  -18.2180 C.3   471  MET471      0.0599
    151  SD        -7.4500   35.9340  -18.2610 S.3   471  MET471     -0.1393
    152  CE        -7.6270   34.2760  -17.6050 C.3   471  MET471      0.0692
    153  N        -12.2970   37.1920  -15.5540 N.am  472  VAL472     -0.1977
    154  CA       -13.3530   36.3240  -15.0480 C.3   472  VAL472      0.1596
    155  C        -14.7200   36.8790  -15.4300 C.2   472  VAL472      0.2287
    156  O        -15.6200   36.1290  -15.8070 O.2   472  VAL472     -0.2864
    157  CB       -13.2690   36.1710  -13.5160 C.3   472  VAL472      0.0276
    158  CG1      -14.4060   35.2940  -12.9910 C.3   472  VAL472      0.0022
    159  CG2      -11.9220   35.5960  -13.1130 C.3   472  VAL472      0.0022
    160  N        -15.9030   36.0370  -19.0170 N.3   475  GLN475     -0.1245
    161  CA       -16.3660   34.6600  -19.1310 C.3   475  GLN475      0.1566
    162  C        -17.7490   34.5240  -18.5080 C.2   475  GLN475      0.2260
    163  O        -18.5960   33.7830  -19.0060 O.2   475  GLN475     -0.2867
    164  CB       -15.3760   33.7040  -18.4620 C.3   475  GLN475      0.0367
    165  CG       -14.3560   33.1050  -19.4260 C.3   475  GLN475      0.0905
    166  CD       -13.0760   32.6450  -18.7430 C.2   475  GLN475      0.2608
    167  OE1      -12.6830   33.1750  -17.7020 O.2   475  GLN475     -0.2717
    168  NE2      -12.4170   31.6550  -19.3330 N.am  475  GLN475     -0.0878
    169  N        -11.9950   47.9710  -20.9890 N.3   535  TYR535     -0.1241
    170  CA       -11.9910   46.5890  -21.4530 C.3   535  TYR535      0.1605
    171  C        -13.2430   46.2510  -22.2660 C.2   535  TYR535      0.2264
    172  O        -13.5370   45.0800  -22.5030 O.2   535  TYR535     -0.2867
    173  CB       -11.8840   45.6350  -20.2540 C.3   535  TYR535      0.0534
    174  CG       -10.4820   45.3670  -19.7360 C.ar  535  TYR535     -0.0201
    175  CD1       -9.3950   45.2720  -20.5960 C.ar  535  TYR535     -0.0009
    176  CD2      -10.2540   45.1950  -18.3760 C.ar  535  TYR535     -0.0009
    177  CE1       -8.1240   45.0140  -20.1160 C.ar  535  TYR535      0.0417
    178  CE2       -8.9890   44.9380  -17.8880 C.ar  535  TYR535      0.0417
    179  CZ        -7.9270   44.8490  -18.7610 C.ar  535  TYR535      0.1957
    180  OH        -6.6650   44.5930  -18.2730 O.3   535  TYR535     -0.2866
@<TRIPOS>BOND
     1   172   171    2
     2   171   170    1
     3   112   111   ar
     4   112   110   ar
     5    29    28    2
     6    23    22    2
     7   111   109   ar
     8   110   108   ar
     9   170   169    1
    10   170   173    1
    11    28    27    1
    12   175   177   ar
    13   175   174   ar
    14    22    26   am
    15    22    21    1
    16    27    26    1
    17    27    30    1
    18   173   174    1
    19   109   106   ar
    20   108   106   ar
    21   108   107   ar
    22   177   179   ar
    23   174   176   ar
    24    24    21    1
    25    24    25    1
    26    21    20    1
    27   106   104   ar
    28    30    31    1
    29   165   166    1
    30   165   164    1
    31   168   166   am
    32   107   105   ar
    33   161   160    1
    34   161   162    1
    35   161   164    1
    36   163   162    2
    37    19    18    2
    38   143   142    2
    39   179   180    1
    40   179   178   ar
    41   166   167    2
    42   176   178   ar
    43   151   150    1
    44   151   152    1
    45    20    18   am
    46   150   149    1
    47    31    32   ar
    48    31    33   ar
    49    32    34   ar
    50   104   105   ar
    51   104   103    1
    52    18    17    1
    53   144   142   am
    54   142   141    1
    55   148   147    2
    56    15    14    1
    57   146   149    1
    58   146   147    1
    59   146   145    1
    60    53    52    2
    61    33    35   ar
    62    14    13    1
    63   140   139    2
    64   103   100    1
    65    34    36   ar
    66   147   153   am
    67    52    54   am
    68    52    51    1
    69    17    16    1
    70   141   138    1
    71   145   139   am
    72   139   138    1
    73    16    10   am
    74    51    50    1
    75    35    36   ar
    76   100    99    1
    77   100   101    1
    78   156   155    2
    79   138   137    1
    80   153   154    1
    81   155   154    1
    82     9    10    1
    83     9     8    1
    84     9    12    1
    85    10    11    2
    86    13    12    1
    87   154   157    1
    88    50    47    1
    89   117   118    1
    90   117   114    1
    91   101   102    2
    92    37    38    1
    93    47    46    1
    94    47    48    1
    95    46    39   am
    96   119   118   ar
    97   137   127   am
    98   118   120   ar
    99   114   113    1
   100   114   115    1
   101    38    39    1
   102    38    41    1
   103    39    40    2
   104    70    71    1
   105   157   159    1
   106   157   158    1
   107   128   127    2
   108   127   126    1
   109    71    72    1
   110    48    49    2
   111    48    55   am
   112   116   115    2
   113    55    56    1
   114    41    42    1
   115    58    57    2
   116    45    43   am
   117    42    43    1
   118   126   125    1
   119   126   129    1
   120   124   123    2
   121    72    74   am
   122    72    73    2
   123    43    44    2
   124    74    75    1
   125   123   125   am
   126   123   122    1
   127    57    56    1
   128    57    62   am
   129    81    79   ar
   130    56    59    1
   131   129   130    1
   132    80    79   ar
   133   122   121    1
   134    79    78    1
   135    62    63    1
   136    63    66    1
   137    63    64    1
   138    59    60    1
   139    59    61    1
   140    66    67    1
   141    75    78    1
   142    75    76    1
   143   130   131   ar
   144   130   132   ar
   145    82    76   am
   146    82    83    1
   147    64    65    2
   148    86    87    1
   149    86    84   am
   150   131   133   ar
   151    87    88    1
   152    76    77    2
   153    69    68    1
   154    67    68    1
   155    83    84    1
   156    88    89    2
   157   132   134   ar
   158    84    85    2
   159   133   135   ar
   160   134   135   ar
   161   135   136    1
   162     4     3    2
   163     7     5    1
   164     3     2    1
   165    97    96    2
   166    96    95    1
   167    96    98   am
   168    95    94    1
   169    94    91    1
   170     2     5    1
   171     2     1    1
   172    90    91    1
   173     5     6    1
   174    91    92    1
   175    92    93    2
