@<TRIPOS>MOLECULE
tmp/5d6tA00.pdb
 127 120 0 0 0
SMALL
GASTEIGER

@<TRIPOS>ATOM
      1  N         -9.1510    1.3010  -15.5420 N.3    10  PHE10      -0.1241
      2  CA        -8.9580    2.6140  -14.9400 C.3    10  PHE10       0.1605
      3  C         -9.4670    2.5580  -13.5080 C.2    10  PHE10       0.2264
      4  O        -10.5820    2.1020  -13.2600 O.2    10  PHE10      -0.2867
      5  CB        -9.6860    3.7000  -15.7420 C.3    10  PHE10       0.0534
      6  CG        -9.4950    5.0940  -15.1950 C.ar   10  PHE10      -0.0203
      7  CD1       -8.3790    5.8390  -15.5360 C.ar   10  PHE10      -0.0042
      8  CD2      -10.4390    5.6590  -14.3390 C.ar   10  PHE10      -0.0042
      9  CE1       -8.2100    7.1190  -15.0310 C.ar   10  PHE10      -0.0003
     10  CE2      -10.2690    6.9300  -13.8320 C.ar   10  PHE10      -0.0003
     11  CZ        -9.1570    7.6570  -14.1790 C.ar   10  PHE10      -0.0000
     12  N         -9.9690    4.8350  -10.1150 N.3    12  PRO12      -0.2116
     13  CA        -9.9330    5.9950   -9.2300 C.3    12  PRO12       0.1372
     14  C         -9.7750    5.4510   -7.8150 C.2    12  PRO12       0.2244
     15  O        -10.7640    5.1220   -7.1600 O.2    12  PRO12      -0.2868
     16  CB       -11.3000    6.6670   -9.4490 C.3    12  PRO12       0.0268
     17  CG       -12.0190    5.8260  -10.5060 C.3    12  PRO12       0.0207
     18  CD       -11.3490    4.4860  -10.4880 C.3    12  PRO12       0.0892
     19  N         -9.4410    5.9760   -4.4600 N.3    14  TYR14      -0.1241
     20  CA        -9.5160    6.9360   -3.3650 C.3    14  TYR14       0.1605
     21  C         -9.8780    6.2150   -2.0650 C.2    14  TYR14       0.2264
     22  O        -10.4590    6.7830   -1.1470 O.2    14  TYR14      -0.2867
     23  CB       -10.5110    8.0540   -3.7010 C.3    14  TYR14       0.0534
     24  CG       -10.2890    8.6260   -5.0920 C.ar   14  TYR14      -0.0201
     25  CD1       -9.0020    8.7560   -5.6200 C.ar   14  TYR14      -0.0009
     26  CD2      -11.3620    9.0080   -5.8850 C.ar   14  TYR14      -0.0009
     27  CE1       -8.7900    9.2660   -6.9080 C.ar   14  TYR14       0.0417
     28  CE2      -11.1630    9.5070   -7.1620 C.ar   14  TYR14       0.0417
     29  CZ        -9.8760    9.6400   -7.6720 C.ar   14  TYR14       0.1957
     30  OH        -9.6870   10.1390   -8.9440 O.3    14  TYR14      -0.2866
     31  N         -4.8130    9.9240   -4.5740 N.3    42  ASN42      -0.1240
     32  CA        -5.3700   11.2130   -4.1860 C.3    42  ASN42       0.1653
     33  C         -5.3140   11.4000   -2.6680 C.2    42  ASN42       0.2266
     34  O         -6.3090   11.1720   -1.9770 O.2    42  ASN42      -0.2867
     35  CB        -6.8210   11.3100   -4.6900 C.3    42  ASN42       0.1155
     36  CG        -7.4330   12.6750   -4.4730 C.2    42  ASN42       0.2627
     37  OD1       -6.7470   13.6220   -4.1110 O.2    42  ASN42      -0.2716
     38  ND2       -8.7350   12.7830   -4.7080 N.am   42  ASN42      -0.0877
     39  N         -7.3460   15.6570   -2.2130 N.3    45  SER45      -0.1217
     40  CA        -7.6910   16.4840   -3.3680 C.3    45  SER45       0.1889
     41  C         -6.4230   17.1110   -3.9360 C.2    45  SER45       0.2288
     42  O         -6.3610   18.3170   -4.1880 O.2    45  SER45      -0.2866
     43  CB        -8.7210   17.5480   -2.9890 C.3    45  SER45       0.2089
     44  OG        -9.9720   16.9250   -2.6830 O.3    45  SER45      -0.2183
     45  N         -3.7290   12.7360   -8.6600 N.3    75  TYR75      -0.1241
     46  CA        -4.9220   13.5790   -8.7480 C.3    75  TYR75       0.1605
     47  C         -4.5770   15.0470   -8.5090 C.2    75  TYR75       0.2264
     48  O         -3.9570   15.3880   -7.4990 O.2    75  TYR75      -0.2867
     49  CB        -5.9650   13.1160   -7.7280 C.3    75  TYR75       0.0534
     50  CG        -7.2280   13.9480   -7.6490 C.ar   75  TYR75      -0.0201
     51  CD1       -7.2400   15.1870   -7.0240 C.ar   75  TYR75      -0.0009
     52  CD2       -8.4230   13.4640   -8.1570 C.ar   75  TYR75      -0.0009
     53  CE1       -8.3940   15.9390   -6.9450 C.ar   75  TYR75       0.0417
     54  CE2       -9.5930   14.2100   -8.0700 C.ar   75  TYR75       0.0417
     55  CZ        -9.5660   15.4460   -7.4600 C.ar   75  TYR75       0.1957
     56  OH       -10.7130   16.1960   -7.3700 O.3    75  TYR75      -0.2866
     57  N         -3.6940   13.1890  -13.1810 N.3   113  PHE113     -0.1241
     58  CA        -5.1210   13.1220  -13.4560 C.3   113  PHE113      0.1605
     59  C         -5.7350   14.4810  -13.1030 C.2   113  PHE113      0.2264
     60  O         -5.7920   14.8490  -11.9380 O.2   113  PHE113     -0.2867
     61  CB        -5.7530   11.9810  -12.6440 C.3   113  PHE113      0.0534
     62  CG        -7.2620   11.8880  -12.7470 C.ar  113  PHE113     -0.0203
     63  CD1       -7.8680   11.1640  -13.7740 C.ar  113  PHE113     -0.0042
     64  CD2       -8.0760   12.4840  -11.7890 C.ar  113  PHE113     -0.0042
     65  CE1       -9.2760   11.0560  -13.8510 C.ar  113  PHE113     -0.0003
     66  CE2       -9.4750   12.3750  -11.8610 C.ar  113  PHE113     -0.0003
     67  CZ       -10.0680   11.6610  -12.8960 C.ar  113  PHE113     -0.0000
     68  N         -8.7230   16.6830  -12.4930 N.3   115  ASP115     -0.1225
     69  CA       -10.1510   16.5820  -12.2210 C.3   115  ASP115      0.1805
     70  C        -10.8740   17.8870  -12.5240 C.2   115  ASP115      0.2597
     71  O        -10.2780   18.9700  -12.5080 O.2   115  ASP115     -0.2718
     72  CB       -10.3840   16.1670  -10.7620 C.3   115  ASP115      0.1424
     73  CG       -11.7780   15.6210  -10.5240 C.2   115  ASP115      0.3668
     74  OD1      -12.4000   15.1140  -11.4840 O.co2 115  ASP115     -0.2456
     75  OD2      -12.2590   15.6890   -9.3720 O.co2 115  ASP115     -0.2456
     76  N        -12.1600   17.7640  -12.8250 N.am  116  GLU116     -0.1979
     77  CA       -13.0460   18.9050  -13.0190 C.3   116  GLU116      0.1602
     78  C        -12.6180   19.7840  -14.1800 C.2   116  GLU116      0.2287
     79  O        -12.6250   20.9960  -14.0440 O.2   116  GLU116     -0.2864
     80  CB       -13.1310   19.7730  -11.7440 C.3   116  GLU116      0.0415
     81  CG       -13.6430   19.0690  -10.5020 C.3   116  GLU116      0.1163
     82  CD       -13.0500   19.6380   -9.2000 C.2   116  GLU116      0.3649
     83  OE1      -11.9930   20.3250   -9.2460 O.co2 116  GLU116     -0.2457
     84  OE2      -13.6290   19.3680   -8.1250 O.co2 116  GLU116     -0.2457
     85  N        -10.5750   14.8720  -16.4990 N.3   151  ASN151     -0.1240
     86  CA       -11.9220   14.4160  -16.1360 C.3   151  ASN151      0.1653
     87  C        -12.9580   15.5390  -16.1410 C.2   151  ASN151      0.2266
     88  O        -13.2080   16.1720  -15.1120 O.2   151  ASN151     -0.2867
     89  CB       -11.9200   13.7410  -14.7680 C.3   151  ASN151      0.1155
     90  CG       -13.2940   13.1920  -14.3880 C.2   151  ASN151      0.2627
     91  OD1      -14.1250   12.9230  -15.2540 O.2   151  ASN151     -0.2716
     92  ND2      -13.5290   13.0160  -13.0920 N.am  151  ASN151     -0.0877
     93  N        -11.9390   11.3760  -19.4690 N.3   168  VAL168     -0.1245
     94  CA       -13.1140   10.6930  -18.9260 C.3   168  VAL168      0.1561
     95  C        -14.3690   11.3950  -19.4340 C.2   168  VAL168      0.2260
     96  O        -14.7520   12.4490  -18.9160 O.2   168  VAL168     -0.2867
     97  CB       -13.1180   10.6720  -17.3810 C.3   168  VAL168      0.0252
     98  CG1      -14.2250    9.7410  -16.8670 C.3   168  VAL168      0.0019
     99  CG2      -11.7520   10.2530  -16.8310 C.3   168  VAL168      0.0019
    100  N        -18.9260    9.7090  -16.6790 N.3   171  GLU171     -0.1245
    101  CA       -18.7300    9.4180  -15.2570 C.3   171  GLU171      0.1567
    102  C        -20.0530    9.5760  -14.5410 C.2   171  GLU171      0.2260
    103  O        -20.3840   10.6650  -14.0820 O.2   171  GLU171     -0.2867
    104  CB       -17.6830   10.3420  -14.6160 C.3   171  GLU171      0.0388
    105  CG       -17.4660   10.0300  -13.1360 C.3   171  GLU171      0.1160
    106  CD       -16.7690   11.1370  -12.3680 C.2   171  GLU171      0.3649
    107  OE1      -16.4760   12.2000  -12.9520 O.co2 171  GLU171     -0.2457
    108  OE2      -16.5380   10.9530  -11.1520 O.co2 171  GLU171     -0.2457
    109  N        -16.3250    5.8690  -16.9310 N.3   200  VAL200     -0.1245
    110  CA       -16.4920    5.4410  -15.5480 C.3   200  VAL200      0.1561
    111  C        -17.9700    5.1810  -15.2720 C.2   200  VAL200      0.2260
    112  O        -18.7910    6.0980  -15.3300 O.2   200  VAL200     -0.2867
    113  CB       -15.9350    6.4870  -14.5690 C.3   200  VAL200      0.0252
    114  CG1      -16.2870    6.1120  -13.1300 C.3   200  VAL200      0.0019
    115  CG2      -14.4260    6.6050  -14.7420 C.3   200  VAL200      0.0019
    116  N        -15.6850    5.0810   -5.2980 N.3   237  TYR237     -0.1241
    117  CA       -14.2580    5.3280   -5.5330 C.3   237  TYR237      0.1605
    118  C        -13.4570    5.0710   -4.2730 C.2   237  TYR237      0.2264
    119  O        -12.2420    5.2950   -4.2490 O.2   237  TYR237     -0.2867
    120  CB       -13.9890    6.7610   -5.9860 C.3   237  TYR237      0.0534
    121  CG       -14.7420    7.1960   -7.2100 C.ar  237  TYR237     -0.0201
    122  CD1      -15.0230    6.3030   -8.2320 C.ar  237  TYR237     -0.0009
    123  CD2      -15.1860    8.5040   -7.3360 C.ar  237  TYR237     -0.0009
    124  CE1      -15.7360    6.7050   -9.3560 C.ar  237  TYR237      0.0417
    125  CE2      -15.8880    8.9130   -8.4470 C.ar  237  TYR237      0.0417
    126  CZ       -16.1580    8.0120   -9.4550 C.ar  237  TYR237      0.1957
    127  OH       -16.8640    8.4160  -10.5620 O.3   237  TYR237     -0.2866
@<TRIPOS>BOND
     1    93    94    1
     2    95    94    1
     3    95    96    2
     4    94    97    1
     5    97    98    1
     6    97    99    1
     7   109   110    1
     8   100   101    1
     9    85    86    1
    10    87    86    1
    11    87    88    2
    12    86    89    1
    13     5     6    1
    14     5     2    1
    15   110   111    1
    16   110   113    1
    17     1     2    1
    18     7     6   ar
    19     7     9   ar
    20   112   111    2
    21   101   104    1
    22   101   102    1
    23    91    90    2
    24     6     8   ar
    25     9    11   ar
    26     2     3    1
    27    89    90    1
    28   115   113    1
    29   104   105    1
    30   113   114    1
    31   102   103    2
    32    90    92   am
    33     8    10   ar
    34    78    79    2
    35    78    77    1
    36    11    10   ar
    37    65    63   ar
    38    65    67   ar
    39    63    62   ar
    40     3     4    2
    41    58    57    1
    42    58    59    1
    43    58    61    1
    44   105   106    1
    45    59    60    2
    46    77    76    1
    47    77    80    1
    48   107   106   ar
    49    67    66   ar
    50    76    70   am
    51    62    61    1
    52    62    64   ar
    53    70    71    2
    54    70    69    1
    55    68    69    1
    56   106   108   ar
    57    69    72    1
    58    66    64   ar
    59    80    81    1
    60    74    73   ar
    61    72    73    1
    62   127   126    1
    63    73    75   ar
    64    17    18    1
    65    17    16    1
    66    81    82    1
    67    18    12    1
    68    12    13    1
    69   126   124   ar
    70   126   125   ar
    71    16    13    1
    72   124   122   ar
    73    83    82   ar
    74    13    14    1
    75    82    84   ar
    76    30    29    1
    77    46    45    1
    78    46    47    1
    79    46    49    1
    80    47    48    2
    81   125   123   ar
    82   122   121   ar
    83    52    54   ar
    84    52    50   ar
    85    54    55   ar
    86    14    15    2
    87    49    50    1
    88    29    28   ar
    89    29    27   ar
    90    50    51   ar
    91    55    56    1
    92    55    53   ar
    93   123   121   ar
    94   121   120    1
    95    28    26   ar
    96    51    53   ar
    97    27    25   ar
    98   120   117    1
    99    26    24   ar
   100    25    24   ar
   101   117   116    1
   102   117   118    1
   103    24    23    1
   104    38    36   am
   105    35    36    1
   106    35    32    1
   107    31    32    1
   108    36    37    2
   109    19    20    1
   110   118   119    2
   111    42    41    2
   112    32    33    1
   113    41    40    1
   114    23    20    1
   115    40    43    1
   116    40    39    1
   117    20    21    1
   118    43    44    1
   119    33    34    2
   120    21    22    2
