@<TRIPOS>MOLECULE
tmp/5d73A00.pdb
 128 125 0 0 0
SMALL
GASTEIGER

@<TRIPOS>ATOM
      1  N        -26.7320  -12.8040   -5.8570 N.3     6  TYR6       -0.1227
      2  CA       -25.3300  -12.4520   -5.8470 C.3     6  TYR6        0.1736
      3  C        -24.5030  -13.5770   -5.1860 C.2     6  TYR6        0.2595
      4  O        -25.0370  -14.5590   -4.7000 O.2     6  TYR6       -0.2718
      5  CB       -25.1370  -11.0990   -5.1310 C.3     6  TYR6        0.0548
      6  CG       -23.7820  -10.4310   -5.3360 C.ar    6  TYR6       -0.0200
      7  CD1      -23.3900   -9.9520   -6.5970 C.ar    6  TYR6       -0.0009
      8  CD2      -22.8910  -10.2750   -4.2760 C.ar    6  TYR6       -0.0009
      9  CE1      -22.1330   -9.3620   -6.7940 C.ar    6  TYR6        0.0417
     10  CE2      -21.6360   -9.6800   -4.4660 C.ar    6  TYR6        0.0417
     11  CZ       -21.2700   -9.2240   -5.7240 C.ar    6  TYR6        0.1957
     12  OH       -20.0580   -8.6270   -5.8930 O.3     6  TYR6       -0.2866
     13  N        -23.1850  -13.4370   -5.2290 N.am    7  PHE7       -0.1976
     14  CA       -22.2470  -14.3110   -4.5190 C.3     7  PHE7        0.1639
     15  C        -22.3340  -14.1370   -3.0060 C.2     7  PHE7        0.2290
     16  O        -22.8050  -13.1060   -2.5020 O.2     7  PHE7       -0.2864
     17  CB       -20.8170  -14.0390   -5.0410 C.3     7  PHE7        0.0560
     18  CG       -20.6990  -14.1970   -6.5450 C.ar    7  PHE7       -0.0200
     19  CD1      -20.7940  -15.4710   -7.1360 C.ar    7  PHE7       -0.0042
     20  CD2      -20.5420  -13.0850   -7.3760 C.ar    7  PHE7       -0.0042
     21  CE1      -20.7050  -15.6140   -8.5190 C.ar    7  PHE7       -0.0003
     22  CE2      -20.4530  -13.2150   -8.7500 C.ar    7  PHE7       -0.0003
     23  CZ       -20.5420  -14.4770   -9.3300 C.ar    7  PHE7       -0.0000
     24  N        -20.8280  -12.9280   -0.6480 N.3     9  ILE9       -0.1245
     25  CA       -19.9080  -11.9340   -0.1250 C.3     9  ILE9        0.1561
     26  C        -20.6600  -10.5910   -0.1460 C.2     9  ILE9        0.2260
     27  O        -21.7650  -10.4780   -0.7020 O.2     9  ILE9       -0.2867
     28  CB       -18.5640  -11.8540   -0.9400 C.3     9  ILE9        0.0252
     29  CG1      -18.7940  -11.1920   -2.3060 C.3     9  ILE9        0.0019
     30  CG2      -17.9150  -13.2390   -1.1350 C.3     9  ILE9        0.0019
     31  CD1      -17.5180  -10.9480   -3.0890 C.3     9  ILE9        0.0001
     32  N        -20.5070   -5.9220   -4.3260 N.3    12  LEU12      -0.1245
     33  CA       -21.3740   -4.9390   -4.9930 C.3    12  LEU12       0.1561
     34  C        -22.8300   -4.9800   -4.5790 C.2    12  LEU12       0.2260
     35  O        -23.5280   -4.0190   -4.8300 O.2    12  LEU12      -0.2867
     36  CB       -21.3140   -5.1000   -6.5190 C.3    12  LEU12       0.0270
     37  CG       -20.0040   -4.8560   -7.2820 C.3    12  LEU12       0.0019
     38  CD1      -20.1890   -5.2210   -8.7520 C.3    12  LEU12       0.0001
     39  CD2      -19.5670   -3.4090   -7.1600 C.3    12  LEU12       0.0001
     40  N        -22.6770  -21.2170  -10.4390 N.3    37  TRP37      -0.1241
     41  CA       -22.5840  -19.9970  -11.2470 C.3    37  TRP37       0.1605
     42  C        -22.4930  -20.2430  -12.7610 C.2    37  TRP37       0.2264
     43  O        -23.2770  -19.6310  -13.5180 O.2    37  TRP37      -0.2867
     44  CB       -21.4510  -19.0860  -10.7300 C.3    37  TRP37       0.0550
     45  CG       -21.1950  -17.8940  -11.5970 C.ar   37  TRP37       0.0003
     46  CD1      -19.9990  -17.5470  -12.1740 C.ar   37  TRP37       0.0946
     47  CD2      -22.1540  -16.9210  -12.0500 C.ar   37  TRP37       0.0152
     48  NE1      -20.1520  -16.4260  -12.9420 N.ar   37  TRP37      -0.2442
     49  CE2      -21.4620  -16.0210  -12.8960 C.ar   37  TRP37       0.0810
     50  CE3      -23.5300  -16.7300  -11.8370 C.ar   37  TRP37       0.0012
     51  CZ2      -22.0880  -14.9340  -13.5140 C.ar   37  TRP37       0.0191
     52  CZ3      -24.1590  -15.6310  -12.4640 C.ar   37  TRP37       0.0001
     53  CH2      -23.4240  -14.7480  -13.2800 C.ar   37  TRP37       0.0015
     54  N        -24.8910  -18.4090  -15.6310 N.3    41  LYS41      -0.1245
     55  CA       -24.2260  -17.2110  -16.1570 C.3    41  LYS41       0.1561
     56  C        -24.9410  -16.5770  -17.3450 C.2    41  LYS41       0.2260
     57  O        -25.0280  -15.3530  -17.4450 O.2    41  LYS41      -0.2867
     58  CB       -22.7670  -17.5060  -16.5260 C.3    41  LYS41       0.0271
     59  CG       -21.9760  -16.2940  -17.0070 C.3    41  LYS41       0.0035
     60  CD       -20.4860  -16.5960  -17.1880 C.3    41  LYS41       0.0206
     61  CE       -19.7610  -15.5370  -18.0540 C.3    41  LYS41       0.1093
     62  NZ       -19.8400  -14.1050  -17.5850 N.3    41  LYS41      -0.1314
     63  N        -24.2110  -11.3090  -18.2490 N.3    47  GLY47      -0.1210
     64  CA       -23.5520  -12.4480  -17.6530 C.3    47  GLY47       0.1956
     65  C        -22.8720  -12.1900  -16.3160 C.2    47  GLY47       0.2612
     66  O        -21.8910  -12.8310  -15.9870 O.2    47  GLY47      -0.2717
     67  N        -23.4130  -11.2570  -15.5400 N.am   48  GLN48      -0.1965
     68  CA       -22.8440  -10.9150  -14.2410 C.3    48  GLN48       0.1733
     69  C        -23.9620  -10.6470  -13.1920 C.2    48  GLN48       0.2616
     70  O        -25.1350  -10.4270  -13.5490 O.2    48  GLN48      -0.2715
     71  CB       -21.8920   -9.7000  -14.3780 C.3    48  GLN48       0.0408
     72  CG       -20.7170   -9.8960  -15.3340 C.3    48  GLN48       0.0908
     73  CD       -19.5180   -9.0070  -15.0150 C.2    48  GLN48       0.2608
     74  OE1      -18.4300   -9.4940  -14.7350 O.2    48  GLN48      -0.2717
     75  NE2      -19.7230   -7.7030  -15.0450 N.am   48  GLN48      -0.0878
     76  N        -23.5470  -10.6520  -11.9180 N.am   49  LEU49      -0.1964
     77  CA       -24.3970  -10.3820  -10.7390 C.3    49  LEU49       0.1713
     78  C        -23.8530   -9.1000  -10.1120 C.2    49  LEU49       0.2458
     79  O        -22.6660   -8.8560  -10.2480 O.2    49  LEU49      -0.2730
     80  CB       -24.3240  -11.5660   -9.7490 C.3    49  LEU49       0.0310
     81  CG       -24.8220  -12.9150  -10.2910 C.3    49  LEU49       0.0022
     82  CD1      -24.7900  -13.9670   -9.1930 C.3    49  LEU49       0.0001
     83  CD2      -26.2270  -12.8180  -10.8950 C.3    49  LEU49       0.0001
     84  N        -24.6490   -8.3010   -9.3920 N.am   50  PRO50      -0.2727
     85  CA       -25.9710   -8.6540   -8.8930 C.3    50  PRO50       0.1402
     86  C        -27.1230   -8.5310   -9.8480 C.2    50  PRO50       0.2269
     87  O        -27.0740   -7.7370  -10.7820 O.2    50  PRO50      -0.2865
     88  CB       -26.1890   -7.6370   -7.7420 C.3    50  PRO50       0.0296
     89  CG       -25.3480   -6.4840   -8.1220 C.3    50  PRO50       0.0237
     90  CD       -24.1140   -7.1200   -8.6860 C.3    50  PRO50       0.0939
     91  N        -27.1040   -4.7670  -12.9960 N.3    61  GLN61      -0.1231
     92  CA       -26.3180   -3.5480  -12.8390 C.3    61  GLN61       0.1698
     93  C        -26.6600   -2.8820  -11.5170 C.2    61  GLN61       0.2592
     94  O        -27.7580   -2.3610  -11.3210 O.2    61  GLN61      -0.2718
     95  CB       -26.4330   -2.5650  -14.0300 C.3    61  GLN61       0.0381
     96  CG       -25.8000   -3.0980  -15.3310 C.3    61  GLN61       0.0905
     97  CD       -24.2740   -3.0390  -15.3580 C.2    61  GLN61       0.2608
     98  OE1      -23.6470   -3.4590  -16.3560 O.2    61  GLN61      -0.2717
     99  NE2      -23.6640   -2.5000  -14.3030 N.am   61  GLN61      -0.0878
    100  N        -25.7090   -2.9450  -10.5970 N.am   62  SER62      -0.1952
    101  CA       -25.8870   -2.4810   -9.2290 C.3    62  SER62       0.1924
    102  C        -26.3970   -1.0550   -9.1500 C.2    62  SER62       0.2314
    103  O        -27.2650   -0.7520   -8.3170 O.2    62  SER62      -0.2863
    104  CB       -24.5730   -2.6120   -8.4320 C.3    62  SER62       0.2116
    105  OG       -23.5100   -1.8950   -9.0070 O.3    62  SER62      -0.2180
    106  N        -18.3290    5.0410   -5.7840 N.3    94  ARG94      -0.1245
    107  CA       -18.0340    3.9160   -6.6510 C.3    94  ARG94       0.1563
    108  C        -16.6420    4.0040   -7.2650 C.2    94  ARG94       0.2260
    109  O        -16.0230    2.9990   -7.5280 O.2    94  ARG94      -0.2867
    110  CB       -19.0940    3.8400   -7.7330 C.3    94  ARG94       0.0307
    111  CG       -20.5070    3.6070   -7.1800 C.3    94  ARG94       0.0489
    112  CD       -21.5150    3.3210   -8.2860 C.3    94  ARG94       0.2205
    113  NE       -21.1000    2.1220   -9.0370 N.pl3  94  ARG94      -0.0865
    114  CZ       -21.8750    1.3570   -9.8020 C.cat  94  ARG94       0.5346
    115  NH1      -23.1580    1.6190   -9.9620 N.pl3  94  ARG94       0.1354
    116  NH2      -21.3490    0.2990  -10.4110 N.pl3  94  ARG94       0.1354
    117  N         -7.6610   -7.2250   -5.1930 N.3   105  TYR105     -0.1241
    118  CA        -7.5130   -8.3650   -6.1150 C.3   105  TYR105      0.1605
    119  C         -6.1130   -8.4810   -6.7760 C.2   105  TYR105      0.2264
    120  O         -5.6410   -9.5750   -7.0440 O.2   105  TYR105     -0.2867
    121  CB        -8.6220   -8.3450   -7.1950 C.3   105  TYR105      0.0534
    122  CG       -10.0060   -8.6900   -6.6410 C.ar  105  TYR105     -0.0201
    123  CD1      -10.3680  -10.0150   -6.3370 C.ar  105  TYR105     -0.0009
    124  CD2      -10.9400   -7.6890   -6.3730 C.ar  105  TYR105     -0.0009
    125  CE1      -11.6320  -10.3200   -5.7970 C.ar  105  TYR105      0.0417
    126  CE2      -12.1820   -7.9830   -5.8310 C.ar  105  TYR105      0.0417
    127  CZ       -12.5400   -9.2940   -5.5440 C.ar  105  TYR105      0.1957
    128  OH       -13.8130   -9.5470   -5.0120 O.3   105  TYR105     -0.2866
@<TRIPOS>BOND
     1    63    64    1
     2    61    62    1
     3    61    60    1
     4    64    65    1
     5    57    56    2
     6    56    55    1
     7    60    59    1
     8    59    58    1
     9    58    55    1
    10    98    97    2
    11    65    66    2
    12    65    67   am
    13    55    54    1
    14    67    68    1
    15    97    96    1
    16    97    99   am
    17    72    73    1
    18    72    71    1
    19    96    95    1
    20    75    73   am
    21    73    74    2
    22    71    68    1
    23    68    69    1
    24    95    92    1
    25    70    69    2
    26    43    42    2
    27    51    53   ar
    28    51    49   ar
    29    53    52   ar
    30    69    76   am
    31    91    92    1
    32    48    49   ar
    33    48    46   ar
    34    49    47   ar
    35    92    93    1
    36    42    41    1
    37    52    50   ar
    38    46    45   ar
    39    47    50   ar
    40    47    45   ar
    41    76    77    1
    42    45    44    1
    43    93    94    2
    44    93   100   am
    45    41    44    1
    46    41    40    1
    47    83    81    1
    48    87    86    2
    49    77    78    1
    50    77    80    1
    51   100   101    1
    52   116   114    1
    53    81    80    1
    54    81    82    1
    55    79    78    2
    56    78    84   am
    57   115   114    1
    58    86    85    1
    59   114   113    2
    60    84    85    1
    61    84    90    1
    62    23    22   ar
    63    23    21   ar
    64   101   102    1
    65   101   104    1
    66   102   103    2
    67   113   112    1
    68   105   104    1
    69    85    88    1
    70    38    37    1
    71    22    20   ar
    72    90    89    1
    73    21    19   ar
    74   112   111    1
    75    89    88    1
    76   110   111    1
    77   110   107    1
    78   109   108    2
    79    20    18   ar
    80    37    39    1
    81    37    36    1
    82   108   107    1
    83   121   122    1
    84   121   118    1
    85    19    18   ar
    86   120   119    2
    87     9     7   ar
    88     9    11   ar
    89   119   118    1
    90   107   106    1
    91   122   124   ar
    92   122   123   ar
    93     7     6   ar
    94    18    17    1
    95    36    33    1
    96   124   126   ar
    97   123   125   ar
    98   118   117    1
    99    12    11    1
   100     1     2    1
   101     2     3    1
   102     2     5    1
   103   126   127   ar
   104   125   127   ar
   105    11    10   ar
   106   127   128    1
   107     6     5    1
   108     6     8   ar
   109    13     3   am
   110    13    14    1
   111     3     4    2
   112    17    14    1
   113    33    34    1
   114    33    32    1
   115    35    34    2
   116    14    15    1
   117    10     8   ar
   118    31    29    1
   119    15    16    2
   120    29    28    1
   121    30    28    1
   122    28    25    1
   123    27    26    2
   124    24    25    1
   125    26    25    1
