@<TRIPOS>MOLECULE
tmp/5d75A00.pdb
 158 153 0 0 0
SMALL
GASTEIGER

@<TRIPOS>ATOM
      1  N         -3.8090  -22.3800   -3.4470 N.3    27  TYR27      -0.1241
      2  CA        -3.3430  -22.0140   -2.1080 C.3    27  TYR27       0.1605
      3  C         -3.4180  -20.5340   -1.8090 C.2    27  TYR27       0.2264
      4  O         -3.4010  -19.7180   -2.7400 O.2    27  TYR27      -0.2867
      5  CB        -1.9070  -22.5020   -1.8890 C.3    27  TYR27       0.0534
      6  CG        -0.8890  -21.7460   -2.6920 C.ar   27  TYR27      -0.0201
      7  CD1       -0.5400  -22.1620   -3.9890 C.ar   27  TYR27      -0.0009
      8  CD2       -0.2610  -20.6120   -2.1590 C.ar   27  TYR27      -0.0009
      9  CE1        0.3800  -21.4560   -4.7410 C.ar   27  TYR27       0.0417
     10  CE2        0.6580  -19.8880   -2.9100 C.ar   27  TYR27       0.0417
     11  CZ         0.9740  -20.3250   -4.1890 C.ar   27  TYR27       0.1957
     12  OH         1.9010  -19.6430   -4.9100 O.3    27  TYR27      -0.2866
     13  N          0.8960  -13.1540    1.9130 N.3    37  PHE37      -0.1227
     14  CA         2.1230  -12.9790    1.1330 C.3    37  PHE37       0.1736
     15  C          2.0050  -13.5520   -0.2720 C.2    37  PHE37       0.2595
     16  O          2.7700  -13.1810   -1.1580 O.2    37  PHE37      -0.2718
     17  CB         3.3740  -13.5260    1.8550 C.3    37  PHE37       0.0547
     18  CG         3.2860  -14.9880    2.2180 C.ar   37  PHE37      -0.0202
     19  CD1        3.5650  -15.9900    1.2600 C.ar   37  PHE37      -0.0042
     20  CD2        2.9450  -15.3750    3.5260 C.ar   37  PHE37      -0.0042
     21  CE1        3.4930  -17.3460    1.6130 C.ar   37  PHE37      -0.0003
     22  CE2        2.8780  -16.7300    3.8840 C.ar   37  PHE37      -0.0003
     23  CZ         3.1560  -17.7140    2.9200 C.ar   37  PHE37      -0.0000
     24  N          1.0590  -14.4620   -0.4770 N.am   38  ASP38      -0.1974
     25  CA         0.8750  -15.0700   -1.7990 C.3    38  ASP38       0.1709
     26  C         -0.4210  -15.8050   -1.8950 C.2    38  ASP38       0.2293
     27  O         -0.9700  -16.3010   -0.8990 O.2    38  ASP38      -0.2864
     28  CB         2.0090  -16.0460   -2.1250 C.3    38  ASP38       0.1436
     29  CG         2.1070  -16.3980   -3.6140 C.2    38  ASP38       0.3671
     30  OD1        1.5110  -15.7020   -4.4820 O.co2  38  ASP38      -0.2456
     31  OD2        2.8300  -17.3750   -3.9290 O.co2  38  ASP38      -0.2456
     32  N         -2.2810  -18.2720   -5.3820 N.3    40  ASN40      -0.1240
     33  CA        -2.4010  -18.5240   -6.7950 C.3    40  ASN40       0.1653
     34  C         -3.8700  -18.4930   -7.2220 C.2    40  ASN40       0.2266
     35  O         -4.1910  -18.8440   -8.3560 O.2    40  ASN40      -0.2867
     36  CB        -1.6840  -19.8030   -7.2390 C.3    40  ASN40       0.1155
     37  CG        -2.3720  -21.0660   -6.7580 C.2    40  ASN40       0.2627
     38  OD1       -3.2290  -21.0360   -5.8780 O.2    40  ASN40      -0.2716
     39  ND2       -1.9890  -22.1890   -7.3440 N.am   40  ASN40      -0.0877
     40  N         -1.3040  -24.8460   -9.0040 N.3    54  LEU54      -0.1245
     41  CA         0.1170  -25.1400   -8.9380 C.3    54  LEU54       0.1561
     42  C          0.3190  -26.6530   -9.0590 C.2    54  LEU54       0.2260
     43  O         -0.3550  -27.4290   -8.3530 O.2    54  LEU54      -0.2867
     44  CB         0.7280  -24.6100   -7.6270 C.3    54  LEU54       0.0270
     45  CG         2.1620  -25.0690   -7.3180 C.3    54  LEU54       0.0019
     46  CD1        3.1940  -24.3280   -8.1800 C.3    54  LEU54       0.0001
     47  CD2        2.4390  -24.9060   -5.8370 C.3    54  LEU54       0.0001
     48  N          3.2190  -29.7880   -8.9210 N.3    56  PHE56      -0.1241
     49  CA         4.5750  -30.2090   -8.5580 C.3    56  PHE56       0.1605
     50  C          4.5960  -31.6750   -8.1800 C.2    56  PHE56       0.2264
     51  O          3.5730  -32.2520   -7.7710 O.2    56  PHE56      -0.2867
     52  CB         5.1650  -29.3500   -7.4230 C.3    56  PHE56       0.0534
     53  CG         4.4220  -29.4630   -6.1240 C.ar   56  PHE56      -0.0203
     54  CD1        3.3110  -28.6420   -5.8640 C.ar   56  PHE56      -0.0042
     55  CD2        4.8310  -30.3830   -5.1400 C.ar   56  PHE56      -0.0042
     56  CE1        2.6250  -28.7460   -4.6490 C.ar   56  PHE56      -0.0003
     57  CE2        4.1460  -30.4890   -3.9260 C.ar   56  PHE56      -0.0003
     58  CZ         3.0490  -29.6640   -3.6870 C.ar   56  PHE56      -0.0000
     59  N         11.3120  -32.9180   -2.3070 N.3    61  GLY61      -0.1210
     60  CA        12.0310  -31.6810   -2.0310 C.3    61  GLY61       0.1956
     61  C         11.7770  -30.5120   -2.9680 C.2    61  GLY61       0.2612
     62  O         12.5230  -29.5370   -2.9330 O.2    61  GLY61      -0.2717
     63  N         10.7160  -30.5800   -3.7820 N.am   62  LYS62      -0.1965
     64  CA        10.3870  -29.4950   -4.7170 C.3    62  LYS62       0.1728
     65  C          9.6530  -28.3250   -4.0500 C.2    62  LYS62       0.2616
     66  O          9.5710  -27.2310   -4.6120 O.2    62  LYS62      -0.2715
     67  CB         9.5810  -30.0240   -5.9180 C.3    62  LYS62       0.0311
     68  CG        10.3770  -30.9500   -6.8420 C.3    62  LYS62       0.0038
     69  CD        11.4120  -30.2070   -7.6810 C.3    62  LYS62       0.0206
     70  CE        12.0450  -31.1120   -8.7430 C.3    62  LYS62       0.1093
     71  NZ        12.9350  -32.2050   -8.2500 N.3    62  LYS62      -0.1314
     72  N          9.1150  -28.5680   -2.8600 N.am   63  VAL63      -0.1963
     73  CA         8.4010  -27.5360   -2.0860 C.3    63  VAL63       0.1727
     74  C          8.9460  -27.5150   -0.6640 C.2    63  VAL63       0.2616
     75  O          9.6880  -28.4210   -0.2860 O.2    63  VAL63      -0.2715
     76  CB         6.8770  -27.7590   -2.0700 C.3    63  VAL63       0.0290
     77  CG1        6.2730  -27.4900   -3.4620 C.3    63  VAL63       0.0023
     78  CG2        6.5220  -29.1540   -1.5370 C.3    63  VAL63       0.0023
     79  N          8.6010  -26.4820    0.1120 N.am   64  ILE64      -0.1977
     80  CA         8.9950  -26.4210    1.5210 C.3    64  ILE64       0.1596
     81  C          8.5100  -27.6690    2.2610 C.2    64  ILE64       0.2287
     82  O          7.4870  -28.2790    1.8970 O.2    64  ILE64      -0.2864
     83  CB         8.5390  -25.1220    2.2410 C.3    64  ILE64       0.0276
     84  CG1        7.0190  -24.9000    2.1120 C.3    64  ILE64       0.0022
     85  CG2        9.3200  -23.9260    1.6920 C.3    64  ILE64       0.0022
     86  CD1        6.4400  -23.8930    3.1060 C.3    64  ILE64       0.0001
     87  N          4.8000  -28.4630    3.2860 N.3    67  TRP67      -0.1241
     88  CA         3.9520  -28.8960    2.1710 C.3    67  TRP67       0.1605
     89  C          4.2240  -30.3460    1.7320 C.2    67  TRP67       0.2264
     90  O          3.2670  -31.1020    1.5350 O.2    67  TRP67      -0.2867
     91  CB         4.1840  -28.0000    0.9680 C.3    67  TRP67       0.0550
     92  CG         3.3280  -26.7970    0.9290 C.ar   67  TRP67       0.0003
     93  CD1        3.3040  -25.7680    1.8340 C.ar   67  TRP67       0.0946
     94  CD2        2.3610  -26.4770   -0.0750 C.ar   67  TRP67       0.0152
     95  NE1        2.3860  -24.8110    1.4440 N.ar   67  TRP67      -0.2442
     96  CE2        1.7860  -25.2230    0.2810 C.ar   67  TRP67       0.0810
     97  CE3        1.9180  -27.1280   -1.2410 C.ar   67  TRP67       0.0012
     98  CZ2        0.7970  -24.5920   -0.5050 C.ar   67  TRP67       0.0191
     99  CZ3        0.9420  -26.5000   -2.0330 C.ar   67  TRP67       0.0001
    100  CH2        0.3870  -25.2470   -1.6540 C.ar   67  TRP67       0.0015
    101  N          9.6310  -24.4280    6.7870 N.3    89  ALA89      -0.1231
    102  CA         9.2790  -23.4080    5.8020 C.3    89  ALA89       0.1694
    103  C         10.5850  -22.7120    5.4050 C.2    89  ALA89       0.2592
    104  O         11.4620  -23.3700    4.8400 O.2    89  ALA89      -0.2718
    105  CB         8.2610  -22.4410    6.3910 C.3    89  ALA89       0.0304
    106  N         10.7320  -21.4120    5.7040 N.am   90  TYR90      -0.1976
    107  CA        11.9430  -20.6620    5.2810 C.3    90  TYR90       0.1639
    108  C         12.9720  -20.4230    6.3970 C.2    90  TYR90       0.2290
    109  O         14.0300  -19.8150    6.1470 O.2    90  TYR90      -0.2864
    110  CB        11.5540  -19.3530    4.5540 C.3    90  TYR90       0.0560
    111  CG        10.8710  -19.6600    3.2490 C.ar   90  TYR90      -0.0198
    112  CD1       11.6320  -19.9500    2.1170 C.ar   90  TYR90      -0.0009
    113  CD2        9.4820  -19.7130    3.1540 C.ar   90  TYR90      -0.0009
    114  CE1       11.0280  -20.2640    0.9080 C.ar   90  TYR90       0.0417
    115  CE2        8.8650  -20.0360    1.9390 C.ar   90  TYR90       0.0417
    116  CZ         9.6630  -20.3120    0.8320 C.ar   90  TYR90       0.1957
    117  OH         9.1210  -20.6380   -0.3750 O.3    90  TYR90      -0.2866
    118  N         12.2620  -15.2840    3.4690 N.3    95  GLN95      -0.1245
    119  CA        12.2460  -15.1470    2.0310 C.3    95  GLN95       0.1566
    120  C         12.0140  -13.6650    1.7350 C.2    95  GLN95       0.2260
    121  O         10.8840  -13.1910    1.8420 O.2    95  GLN95      -0.2867
    122  CB        11.1720  -16.0460    1.4100 C.3    95  GLN95       0.0367
    123  CG        11.6010  -16.6040    0.0600 C.3    95  GLN95       0.0905
    124  CD        11.7430  -15.5160   -0.9820 C.2    95  GLN95       0.2608
    125  OE1       10.8300  -14.6990   -1.1600 O.2    95  GLN95      -0.2717
    126  NE2       12.8850  -15.4880   -1.6720 N.am   95  GLN95      -0.0878
    127  N         11.9980  -11.6680   -1.0000 N.3    97  ASP97      -0.1225
    128  CA        11.1410  -11.2480   -2.1160 C.3    97  ASP97       0.1805
    129  C          9.6620  -11.2920   -1.7940 C.2    97  ASP97       0.2597
    130  O          8.9020  -10.4560   -2.2640 O.2    97  ASP97      -0.2718
    131  CB        11.4260  -12.0790   -3.3680 C.3    97  ASP97       0.1424
    132  CG        12.8870  -12.1760   -3.6560 C.2    97  ASP97       0.3668
    133  OD1       13.5680  -13.0610   -3.0880 O.co2  97  ASP97      -0.2456
    134  OD2       13.3650  -11.3330   -4.4240 O.co2  97  ASP97      -0.2456
    135  N          9.2640  -12.2600   -0.9700 N.am   98  ALA98      -0.1979
    136  CA         7.8850  -12.3910   -0.5460 C.3    98  ALA98       0.1597
    137  C          7.6330  -11.6630    0.7720 C.2    98  ALA98       0.2287
    138  O          6.5200  -11.7160    1.3040 O.2    98  ALA98      -0.2864
    139  CB         7.5300  -13.8660   -0.4200 C.3    98  ALA98       0.0319
    140  N          8.7870  -12.4880    3.6660 N.3   100  ILE100     -0.1245
    141  CA         8.6540  -13.4110    4.7920 C.3   100  ILE100      0.1561
    142  C          9.8650  -13.2100    5.7110 C.2   100  ILE100      0.2260
    143  O         10.9920  -13.4430    5.2860 O.2   100  ILE100     -0.2867
    144  CB         8.5020  -14.8660    4.3180 C.3   100  ILE100      0.0252
    145  CG1        7.1290  -15.0130    3.6310 C.3   100  ILE100      0.0019
    146  CG2        8.6840  -15.8420    5.4860 C.3   100  ILE100      0.0019
    147  CD1        6.9690  -16.2880    2.8400 C.3   100  ILE100      0.0001
    148  N         -0.9470  -21.7960    5.4660 N.3   108  PHE108     -0.1241
    149  CA        -1.4160  -21.9560    4.0890 C.3   108  PHE108      0.1605
    150  C         -2.7680  -22.6390    4.0930 C.2   108  PHE108      0.2264
    151  O         -2.9560  -23.6360    4.7990 O.2   108  PHE108     -0.2867
    152  CB        -0.4700  -22.8380    3.2700 C.3   108  PHE108      0.0534
    153  CG         0.8210  -22.1970    2.8580 C.ar  108  PHE108     -0.0203
    154  CD1        0.9260  -21.5490    1.6310 C.ar  108  PHE108     -0.0042
    155  CD2        1.9780  -22.3260    3.6560 C.ar  108  PHE108     -0.0042
    156  CE1        2.1320  -20.9890    1.2100 C.ar  108  PHE108     -0.0003
    157  CE2        3.1850  -21.7820    3.2370 C.ar  108  PHE108     -0.0003
    158  CZ         3.2710  -21.1100    2.0070 C.ar  108  PHE108     -0.0000
@<TRIPOS>BOND
     1    42    41    1
     2    42    43    2
     3    40    41    1
     4    41    44    1
     5    48    49    1
     6    70    71    1
     7    70    69    1
     8    49    50    1
     9    49    52    1
    10    35    34    2
    11    46    45    1
    12    50    51    2
    13    69    68    1
    14    44    45    1
    15    52    53    1
    16    39    37   am
    17    45    47    1
    18    36    33    1
    19    36    37    1
    20    34    33    1
    21    68    67    1
    22    33    32    1
    23    37    38    2
    24    53    54   ar
    25    53    55   ar
    26    67    64    1
    27    54    56   ar
    28    55    57   ar
    29    12    11    1
    30     9    11   ar
    31     9     7   ar
    32    64    65    1
    33    64    63    1
    34    56    58   ar
    35    66    65    2
    36    30    29   ar
    37   134   132   ar
    38    11    10   ar
    39    65    72   am
    40     7     6   ar
    41    31    29   ar
    42    57    58   ar
    43    63    61   am
    44   132   131    1
    45   132   133   ar
    46    29    28    1
    47    77    76    1
    48     1     2    1
    49   131   128    1
    50    61    62    2
    51    61    60    1
    52    10     8   ar
    53    72    73    1
    54     4     3    2
    55     6     8   ar
    56     6     5    1
    57    59    60    1
    58   130   129    2
    59    28    25    1
    60   128   129    1
    61   128   127    1
    62     2     5    1
    63     2     3    1
    64    73    76    1
    65    73    74    1
    66    76    78    1
    67    99   100   ar
    68    99    97   ar
    69    26    25    1
    70    26    27    2
    71    25    24    1
    72   129   135   am
    73   126   124   am
    74   100    98   ar
    75    97    94   ar
    76   125   124    2
    77    16    15    2
    78   124   123    1
    79   135   136    1
    80    74    75    2
    81    74    79   am
    82   136   139    1
    83   136   137    1
    84    98    96   ar
    85    24    15   am
    86   117   116    1
    87    15    14    1
    88    94    96   ar
    89    94    92   ar
    90   123   122    1
    91    79    80    1
    92    96    95   ar
    93   137   138    2
    94   116   114   ar
    95   116   115   ar
    96   114   112   ar
    97    92    91    1
    98    92    93   ar
    99    91    88    1
   100    14    17    1
   101    14    13    1
   102   156   154   ar
   103   156   158   ar
   104    19    21   ar
   105    19    18   ar
   106   122   119    1
   107    95    93   ar
   108    80    83    1
   109    80    81    1
   110    90    89    2
   111    21    23   ar
   112   154   153   ar
   113    85    83    1
   114    89    88    1
   115   120   121    2
   116   120   119    1
   117    17    18    1
   118    82    81    2
   119   115   113   ar
   120   158   157   ar
   121   119   118    1
   122    84    83    1
   123    84    86    1
   124   112   111   ar
   125    88    87    1
   126    18    20   ar
   127   147   145    1
   128   153   152    1
   129   153   155   ar
   130    23    22   ar
   131   113   111   ar
   132   157   155   ar
   133   111   110    1
   134   152   149    1
   135    20    22   ar
   136   145   144    1
   137   140   141    1
   138   149   150    1
   139   149   148    1
   140   150   151    2
   141   144   141    1
   142   144   146    1
   143   110   107    1
   144   141   142    1
   145   104   103    2
   146   107   106    1
   147   107   108    1
   148   143   142    2
   149   103   106   am
   150   103   102    1
   151   102   105    1
   152   102   101    1
   153   109   108    2
