@<TRIPOS>MOLECULE
tmp/5d76B00.pdb
 112 107 0 0 0
SMALL
GASTEIGER

@<TRIPOS>ATOM
      1  N         29.4100   10.8520  192.3030 N.3    11  ARG11      -0.1231
      2  CA        28.4480   11.7900  192.8570 C.3    11  ARG11       0.1694
      3  C         28.1090   12.8680  191.8450 C.2    11  ARG11       0.2591
      4  O         26.9690   13.1980  191.6330 O.2    11  ARG11      -0.2718
      5  CB        28.9930   12.4350  194.1200 C.3    11  ARG11       0.0321
      6  CG        29.0570   11.5290  195.3180 C.3    11  ARG11       0.0489
      7  CD        29.6930   12.2530  196.5020 C.3    11  ARG11       0.2205
      8  NE        29.9530   11.3330  197.5970 N.pl3  11  ARG11      -0.0865
      9  CZ        30.9840   11.4340  198.4260 C.cat  11  ARG11       0.5346
     10  NH1       31.1450   10.5390  199.3940 N.pl3  11  ARG11       0.1354
     11  NH2       31.8590   12.4220  198.2820 N.pl3  11  ARG11       0.1354
     12  N         29.1270   13.4080  191.2080 N.am   12  ALA12      -0.1980
     13  CA        28.9430   14.4600  190.2320 C.3    12  ALA12       0.1597
     14  C         28.1380   14.0160  189.0080 C.2    12  ALA12       0.2287
     15  O         27.8150   14.8280  188.1620 O.2    12  ALA12      -0.2864
     16  CB        30.2850   14.9830  189.8090 C.3    12  ALA12       0.0319
     17  N         25.2110   12.5460  189.3590 N.3    14  VAL14      -0.1231
     18  CA        23.8300   12.5770  189.7860 C.3    14  VAL14       0.1692
     19  C         23.1790   13.8900  189.3980 C.2    14  VAL14       0.2593
     20  O         23.7320   14.9600  189.6310 O.2    14  VAL14      -0.2718
     21  CB        23.7270   12.3650  191.2900 C.3    14  VAL14       0.0266
     22  CG1       22.3050   12.0380  191.6850 C.3    14  VAL14       0.0020
     23  CG2       24.6270   11.2340  191.6830 C.3    14  VAL14       0.0020
     24  N         22.0120   13.7840  188.7780 N.am   15  GLY15      -0.1942
     25  CA        21.2580   14.9380  188.3490 C.3    15  GLY15       0.2014
     26  C         21.4760   15.2500  186.8900 C.2    15  GLY15       0.2639
     27  O         20.6620   15.9160  186.2680 O.2    15  GLY15      -0.2714
     28  N         22.5780   14.7660  186.3380 N.am   16  SER16      -0.1949
     29  CA        22.9220   15.0800  184.9690 C.3    16  SER16       0.1924
     30  C         21.8740   14.5880  183.9920 C.2    16  SER16       0.2314
     31  O         21.6740   15.1680  182.9450 O.2    16  SER16      -0.2863
     32  CB        24.2620   14.4640  184.6080 C.3    16  SER16       0.2116
     33  OG        24.0720   13.1560  184.1130 O.3    16  SER16      -0.2180
     34  N         22.4830   19.8340  179.4810 N.3   162  VAL162     -0.1245
     35  CA        21.8550   19.3740  180.7110 C.3   162  VAL162      0.1561
     36  C         21.4070   20.5580  181.5450 C.2   162  VAL162      0.2260
     37  O         21.6050   21.6930  181.1550 O.2   162  VAL162     -0.2867
     38  CB        22.7990   18.4950  181.5460 C.3   162  VAL162      0.0252
     39  CG1       23.0770   17.1960  180.8230 C.3   162  VAL162      0.0019
     40  CG2       24.0820   19.2440  181.8420 C.3   162  VAL162      0.0019
     41  N         22.4090   21.8430  184.5870 N.3   164  ALA164     -0.1231
     42  CA        23.3870   22.7450  185.1740 C.3   164  ALA164      0.1694
     43  C         24.7000   22.0700  185.4870 C.2   164  ALA164      0.2592
     44  O         24.7610   21.1580  186.3000 O.2   164  ALA164     -0.2718
     45  CB        22.8270   23.3700  186.4270 C.3   164  ALA164      0.0304
     46  N         25.7550   22.5550  184.8510 N.am  165  ILE165     -0.1966
     47  CA        27.0940   22.0730  185.1090 C.3   165  ILE165      0.1727
     48  C         27.8010   23.0720  186.0120 C.2   165  ILE165      0.2616
     49  O         27.5280   24.2630  185.9500 O.2   165  ILE165     -0.2715
     50  CB        27.8890   21.8720  183.8070 C.3   165  ILE165      0.0290
     51  CG1       27.0240   21.1780  182.7610 C.3   165  ILE165      0.0022
     52  CG2       29.1330   21.0650  184.0720 C.3   165  ILE165      0.0023
     53  CD1       27.7470   20.8930  181.4700 C.3   165  ILE165      0.0001
     54  N         28.7000   22.5930  186.8580 N.am  166  ASN166     -0.1972
     55  CA        29.3830   23.4710  187.7780 C.3   166  ASN166      0.1688
     56  C         30.6030   24.1110  187.1530 C.2   166  ASN166      0.2292
     57  O         31.1390   23.5960  186.1830 O.2   166  ASN166     -0.2864
     58  CB        29.7740   22.7000  189.0230 C.3   166  ASN166      0.1181
     59  CG        28.5780   22.2740  189.8300 C.2   166  ASN166      0.2629
     60  OD1       27.5380   22.9240  189.8000 O.2   166  ASN166     -0.2716
     61  ND2       28.7100   21.1720  190.5460 N.am  166  ASN166     -0.0877
     62  N         34.4920   25.4200  188.0960 N.3   168  ARG168     -0.1245
     63  CA        35.4430   25.1230  189.1500 C.3   168  ARG168      0.1563
     64  C         36.8180   25.6510  188.8290 C.2   168  ARG168      0.2260
     65  O         37.1940   25.7630  187.6680 O.2   168  ARG168     -0.2867
     66  CB        35.5250   23.6130  189.3970 C.3   168  ARG168      0.0307
     67  CG        34.2040   22.9230  189.7300 C.3   168  ARG168      0.0489
     68  CD        34.3520   21.3960  189.7230 C.3   168  ARG168      0.2205
     69  NE        33.1340   20.7080  190.1390 N.pl3 168  ARG168     -0.0865
     70  CZ        32.8990   20.2750  191.3750 C.cat 168  ARG168      0.5346
     71  NH1       33.7930   20.4520  192.3320 N.pl3 168  ARG168      0.1354
     72  NH2       31.7630   19.6610  191.6600 N.pl3 168  ARG168      0.1354
     73  N         36.4500   17.0370  190.8430 N.3   173  THR173     -0.1218
     74  CA        35.1180   17.1710  191.3990 C.3   173  THR173      0.1862
     75  C         35.2220   17.6400  192.8360 C.2   173  THR173      0.2287
     76  O         34.2410   17.6990  193.5550 O.2   173  THR173     -0.2866
     77  CB        34.3310   15.8640  191.3290 C.3   173  THR173      0.1770
     78  OG1       35.1730   14.7830  191.7310 O.3   173  THR173     -0.2211
     79  CG2       33.8590   15.6250  189.9170 C.3   173  THR173      0.0375
     80  N         36.9980   17.7450  180.4960 N.3   201  TRP201     -0.1241
     81  CA        36.8260   19.1310  180.8930 C.3   201  TRP201      0.1605
     82  C         37.1530   20.0690  179.7560 C.2   201  TRP201      0.2264
     83  O         37.9610   19.7560  178.8930 O.2   201  TRP201     -0.2867
     84  CB        37.7230   19.4780  182.0660 C.3   201  TRP201      0.0550
     85  CG        37.6620   18.5570  183.1870 C.ar  201  TRP201      0.0003
     86  CD1       38.3570   17.4020  183.3300 C.ar  201  TRP201      0.0946
     87  CD2       36.8850   18.7120  184.3660 C.ar  201  TRP201      0.0152
     88  NE1       38.0500   16.8130  184.5230 N.ar  201  TRP201     -0.2442
     89  CE2       37.1480   17.6020  185.1840 C.ar  201  TRP201      0.0810
     90  CE3       35.9860   19.6830  184.8120 C.ar  201  TRP201      0.0012
     91  CZ2       36.5460   17.4330  186.4260 C.ar  201  TRP201      0.0191
     92  CZ3       35.3850   19.5140  186.0450 C.ar  201  TRP201      0.0001
     93  CH2       35.6680   18.4000  186.8370 C.ar  201  TRP201      0.0015
     94  N         32.9910   20.3700  183.5110 N.3   215  ALA215     -0.1245
     95  CA        32.9510   18.9740  183.0660 C.3   215  ALA215      0.1562
     96  C         31.8950   18.8020  181.9970 C.2   215  ALA215      0.2260
     97  O         30.8800   19.4750  182.0040 O.2   215  ALA215     -0.2867
     98  CB        32.6840   18.0450  184.2190 C.3   215  ALA215      0.0290
     99  N         27.5930   16.4040  177.8470 N.3   229  TRP229     -0.1241
    100  CA        26.6140   17.2630  178.4860 C.3   229  TRP229      0.1605
    101  C         26.3470   18.5280  177.6850 C.2   229  TRP229      0.2264
    102  O         25.7450   19.4550  178.1840 O.2   229  TRP229     -0.2867
    103  CB        27.0910   17.6240  179.8790 C.3   229  TRP229      0.0550
    104  CG        27.1770   16.4580  180.7660 C.ar  229  TRP229      0.0003
    105  CD1       26.7390   15.1960  180.5060 C.ar  229  TRP229      0.0946
    106  CD2       27.7160   16.4300  182.0820 C.ar  229  TRP229      0.0152
    107  NE1       26.9690   14.3860  181.5780 N.ar  229  TRP229     -0.2442
    108  CE2       27.5730   15.1200  182.5610 C.ar  229  TRP229      0.0810
    109  CE3       28.3050   17.3910  182.9090 C.ar  229  TRP229      0.0012
    110  CZ2       27.9990   14.7450  183.8240 C.ar  229  TRP229      0.0191
    111  CZ3       28.7220   17.0140  184.1600 C.ar  229  TRP229      0.0001
    112  CH2       28.5720   15.7030  184.6060 C.ar  229  TRP229      0.0015
@<TRIPOS>BOND
     1   101   102    2
     2   101   100    1
     3    99   100    1
     4   100   103    1
     5    83    82    2
     6    34    35    1
     7    82    81    1
     8   103   104    1
     9    80    81    1
    10   105   104   ar
    11   105   107   ar
    12    35    36    1
    13    35    38    1
    14   104   106   ar
    15    39    38    1
    16    81    84    1
    17    37    36    2
    18    53    51    1
    19    38    40    1
    20   107   108   ar
    21    96    97    2
    22    96    95    1
    23    84    85    1
    24   106   108   ar
    25   106   109   ar
    26   108   110   ar
    27    51    50    1
    28   109   111   ar
    29    31    30    2
    30    95    94    1
    31    95    98    1
    32    85    86   ar
    33    85    87   ar
    34    86    88   ar
    35    50    52    1
    36    50    47    1
    37   110   112   ar
    38    30    29    1
    39    33    32    1
    40   111   112   ar
    41    87    90   ar
    42    87    89   ar
    43    88    89   ar
    44    41    42    1
    45    32    29    1
    46    90    92   ar
    47    46    47    1
    48    46    43   am
    49    29    28    1
    50    47    48    1
    51    42    43    1
    52    42    45    1
    53    89    91   ar
    54    43    44    2
    55    49    48    2
    56    48    54   am
    57    92    93   ar
    58    57    56    2
    59    27    26    2
    60    28    26   am
    61    91    93   ar
    62    54    55    1
    63    26    25    1
    64    56    55    1
    65    65    64    2
    66    55    58    1
    67    62    63    1
    68    15    14    2
    69    25    24    1
    70    24    19   am
    71    64    63    1
    72    14    13    1
    73    58    59    1
    74    63    66    1
    75    17    18    1
    76    66    67    1
    77    19    20    2
    78    19    18    1
    79    68    67    1
    80    68    69    1
    81    18    21    1
    82    60    59    2
    83    16    13    1
    84    59    61   am
    85    79    77    1
    86    69    70    2
    87    13    12    1
    88    73    74    1
    89    12     3   am
    90    21    23    1
    91    21    22    1
    92    77    74    1
    93    77    78    1
    94    70    72    1
    95    70    71    1
    96    74    75    1
    97     4     3    2
    98     3     2    1
    99     1     2    1
   100    75    76    2
   101     2     5    1
   102     5     6    1
   103     6     7    1
   104     7     8    1
   105     8     9    2
   106    11     9    1
   107     9    10    1
