@<TRIPOS>MOLECULE
tmp/5d7aA00.pdb
 150 141 0 0 0
SMALL
GASTEIGER

@<TRIPOS>ATOM
      1  N        271.3630  -10.6330   11.8570 N.3    21  VAL21      -0.1231
      2  CA       270.1740  -10.6450   12.6950 C.3    21  VAL21       0.1692
      3  C        269.2430  -11.7870   12.2960 C.2    21  VAL21       0.2593
      4  O        268.6780  -12.4640   13.1570 O.2    21  VAL21      -0.2718
      5  CB       269.4380   -9.2920   12.6140 C.3    21  VAL21       0.0266
      6  CG1      267.9390   -9.4610   12.7920 C.3    21  VAL21       0.0020
      7  CG2      270.0070   -8.3280   13.6480 C.3    21  VAL21       0.0020
      8  N        269.1030  -12.0110   10.9910 N.am   22  GLY22      -0.1942
      9  CA       268.2720  -13.0910   10.4890 C.3    22  GLY22       0.2014
     10  C        267.9490  -12.9920    9.0080 C.2    22  GLY22       0.2639
     11  O        268.5140  -12.1620    8.2920 O.2    22  GLY22      -0.2714
     12  N        267.0320  -13.8440    8.5510 N.am   23  ASN23      -0.1958
     13  CA       266.6340  -13.8880    7.1440 C.3    23  ASN23       0.1819
     14  C        265.2250  -13.3460    6.9030 C.2    23  ASN23       0.2621
     15  O        264.3440  -13.4670    7.7570 O.2    23  ASN23      -0.2715
     16  CB       266.7340  -15.3200    6.6130 C.3    23  ASN23       0.1195
     17  CG       268.1540  -15.7150    6.2660 C.2    23  ASN23       0.2630
     18  OD1      268.5810  -15.5850    5.1200 O.2    23  ASN23      -0.2716
     19  ND2      268.8960  -16.1970    7.2570 N.am   23  ASN23      -0.0877
     20  N        265.0170  -12.7550    5.7300 N.am   24  GLY24      -0.1954
     21  CA       263.7440  -12.1370    5.4110 C.3    24  GLY24       0.1869
     22  C        263.1900  -12.5530    4.0650 C.2    24  GLY24       0.2309
     23  O        263.5890  -13.5760    3.5040 O.2    24  GLY24      -0.2863
     24  N        269.3030  -10.1190    6.5970 N.3    29  VAL29      -0.1245
     25  CA       269.1410   -8.8700    7.3340 C.3    29  VAL29       0.1561
     26  C        270.1790   -8.7020    8.4450 C.2    29  VAL29       0.2260
     27  O        270.2730   -9.5320    9.3530 O.2    29  VAL29      -0.2867
     28  CB       267.7200   -8.7740    7.9390 C.3    29  VAL29       0.0252
     29  CG1      267.6790   -7.7770    9.0870 C.3    29  VAL29       0.0019
     30  CG2      266.7060   -8.4050    6.8580 C.3    29  VAL29       0.0019
     31  N        268.8980   -1.2090   10.3280 N.3    42  ALA42      -0.1245
     32  CA       268.7490   -2.5550    9.7770 C.3    42  ALA42       0.1562
     33  C        269.1220   -2.5560    8.3050 C.2    42  ALA42       0.2260
     34  O        268.7190   -1.6650    7.5580 O.2    42  ALA42      -0.2867
     35  CB       267.3450   -3.0620    9.9620 C.3    42  ALA42       0.0290
     36  N        269.0820   -4.9320    4.8990 N.3    44  LYS44      -0.1245
     37  CA       268.6960   -6.1150    4.1530 C.3    44  LYS44       0.1561
     38  C        269.5660   -6.1980    2.9140 C.2    44  LYS44       0.2260
     39  O        269.5840   -5.2770    2.1000 O.2    44  LYS44      -0.2867
     40  CB       267.2130   -6.0550    3.7760 C.3    44  LYS44       0.0271
     41  CG       266.6500   -7.3310    3.1700 C.3    44  LYS44       0.0035
     42  CD       265.2500   -7.0940    2.6490 C.3    44  LYS44       0.0206
     43  CE       264.4160   -8.3580    2.6590 C.3    44  LYS44       0.1093
     44  NZ       262.9840   -8.0330    2.4010 N.3    44  LYS44      -0.1314
     45  N        258.2770    0.1700   10.1530 N.3    73  ALA73      -0.1245
     46  CA       259.7120    0.4070   10.2360 C.3    73  ALA73       0.1562
     47  C        260.1440    1.2830    9.0610 C.2    73  ALA73       0.2260
     48  O        259.7800    1.0170    7.9180 O.2    73  ALA73      -0.2867
     49  CB       260.4740   -0.9130   10.2480 C.3    73  ALA73       0.0290
     50  N        267.2440    0.4340    6.6530 N.3    95  MET95      -0.1230
     51  CA       266.0130    0.7640    7.3580 C.3    95  MET95       0.1702
     52  C        266.1720    0.9130    8.8700 C.2    95  MET95       0.2592
     53  O        267.1860    0.5140    9.4490 O.2    95  MET95      -0.2718
     54  CB       264.9640   -0.3060    7.0800 C.3    95  MET95       0.0401
     55  CG       264.3070   -0.1840    5.7380 C.3    95  MET95       0.0596
     56  SD       263.1710   -1.5350    5.5640 S.3    95  MET95      -0.1393
     57  CE       264.3200   -2.9050    5.6610 C.3    95  MET95       0.0692
     58  N        265.1440    1.4750    9.5000 N.am   96  GLU96      -0.1966
     59  CA       265.1090    1.6510   10.9480 C.3    96  GLU96       0.1733
     60  C        265.3880    0.3560   11.6970 C.2    96  GLU96       0.2616
     61  O        264.7660   -0.6650   11.4310 O.2    96  GLU96      -0.2715
     62  CB       263.7540    2.2030   11.3810 C.3    96  GLU96       0.0429
     63  CG       263.5530    2.2240   12.8840 C.3    96  GLU96       0.1163
     64  CD       262.1980    2.7770   13.2760 C.2    96  GLU96       0.3649
     65  OE1      261.3200    2.8730   12.3910 O.co2  96  GLU96      -0.2457
     66  OE2      262.0140    3.1210   14.4640 O.co2  96  GLU96      -0.2457
     67  N        266.3220    0.4030   12.6390 N.am   97  PHE97      -0.1960
     68  CA       266.6420   -0.7690   13.4370 C.3    97  PHE97       0.1771
     69  C        265.7790   -0.8350   14.6950 C.2    97  PHE97       0.2620
     70  O        265.9020   -0.0070   15.5960 O.2    97  PHE97      -0.2715
     71  CB       268.1230   -0.7720   13.8070 C.3    97  PHE97       0.0574
     72  CG       268.5730   -2.0270   14.4920 C.ar   97  PHE97      -0.0200
     73  CD1      268.7300   -3.2060   13.7760 C.ar   97  PHE97      -0.0042
     74  CD2      268.8470   -2.0310   15.8520 C.ar   97  PHE97      -0.0042
     75  CE1      269.1490   -4.3720   14.4080 C.ar   97  PHE97      -0.0003
     76  CE2      269.2660   -3.1910   16.4870 C.ar   97  PHE97      -0.0003
     77  CZ       269.4160   -4.3630   15.7640 C.ar   97  PHE97      -0.0000
     78  N        264.8920   -1.8200   14.7410 N.am   98  CYS98      -0.1954
     79  CA       264.0810   -2.0610   15.9270 C.3    98  CYS98       0.1843
     80  C        264.8300   -3.0200   16.8460 C.2    98  CYS98       0.2626
     81  O        264.8190   -4.2330   16.6350 O.2    98  CYS98      -0.2714
     82  CB       262.7150   -2.6220   15.5380 C.3    98  CYS98       0.0997
     83  SG       261.9200   -1.7090   14.1910 S.3    98  CYS98      -0.0797
     84  N        265.4780   -2.4610   17.8640 N.am   99  GLY99      -0.1940
     85  CA       266.4720   -3.1820   18.6360 C.3    99  GLY99       0.2014
     86  C        265.9800   -4.2350   19.6050 C.2    99  GLY99       0.2639
     87  O        266.7790   -5.0100   20.1260 O.2    99  GLY99      -0.2714
     88  N        264.6770   -4.2780   19.8570 N.am  100  ALA100     -0.1963
     89  CA       264.1410   -5.2300   20.8240 C.3   100  ALA100      0.1728
     90  C        263.8000   -6.5660   20.1810 C.2   100  ALA100      0.2617
     91  O        263.4190   -7.5110   20.8690 O.2   100  ALA100     -0.2715
     92  CB       262.9190   -4.6560   21.5090 C.3   100  ALA100      0.0334
     93  N        263.9320   -6.6440   18.8620 N.am  101  GLY101     -0.1940
     94  CA       263.6220   -7.8680   18.1460 C.3   101  GLY101      0.2014
     95  C        262.1480   -8.0240   17.8040 C.2   101  GLY101      0.2639
     96  O        261.3780   -7.0580   17.8180 O.2   101  GLY101     -0.2714
     97  N        261.7560   -9.2550   17.4900 N.am  102  SER102     -0.1949
     98  CA       260.3960   -9.5550   17.0720 C.3   102  SER102      0.1924
     99  C        259.5310   -9.8980   18.2640 C.2   102  SER102      0.2314
    100  O        260.0340  -10.0670   19.3720 O.2   102  SER102     -0.2863
    101  CB       260.3840  -10.7110   16.0770 C.3   102  SER102      0.2116
    102  OG       260.7300  -11.9290   16.7180 O.3   102  SER102     -0.2180
    103  N        260.5260  -13.1900   19.6540 N.3   105  ASP105     -0.1239
    104  CA       261.5560  -13.0730   20.6880 C.3   105  ASP105      0.1674
    105  C        260.9350  -12.7040   22.0220 C.2   105  ASP105      0.2266
    106  O        261.2590  -13.2930   23.0430 O.2   105  ASP105     -0.2867
    107  CB       262.6080  -12.0290   20.3150 C.3   105  ASP105      0.1410
    108  CG       263.4360  -12.4340   19.1190 C.2   105  ASP105      0.3668
    109  OD1      263.7960  -13.6230   19.0040 O.co2 105  ASP105     -0.2456
    110  OD2      263.7320  -11.5550   18.2880 O.co2 105  ASP105     -0.2456
    111  N        256.8450  -13.0160   13.9820 N.3   147  GLN147     -0.1231
    112  CA       258.2260  -12.8600   13.5550 C.3   147  GLN147      0.1698
    113  C        258.4390  -11.5450   12.8150 C.2   147  GLN147      0.2592
    114  O        259.5470  -11.0080   12.8100 O.2   147  GLN147     -0.2718
    115  CB       258.6360  -14.0360   12.6640 C.3   147  GLN147      0.0381
    116  CG       260.0570  -13.9650   12.1250 C.3   147  GLN147      0.0905
    117  CD       260.2470  -14.8060   10.8740 C.2   147  GLN147      0.2608
    118  OE1      259.8390  -15.9700   10.8230 O.2   147  GLN147     -0.2717
    119  NE2      260.8600  -14.2140    9.8490 N.am  147  GLN147     -0.0878
    120  N        257.3800  -11.0280   12.1940 N.am  148  ASN148     -0.1974
    121  CA       257.4720   -9.7930   11.4180 C.3   148  ASN148      0.1688
    122  C        256.9090   -8.5820   12.1500 C.2   148  ASN148      0.2292
    123  O        256.7340   -7.5150   11.5660 O.2   148  ASN148     -0.2864
    124  CB       256.7500   -9.9440   10.0840 C.3   148  ASN148      0.1181
    125  CG       257.4370  -10.9050    9.1590 C.2   148  ASN148      0.2629
    126  OD1      258.6610  -11.0060    9.1460 O.2   148  ASN148     -0.2716
    127  ND2      256.6510  -11.6260    8.3720 N.am  148  ASN148     -0.0877
    128  N        257.8680   -6.1300   14.9990 N.3   150  LEU150     -0.1245
    129  CA       259.0300   -5.7590   15.7860 C.3   150  LEU150      0.1561
    130  C        258.6900   -4.7450   16.8570 C.2   150  LEU150      0.2260
    131  O        257.7270   -3.9850   16.7380 O.2   150  LEU150     -0.2867
    132  CB       260.1300   -5.2000   14.8890 C.3   150  LEU150      0.0270
    133  CG       260.5000   -6.0470   13.6810 C.3   150  LEU150      0.0019
    134  CD1      261.7590   -5.5080   13.0560 C.3   150  LEU150      0.0001
    135  CD2      260.6620   -7.5030   14.0730 C.3   150  LEU150      0.0001
    136  N        257.2280   -5.1600    9.3680 N.3   160  VAL160     -0.1231
    137  CA       258.2860   -5.3330    8.3810 C.3   160  VAL160      0.1692
    138  C        257.9240   -6.4160    7.3670 C.2   160  VAL160      0.2592
    139  O        257.0160   -7.2120    7.5970 O.2   160  VAL160     -0.2718
    140  CB       259.6320   -5.6980    9.0500 C.3   160  VAL160      0.0266
    141  CG1      260.0740   -4.5970    9.9860 C.3   160  VAL160      0.0020
    142  CG2      259.5210   -7.0150    9.8040 C.3   160  VAL160      0.0020
    143  N        258.6380   -6.4210    6.2430 N.am  161  ASP161     -0.1974
    144  CA       258.5240   -7.4570    5.2160 C.3   161  ASP161      0.1709
    145  C        257.1300   -7.5940    4.6150 C.2   161  ASP161      0.2293
    146  O        256.6270   -8.7100    4.4580 O.2   161  ASP161     -0.2864
    147  CB       258.9660   -8.8060    5.7790 C.3   161  ASP161      0.1436
    148  CG       260.4390   -9.0760    5.5500 C.2   161  ASP161      0.3671
    149  OD1      261.1680   -8.1420    5.1460 O.co2 161  ASP161     -0.2456
    150  OD2      260.8660  -10.2270    5.7790 O.co2 161  ASP161     -0.2456
@<TRIPOS>BOND
     1    39    38    2
     2    44    43    1
     3    42    43    1
     4    42    41    1
     5    38    37    1
     6    41    40    1
     7    23    22    2
     8    40    37    1
     9    22    21    1
    10    37    36    1
    11   146   145    2
    12   145   144    1
    13    18    17    2
    14   149   148   ar
    15   144   147    1
    16   144   143    1
    17    21    20    1
    18   148   150   ar
    19   148   147    1
    20    56    57    1
    21    56    55    1
    22    20    14   am
    23    55    54    1
    24   143   138   am
    25    17    16    1
    26    17    19   am
    27    24    25    1
    28    16    13    1
    29    50    51    1
    30    30    28    1
    31    14    13    1
    32    14    15    2
    33    54    51    1
    34    13    12    1
    35    25    28    1
    36    25    26    1
    37    51    52    1
    38   138   139    2
    39   138   137    1
    40    34    33    2
    41    48    47    2
    42    28    29    1
    43    11    10    2
    44    33    32    1
    45   127   125   am
    46   137   140    1
    47   137   136    1
    48    26    27    2
    49    12    10   am
    50    52    53    2
    51    52    58   am
    52    10     9    1
    53   140   142    1
    54   140   141    1
    55    47    46    1
    56   126   125    2
    57   125   124    1
    58    58    59    1
    59    32    35    1
    60    32    31    1
    61   119   117   am
    62   124   121    1
    63    45    46    1
    64    46    49    1
    65     9     8    1
    66   118   117    2
    67   117   116    1
    68    59    62    1
    69    59    60    1
    70     8     3   am
    71    62    63    1
    72   121   122    1
    73   121   120    1
    74    61    60    2
    75   123   122    2
    76    60    67   am
    77     1     2    1
    78   116   115    1
    79   120   113   am
    80     3     2    1
    81     3     4    2
    82    65    64   ar
    83     5     2    1
    84     5     6    1
    85     5     7    1
    86    67    68    1
    87   115   112    1
    88   114   113    2
    89   113   112    1
    90    63    64    1
    91   134   133    1
    92    64    66   ar
    93    68    71    1
    94    68    69    1
    95   112   111    1
    96   133   135    1
    97   133   132    1
    98    73    75   ar
    99    73    72   ar
   100    71    72    1
   101    83    82    1
   102    75    77   ar
   103    72    74   ar
   104    69    78   am
   105    69    70    2
   106    78    79    1
   107   132   129    1
   108   128   129    1
   109    82    79    1
   110    77    76   ar
   111   129   130    1
   112    74    76   ar
   113    79    80    1
   114   101   102    1
   115   101    98    1
   116    81    80    2
   117   131   130    2
   118    80    84   am
   119    98    97    1
   120    98    99    1
   121    97    95   am
   122    95    96    2
   123    95    94    1
   124    84    85    1
   125    94    93    1
   126    99   100    2
   127   110   108   ar
   128    85    86    1
   129    93    90   am
   130   109   108   ar
   131   108   107    1
   132    86    88   am
   133    86    87    2
   134   103   104    1
   135    88    89    1
   136    90    89    1
   137    90    91    2
   138   107   104    1
   139   104   105    1
   140    89    92    1
   141   105   106    2
