@<TRIPOS>MOLECULE
tmp/5d7cA02.pdb
 125 117 0 0 0
SMALL
GASTEIGER

@<TRIPOS>ATOM
      1  N          7.9070   14.5270   -3.0910 N.3    36  ILE36      -0.1245
      2  CA         8.5230   13.2120   -2.8570 C.3    36  ILE36       0.1561
      3  C          8.5280   12.9020   -1.3990 C.2    36  ILE36       0.2260
      4  O          8.1670   11.8350   -0.9390 O.2    36  ILE36      -0.2867
      5  CB         9.9370   13.1520   -3.5240 C.3    36  ILE36       0.0252
      6  CG1        9.9490   13.3670   -5.0460 C.3    36  ILE36       0.0019
      7  CG2       10.6160   11.9010   -3.0760 C.3    36  ILE36       0.0019
      8  CD1        9.0200   12.5440   -5.8320 C.3    36  ILE36       0.0001
      9  N          5.2860   11.6390    0.3570 N.3    39  ASN39      -0.1225
     10  CA         4.9260   10.1980    0.2080 C.3    39  ASN39       0.1785
     11  C          5.7380    9.3650    1.1830 C.2    39  ASN39       0.2597
     12  O          5.2690    8.3380    1.6970 O.2    39  ASN39      -0.2718
     13  CB         5.1310    9.7330   -1.1660 C.3    39  ASN39       0.1169
     14  CG         3.9870   10.1350   -2.1200 C.2    39  ASN39       0.2627
     15  OD1        2.8460   10.3180   -1.7370 O.2    39  ASN39      -0.2716
     16  ND2        4.3150   10.1550   -3.3280 N.am   39  ASN39      -0.0877
     17  N          7.0240    9.7320    1.4310 N.am   40  SER40      -0.1952
     18  CA         7.7890    9.0050    2.4360 C.3    40  SER40       0.1924
     19  C          7.1540    9.2070    3.8190 C.2    40  SER40       0.2314
     20  O          7.1380    8.2910    4.6660 O.2    40  SER40      -0.2863
     21  CB         9.2700    9.3890    2.4760 C.3    40  SER40       0.2116
     22  OG         9.9080    9.0630    1.2790 O.3    40  SER40      -0.2180
     23  N          4.3160    6.8770    4.3380 N.3    43  GLU43      -0.1245
     24  CA         4.8440    5.5700    4.6890 C.3    43  GLU43       0.1567
     25  C          5.2180    5.4640    6.1210 C.2    43  GLU43       0.2260
     26  O          5.1220    4.3770    6.7190 O.2    43  GLU43      -0.2867
     27  CB         5.9030    5.1810    3.6390 C.3    43  GLU43       0.0388
     28  CG         6.4910    3.8470    3.7570 C.3    43  GLU43       0.1160
     29  CD         5.5130    2.6690    3.3860 C.2    43  GLU43       0.3649
     30  OE1        4.3320    2.9470    3.0820 O.co2  43  GLU43      -0.2457
     31  OE2        6.1000    1.5900    3.5510 O.co2  43  GLU43      -0.2457
     32  N         16.1890   11.3010   -2.5310 N.3    64  VAL64      -0.1231
     33  CA        15.3050   11.1450   -1.3420 C.3    64  VAL64       0.1692
     34  C         15.3230    9.6250   -1.1150 C.2    64  VAL64       0.2593
     35  O         15.0180    8.8350   -2.0110 O.2    64  VAL64      -0.2718
     36  CB        13.9190   11.6930   -1.4880 C.3    64  VAL64       0.0266
     37  CG1       13.1810   11.5550   -0.1650 C.3    64  VAL64       0.0020
     38  CG2       13.9610   13.1330   -1.9670 C.3    64  VAL64       0.0020
     39  N         15.4930    9.2190    0.1230 N.am   65  THR65      -0.1939
     40  CA        15.5620    7.7860    0.5660 C.3    65  THR65       0.2028
     41  C         14.6240    7.6650    1.7090 C.2    65  THR65       0.2642
     42  O         14.6310    8.5180    2.6540 O.2    65  THR65      -0.2714
     43  CB        16.8970    7.3210    0.9450 C.3    65  THR65       0.1808
     44  OG1       17.8290    7.5550   -0.1690 O.3    65  THR65      -0.2208
     45  CG2       16.8570    5.8120    1.2290 C.3    65  THR65       0.0379
     46  N         13.8150    6.6240    1.7950 N.am   66  ASP66      -0.1971
     47  CA        13.1030    6.2290    3.0320 C.3    66  ASP66       0.1709
     48  C         13.3920    4.7830    3.3160 C.2    66  ASP66       0.2293
     49  O         13.8210    4.0570    2.4150 O.2    66  ASP66      -0.2864
     50  CB        11.6350    6.5660    3.0270 C.3    66  ASP66       0.1436
     51  CG        10.7660    5.7030    2.0970 C.2    66  ASP66       0.3671
     52  OD1       10.0220    6.2770    1.3100 O.co2  66  ASP66      -0.2456
     53  OD2       10.8580    4.4720    2.1700 O.co2  66  ASP66      -0.2456
     54  N          8.4950    0.2130    3.2170 N.3    69  ARG69      -0.1231
     55  CA         8.3660   -1.1060    2.6690 C.3    69  ARG69       0.1694
     56  C          8.9430   -1.2270    1.2800 C.2    69  ARG69       0.2593
     57  O          9.0920   -2.3950    0.8340 O.2    69  ARG69      -0.2718
     58  CB         6.8970   -1.5010    2.6260 C.3    69  ARG69       0.0321
     59  CG         6.3650   -1.8510    3.9980 C.3    69  ARG69       0.0489
     60  CD         4.9000   -1.8920    4.0020 C.3    69  ARG69       0.2205
     61  NE         4.2810   -0.6760    3.7380 N.pl3  69  ARG69      -0.0865
     62  CZ         2.9590   -0.4580    3.7170 C.cat  69  ARG69       0.5346
     63  NH1        2.5190    0.7190    3.5410 N.pl3  69  ARG69       0.1354
     64  NH2        2.0950   -1.4860    3.7800 N.pl3  69  ARG69       0.1354
     65  N          9.3090   -0.1310    0.6050 N.am   70  GLY70      -0.1942
     66  CA         9.6200   -0.2390   -0.8230 C.3    70  GLY70       0.2014
     67  C          8.3820   -0.1260   -1.6660 C.2    70  GLY70       0.2639
     68  O          7.3560   -0.8350   -1.4420 O.2    70  GLY70      -0.2714
     69  N          8.3420    0.7890   -2.6600 N.am   71  ILE71      -0.1963
     70  CA         7.1970    0.8590   -3.5140 C.3    71  ILE71       0.1712
     71  C          7.0310   -0.4780   -4.2110 C.2    71  ILE71       0.2458
     72  O          7.9690   -1.1360   -4.6470 O.2    71  ILE71      -0.2730
     73  CB         7.3490    1.9480   -4.6070 C.3    71  ILE71       0.0289
     74  CG1        7.6500    3.3300   -4.0140 C.3    71  ILE71       0.0022
     75  CG2        6.0790    1.9660   -5.5240 C.3    71  ILE71       0.0023
     76  CD1        7.9610    4.3690   -5.0260 C.3    71  ILE71       0.0001
     77  N          5.7430   -0.9920   -4.2270 N.am   72  PRO72      -0.2727
     78  CA         5.6010   -2.3560   -4.7500 C.3    72  PRO72       0.1402
     79  C          6.0120   -2.5090   -6.1890 C.2    72  PRO72       0.2269
     80  O          5.8910   -1.5930   -6.9830 O.2    72  PRO72      -0.2865
     81  CB         4.0550   -2.5730   -4.6210 C.3    72  PRO72       0.0296
     82  CG         3.7400   -1.8210   -3.3590 C.3    72  PRO72       0.0237
     83  CD         4.4990   -0.5220   -3.5730 C.3    72  PRO72       0.0939
     84  N          2.9720    4.1260  -10.5930 N.3    87  ILE87      -0.1231
     85  CA         3.0310    5.2510   -9.7060 C.3    87  ILE87       0.1692
     86  C          4.0130    6.3400  -10.2310 C.2    87  ILE87       0.2591
     87  O          3.6510    7.5260  -10.3030 O.2    87  ILE87      -0.2718
     88  CB         3.4330    4.7950   -8.3740 C.3    87  ILE87       0.0266
     89  CG1        2.2840    4.0370   -7.7180 C.3    87  ILE87       0.0019
     90  CG2        3.9560    5.9500   -7.5080 C.3    87  ILE87       0.0020
     91  CD1        2.8360    3.1170   -6.6080 C.3    87  ILE87       0.0001
     92  N          5.1440    5.9300  -10.7580 N.am   88  LEU88      -0.1980
     93  CA         6.1170    6.9390  -11.2070 C.3    88  LEU88       0.1596
     94  C          5.7420    7.5450  -12.5580 C.2    88  LEU88       0.2287
     95  O          6.0370    8.7420  -12.7950 O.2    88  LEU88      -0.2864
     96  CB         7.5510    6.3750  -11.1950 C.3    88  LEU88       0.0297
     97  CG         8.0220    6.1820   -9.7380 C.3    88  LEU88       0.0022
     98  CD1        9.4340    5.7890   -9.7890 C.3    88  LEU88       0.0001
     99  CD2        7.7630    7.3900   -8.7470 C.3    88  LEU88       0.0001
    100  N         13.1470   -4.4200   -1.7800 N.3   106  ARG106     -0.1245
    101  CA        11.9600   -5.1170   -1.3440 C.3   106  ARG106      0.1563
    102  C         12.1450   -6.6100   -1.7250 C.2   106  ARG106      0.2260
    103  O         12.8220   -6.8990   -2.7260 O.2   106  ARG106     -0.2867
    104  CB        10.7740   -4.5080   -2.0610 C.3   106  ARG106      0.0307
    105  CG         9.4230   -4.9920   -1.7000 C.3   106  ARG106      0.0489
    106  CD         8.3970   -4.1870   -2.4050 C.3   106  ARG106      0.2205
    107  NE         7.0870   -4.7910   -2.2120 N.pl3 106  ARG106     -0.0865
    108  CZ         6.1420   -4.4150   -1.4020 C.cat 106  ARG106      0.5346
    109  NH1        6.3100   -3.3800   -0.5850 N.pl3 106  ARG106      0.1354
    110  NH2        4.9830   -5.1010   -1.3130 N.pl3 106  ARG106      0.1354
    111  N         12.8210    2.8560   -0.3740 N.3   135  THR135     -0.1218
    112  CA        12.7370    3.4800   -1.7000 C.3   135  THR135      0.1862
    113  C         13.7800    4.5490   -1.8000 C.2   135  THR135      0.2287
    114  O         13.8990    5.3880   -0.8470 O.2   135  THR135     -0.2866
    115  CB        11.3760    3.9970   -2.0120 C.3   135  THR135      0.1770
    116  OG1       10.4300    2.8560   -1.8160 O.3   135  THR135     -0.2211
    117  CG2       11.2380    4.5210   -3.4040 C.3   135  THR135      0.0375
    118  N         14.6170    7.6660   -4.5630 N.3   137  ILE137     -0.1245
    119  CA        14.2700    8.4410   -5.7840 C.3   137  ILE137      0.1561
    120  C         15.3900    9.4740   -5.9640 C.2   137  ILE137      0.2260
    121  O         15.5850   10.2610   -5.0540 O.2   137  ILE137     -0.2867
    122  CB        12.9340    9.2080   -5.7250 C.3   137  ILE137      0.0252
    123  CG1       11.7750    8.3020   -5.4320 C.3   137  ILE137      0.0019
    124  CG2       12.6870   10.0440   -6.9660 C.3   137  ILE137      0.0019
    125  CD1       11.3690    7.3820   -6.5280 C.3   137  ILE137      0.0001
@<TRIPOS>BOND
     1    95    94    2
     2    94    93    1
     3    93    96    1
     4    93    92    1
     5    96    97    1
     6    92    86   am
     7    84    85    1
     8    87    86    2
     9    86    85    1
    10    98    97    1
    11    97    99    1
    12    85    88    1
    13    88    89    1
    14    88    90    1
    15    89    91    1
    16    80    79    2
    17   124   122    1
    18   125   123    1
    19    79    78    1
    20   120   119    1
    21   120   121    2
    22     8     6    1
    23   119   122    1
    24   119   118    1
    25   122   123    1
    26    75    73    1
    27     6     5    1
    28    76    74    1
    29    78    81    1
    30    78    77    1
    31    72    71    2
    32    81    82    1
    33    73    74    1
    34    73    70    1
    35    77    71   am
    36    77    83    1
    37    71    70    1
    38    83    82    1
    39     5     7    1
    40     5     2    1
    41    70    69    1
    42   117   115    1
    43    16    14   am
    44     1     2    1
    45     2     3    1
    46   103   102    2
    47    69    67   am
    48    32    33    1
    49   106   107    1
    50   106   105    1
    51   107   108    2
    52    14    15    2
    53    14    13    1
    54   104   105    1
    55   104   101    1
    56   115   116    1
    57   115   112    1
    58    35    34    2
    59    38    36    1
    60   113   112    1
    61   113   114    2
    62   100   101    1
    63   102   101    1
    64   112   111    1
    65    67    68    2
    66    67    66    1
    67    36    33    1
    68    36    37    1
    69   108   110    1
    70   108   109    1
    71     3     4    2
    72    33    34    1
    73    13    10    1
    74    34    39   am
    75    66    65    1
    76    44    43    1
    77    39    40    1
    78    10     9    1
    79    10    11    1
    80    40    43    1
    81    40    41    1
    82    65    56   am
    83    57    56    2
    84    43    45    1
    85    11    17   am
    86    11    12    2
    87    22    21    1
    88    56    55    1
    89    52    51   ar
    90    17    18    1
    91    41    46   am
    92    41    42    2
    93    46    47    1
    94    51    53   ar
    95    51    50    1
    96    49    48    2
    97    18    21    1
    98    18    19    1
    99    58    55    1
   100    58    59    1
   101    55    54    1
   102    50    47    1
   103    47    48    1
   104    30    29   ar
   105    29    31   ar
   106    29    28    1
   107    63    62    1
   108    27    28    1
   109    27    24    1
   110    62    61    2
   111    62    64    1
   112    61    60    1
   113    19    20    2
   114    59    60    1
   115    23    24    1
   116    24    25    1
   117    25    26    2
