@<TRIPOS>MOLECULE
tmp/5d7dA02.pdb
 118 109 0 0 0
SMALL
GASTEIGER

@<TRIPOS>ATOM
      1  N          3.2140  -13.1100   22.0540 N.3    37  ILE37      -0.1245
      2  CA         3.8220  -14.4410   22.3440 C.3    37  ILE37       0.1561
      3  C          3.9530  -14.7160   23.8040 C.2    37  ILE37       0.2260
      4  O          3.6210  -15.8300   24.3110 O.2    37  ILE37      -0.2867
      5  CB         5.2380  -14.5470   21.6850 C.3    37  ILE37       0.0252
      6  CG1        5.1590  -14.3860   20.1280 C.3    37  ILE37       0.0019
      7  CG2        5.8640  -15.8630   22.0580 C.3    37  ILE37       0.0019
      8  CD1        4.1800  -15.2130   19.4090 C.3    37  ILE37       0.0001
      9  N          0.7970  -15.8840   25.3960 N.3    40  ASN40      -0.1225
     10  CA         0.4630  -17.3000   25.1640 C.3    40  ASN40       0.1785
     11  C          1.1760  -18.1710   26.2020 C.2    40  ASN40       0.2597
     12  O          0.6350  -19.1590   26.6910 O.2    40  ASN40      -0.2718
     13  CB         0.8660  -17.6940   23.7940 C.3    40  ASN40       0.1169
     14  CG         0.0410  -16.9380   22.6730 C.2    40  ASN40       0.2627
     15  OD1       -1.0940  -16.5900   22.9030 O.2    40  ASN40      -0.2716
     16  ND2        0.5940  -16.7930   21.4960 N.am   40  ASN40      -0.0877
     17  N          2.4510  -17.8280   26.5200 N.am   41  SER41      -0.1952
     18  CA         3.1900  -18.5430   27.5240 C.3    41  SER41       0.1924
     19  C          2.5250  -18.3300   28.8830 C.2    41  SER41       0.2314
     20  O          2.4130  -19.3220   29.6780 O.2    41  SER41      -0.2863
     21  CB         4.6430  -18.0800   27.6230 C.3    41  SER41       0.2116
     22  OG         5.3590  -18.4430   26.4530 O.3    41  SER41      -0.2180
     23  N         -0.3770  -20.6170   29.3270 N.3    44  GLU44      -0.1245
     24  CA         0.0460  -22.0020   29.6760 C.3    44  GLU44       0.1567
     25  C          0.5010  -22.1610   31.1430 C.2    44  GLU44       0.2260
     26  O          0.3630  -23.2160   31.7540 O.2    44  GLU44      -0.2867
     27  CB         1.1130  -22.3490   28.6080 C.3    44  GLU44       0.0388
     28  CG         1.7030  -23.6840   28.6350 C.3    44  GLU44       0.1160
     29  CD         0.7320  -24.8620   28.3390 C.2    44  GLU44       0.3649
     30  OE1       -0.4850  -24.6090   28.0580 O.co2  44  GLU44      -0.2457
     31  OE2        1.2940  -25.9510   28.5650 O.co2  44  GLU44      -0.2457
     32  N         11.4510  -16.3610   22.4380 N.3    65  VAL65      -0.1245
     33  CA        10.6560  -16.5690   23.6560 C.3    65  VAL65       0.1561
     34  C         10.6250  -18.0600   23.9300 C.2    65  VAL65       0.2260
     35  O         10.3710  -18.8680   23.0720 O.2    65  VAL65      -0.2867
     36  CB         9.2520  -16.0220   23.5450 C.3    65  VAL65       0.0252
     37  CG1        8.4940  -16.1010   24.8620 C.3    65  VAL65       0.0019
     38  CG2        9.2140  -14.5440   23.1100 C.3    65  VAL65       0.0019
     39  N          9.1410  -21.0120   26.8660 N.3    67  ASP67      -0.1239
     40  CA         8.4660  -21.3760   28.1110 C.3    67  ASP67       0.1674
     41  C          8.6780  -22.8500   28.4130 C.2    67  ASP67       0.2266
     42  O          9.0930  -23.6240   27.5130 O.2    67  ASP67      -0.2867
     43  CB         7.0470  -20.9690   28.0860 C.3    67  ASP67       0.1410
     44  CG         6.1840  -21.7790   27.1540 C.2    67  ASP67       0.3668
     45  OD1        5.4330  -21.1790   26.3630 O.co2  67  ASP67      -0.2456
     46  OD2        6.1410  -23.0760   27.1980 O.co2  67  ASP67      -0.2456
     47  N          3.7540  -27.3790   28.3200 N.3    70  ARG70      -0.1231
     48  CA         3.6160  -28.7240   27.7910 C.3    70  ARG70       0.1694
     49  C          4.2330  -28.9270   26.4650 C.2    70  ARG70       0.2593
     50  O          4.3650  -30.0990   26.0460 O.2    70  ARG70      -0.2718
     51  CB         2.1340  -29.0820   27.7180 C.3    70  ARG70       0.0321
     52  CG         1.5750  -29.3720   29.0780 C.3    70  ARG70       0.0489
     53  CD         0.0620  -29.4160   29.0740 C.3    70  ARG70       0.2205
     54  NE        -0.5360  -28.1540   28.7290 N.pl3  70  ARG70      -0.0865
     55  CZ        -1.8310  -27.9450   28.5870 C.cat  70  ARG70       0.5346
     56  NH1       -2.3210  -26.7350   28.3890 N.pl3  70  ARG70       0.1354
     57  NH2       -2.7110  -28.9780   28.7380 N.pl3  70  ARG70       0.1354
     58  N          4.5090  -27.8380   25.7790 N.am   71  GLY71      -0.1942
     59  CA         4.8750  -27.9570   24.3310 C.3    71  GLY71       0.2014
     60  C          3.6660  -27.9000   23.4730 C.2    71  GLY71       0.2639
     61  O          2.6270  -28.6100   23.7350 O.2    71  GLY71      -0.2714
     62  N          3.6640  -27.0430   22.4220 N.am   72  ILE72      -0.1963
     63  CA         2.4890  -26.9710   21.5710 C.3    72  ILE72       0.1712
     64  C          2.3100  -28.3390   20.8760 C.2    72  ILE72       0.2458
     65  O          3.2880  -28.9420   20.4270 O.2    72  ILE72      -0.2730
     66  CB         2.5780  -25.8780   20.4780 C.3    72  ILE72       0.0289
     67  CG1        2.9160  -24.5660   21.0650 C.3    72  ILE72       0.0022
     68  CG2        1.3170  -25.8440   19.6270 C.3    72  ILE72       0.0023
     69  CD1        3.2810  -23.5290   20.0260 C.3    72  ILE72       0.0001
     70  N          1.0550  -28.8760   20.8450 N.am   73  PRO73      -0.2727
     71  CA         0.9140  -30.2500   20.3430 C.3    73  PRO73       0.1402
     72  C          1.2170  -30.3500   18.8790 C.2    73  PRO73       0.2269
     73  O          1.1030  -29.3470   18.1400 O.2    73  PRO73      -0.2865
     74  CB        -0.6080  -30.5350   20.5630 C.3    73  PRO73       0.0296
     75  CG        -0.9150  -29.7030   21.7750 C.3    73  PRO73       0.0237
     76  CD        -0.1950  -28.3940   21.4480 C.3    73  PRO73       0.0939
     77  N         -1.7300  -23.4990   14.7660 N.3    88  ILE88      -0.1231
     78  CA        -1.7120  -22.4750   15.7480 C.3    88  ILE88       0.1692
     79  C         -0.7830  -21.3420   15.2380 C.2    88  ILE88       0.2591
     80  O         -1.1550  -20.1790   15.2770 O.2    88  ILE88      -0.2718
     81  CB        -1.2620  -23.0250   17.0920 C.3    88  ILE88       0.0266
     82  CG1       -2.4900  -23.7410   17.6830 C.3    88  ILE88       0.0019
     83  CG2       -0.6670  -21.9410   18.0360 C.3    88  ILE88       0.0020
     84  CD1       -1.9810  -24.7080   18.7420 C.3    88  ILE88       0.0001
     85  N          0.3600  -21.7200   14.6940 N.am   89  LEU89      -0.1980
     86  CA         1.3260  -20.7070   14.2830 C.3    89  LEU89       0.1596
     87  C          1.0310  -20.0580   12.9690 C.2    89  LEU89       0.2287
     88  O          1.2650  -18.8390   12.8120 O.2    89  LEU89      -0.2864
     89  CB         2.7490  -21.2800   14.3340 C.3    89  LEU89       0.0297
     90  CG         3.2250  -21.5670   15.7890 C.3    89  LEU89       0.0022
     91  CD1        4.6650  -21.9250   15.6840 C.3    89  LEU89       0.0001
     92  CD2        3.0790  -20.3360   16.7200 C.3    89  LEU89       0.0001
     93  N          8.4370  -32.0890   23.3760 N.3   107  ARG107     -0.1245
     94  CA         7.2100  -32.7380   23.7430 C.3   107  ARG107      0.1563
     95  C          7.4130  -34.2550   23.3830 C.2   107  ARG107      0.2260
     96  O          8.0620  -34.5600   22.3740 O.2   107  ARG107     -0.2867
     97  CB         6.0360  -32.1460   23.0680 C.3   107  ARG107      0.0307
     98  CG         4.7030  -32.5940   23.4840 C.3   107  ARG107      0.0489
     99  CD         3.6510  -31.8860   22.6920 C.3   107  ARG107      0.2205
    100  NE         2.3420  -32.5010   22.9070 N.pl3 107  ARG107     -0.0865
    101  CZ         1.4760  -32.1690   23.8250 C.cat 107  ARG107      0.5346
    102  NH1        1.7270  -31.2260   24.7070 N.pl3 107  ARG107      0.1354
    103  NH2        0.3040  -32.8030   23.8830 N.pl3 107  ARG107      0.1354
    104  N          8.2210  -24.8780   24.8240 N.3   136  THR136     -0.1218
    105  CA         8.1220  -24.3330   23.4620 C.3   136  THR136      0.1862
    106  C          9.0820  -23.1720   23.3450 C.2   136  THR136      0.2287
    107  O          9.1460  -22.2940   24.2550 O.2   136  THR136     -0.2866
    108  CB         6.7320  -23.9020   23.0490 C.3   136  THR136      0.1770
    109  OG1        5.7890  -24.9660   23.2830 O.3   136  THR136     -0.2211
    110  CG2        6.6360  -23.2990   21.6030 C.3   136  THR136      0.0375
    111  N          9.9020  -20.0730   20.5380 N.3   138  ILE138     -0.1245
    112  CA         9.5700  -19.3290   19.2710 C.3   138  ILE138      0.1561
    113  C         10.6390  -18.2410   19.0830 C.2   138  ILE138      0.2260
    114  O         10.8810  -17.4510   20.0310 O.2   138  ILE138     -0.2867
    115  CB         8.1640  -18.7590   19.3380 C.3   138  ILE138      0.0252
    116  CG1        7.1550  -19.8730   19.2190 C.3   138  ILE138      0.0019
    117  CG2        7.9460  -17.7500   18.2420 C.3   138  ILE138      0.0019
    118  CD1        5.7000  -19.4270   19.3530 C.3   138  ILE138      0.0001
@<TRIPOS>BOND
     1    88    87    2
     2    87    86    1
     3    86    89    1
     4    86    85    1
     5    89    90    1
     6    85    79   am
     7    77    78    1
     8    79    80    2
     9    79    78    1
    10    91    90    1
    11    78    81    1
    12    90    92    1
    13    81    82    1
    14    81    83    1
    15    82    84    1
    16    73    72    2
    17   117   115    1
    18    72    71    1
    19   113   112    1
    20   113   114    2
    21   116   115    1
    22   116   118    1
    23   112   115    1
    24   112   111    1
    25     8     6    1
    26    68    66    1
    27    69    67    1
    28     6     5    1
    29    71    74    1
    30    71    70    1
    31    65    64    2
    32    66    67    1
    33    66    63    1
    34    74    75    1
    35    70    64   am
    36    70    76    1
    37    64    63    1
    38    76    75    1
    39    16    14   am
    40    63    62    1
    41   110   108    1
    42     5     7    1
    43     5     2    1
    44     1     2    1
    45     2     3    1
    46    96    95    2
    47    62    60   am
    48    32    33    1
    49    14    15    2
    50    14    13    1
    51    99   100    1
    52    99    98    1
    53   100   101    2
    54   108   109    1
    55   108   105    1
    56    97    98    1
    57    97    94    1
    58    35    34    2
    59    38    36    1
    60   106   105    1
    61   106   107    2
    62    93    94    1
    63    95    94    1
    64   105   104    1
    65    60    61    2
    66    60    59    1
    67    36    33    1
    68    36    37    1
    69    33    34    1
    70    13    10    1
    71     3     4    2
    72   101   103    1
    73   101   102    1
    74    59    58    1
    75    10     9    1
    76    10    11    1
    77    58    49   am
    78    50    49    2
    79    11    17   am
    80    11    12    2
    81    45    44   ar
    82    22    21    1
    83    49    48    1
    84    17    18    1
    85    39    40    1
    86    44    46   ar
    87    44    43    1
    88    42    41    2
    89    18    21    1
    90    18    19    1
    91    51    48    1
    92    51    52    1
    93    48    47    1
    94    30    29   ar
    95    43    40    1
    96    40    41    1
    97    29    31   ar
    98    29    28    1
    99    56    55    1
   100    55    54    2
   101    55    57    1
   102    27    28    1
   103    27    24    1
   104    54    53    1
   105    19    20    2
   106    53    52    1
   107    23    24    1
   108    24    25    1
   109    25    26    2
