@<TRIPOS>MOLECULE
tmp/5d7iC00.pdb
 157 153 0 0 0
SMALL
GASTEIGER

@<TRIPOS>ATOM
      1  N        134.9720   41.0100  319.0830 N.3     7  TYR7       -0.1241
      2  CA       134.8250   41.6330  320.3830 C.3     7  TYR7        0.1605
      3  C        135.1740   43.1090  320.2790 C.2     7  TYR7        0.2264
      4  O        136.2410   43.4600  319.7690 O.2     7  TYR7       -0.2867
      5  CB       135.7310   40.9580  321.4050 C.3     7  TYR7        0.0534
      6  CG       135.3150   39.5610  321.7470 C.ar    7  TYR7       -0.0201
      7  CD1      134.1630   39.3230  322.4860 C.ar    7  TYR7       -0.0009
      8  CD2      136.0800   38.4750  321.3520 C.ar    7  TYR7       -0.0009
      9  CE1      133.7900   38.0400  322.8250 C.ar    7  TYR7        0.0417
     10  CE2      135.7100   37.1890  321.6800 C.ar    7  TYR7        0.0417
     11  CZ       134.5660   36.9770  322.4190 C.ar    7  TYR7        0.1957
     12  OH       134.1980   35.6930  322.7540 O.3     7  TYR7       -0.2866
     13  N        135.4250   46.9540  322.3980 N.3     9  ARG9       -0.1245
     14  CA       135.5530   47.6430  323.6780 C.3     9  ARG9        0.1563
     15  C        135.3140   49.1330  323.4630 C.2     9  ARG9        0.2260
     16  O        135.8050   49.7120  322.4920 O.2     9  ARG9       -0.2867
     17  CB       136.9330   47.4240  324.3060 C.3     9  ARG9        0.0307
     18  CG       137.2410   45.9860  324.6830 C.3     9  ARG9        0.0489
     19  CD       138.5990   45.8430  325.3500 C.3     9  ARG9        0.2205
     20  NE       139.0430   44.4540  325.3020 N.pl3   9  ARG9       -0.0865
     21  CZ       140.2950   44.0400  325.4560 C.cat   9  ARG9        0.5346
     22  NH1      141.2810   44.9060  325.6890 N.pl3   9  ARG9        0.1354
     23  NH2      140.5610   42.7440  325.3640 N.pl3   9  ARG9        0.1354
     24  N        132.1180   46.3090  326.9170 N.3    24  SER24      -0.1217
     25  CA       132.6230   45.3230  325.9660 C.3    24  SER24       0.1889
     26  C        131.4910   44.4070  325.5030 C.2    24  SER24       0.2288
     27  O        130.7510   43.8440  326.3190 O.2    24  SER24      -0.2866
     28  CB       133.7640   44.5130  326.5880 C.3    24  SER24       0.2089
     29  OG       134.1510   43.4330  325.7580 O.3    24  SER24      -0.2183
     30  N        127.8380   38.4030  323.9170 N.3    34  THR34      -0.1218
     31  CA       128.3800   38.6560  325.2530 C.3    34  THR34       0.1862
     32  C        128.3380   40.1400  325.5830 C.2    34  THR34       0.2287
     33  O        128.4220   40.9850  324.6900 O.2    34  THR34      -0.2866
     34  CB       129.8520   38.1970  325.3970 C.3    34  THR34       0.1770
     35  OG1      130.6860   39.0120  324.5640 O.3    34  THR34      -0.2211
     36  CG2      130.0440   36.7130  325.0410 C.3    34  THR34       0.0375
     37  N        130.8010   39.6520  333.0270 N.3    43  LYS43      -0.1245
     38  CA       130.5750   39.2990  331.6290 C.3    43  LYS43       0.1561
     39  C        129.4030   38.3420  331.5580 C.2    43  LYS43       0.2260
     40  O        129.3920   37.3170  332.2410 O.2    43  LYS43      -0.2867
     41  CB       131.8100   38.6720  330.9790 C.3    43  LYS43       0.0271
     42  CG       131.6590   38.6190  329.4560 C.3    43  LYS43       0.0035
     43  CD       132.8170   37.9370  328.7680 C.3    43  LYS43       0.0206
     44  CE       132.8240   38.2830  327.2800 C.3    43  LYS43       0.1093
     45  NZ       134.0580   37.8500  326.5890 N.3    43  LYS43      -0.1314
     46  N        133.1780   29.6750  332.4010 N.3    58  HIS58      -0.1241
     47  CA       133.5470   30.5580  331.3050 C.3    58  HIS58       0.1621
     48  C        133.2800   32.0150  331.6670 C.2    58  HIS58       0.2264
     49  O        134.1190   32.8810  331.4490 O.2    58  HIS58      -0.2867
     50  CB       132.7860   30.1890  330.0310 C.3    58  HIS58       0.0745
     51  CG       133.1230   31.0620  328.8650 C.ar   58  HIS58       0.0817
     52  ND1      134.1790   30.7960  328.0160 N.ar   58  HIS58      -0.2268
     53  CD2      132.5620   32.2130  328.4240 C.ar   58  HIS58       0.1154
     54  CE1      134.2380   31.7350  327.0870 C.ar   58  HIS58       0.1986
     55  NE2      133.2700   32.6090  327.3140 N.ar   58  HIS58      -0.2212
     56  N        136.2250   35.0470  332.3380 N.3    62  TYR62      -0.1241
     57  CA       136.2920   36.2240  331.4770 C.3    62  TYR62       0.1605
     58  C        135.8190   37.4840  332.2110 C.2    62  TYR62       0.2264
     59  O        136.2220   38.6000  331.8670 O.2    62  TYR62      -0.2867
     60  CB       135.4980   35.9710  330.1790 C.3    62  TYR62       0.0534
     61  CG       136.3320   35.1610  329.2070 C.ar   62  TYR62      -0.0201
     62  CD1      137.2380   35.7840  328.3630 C.ar   62  TYR62      -0.0009
     63  CD2      136.2750   33.7670  329.1920 C.ar   62  TYR62      -0.0009
     64  CE1      138.0410   35.0520  327.5030 C.ar   62  TYR62       0.0417
     65  CE2      137.0740   33.0230  328.3230 C.ar   62  TYR62       0.0417
     66  CZ       137.9580   33.6720  327.4930 C.ar   62  TYR62       0.1957
     67  OH       138.7610   32.9550  326.6340 O.3    62  TYR62      -0.2866
     68  N        138.0830   40.6760  332.0130 N.3    66  LEU66      -0.1245
     69  CA       137.5490   41.9710  331.6060 C.3    66  LEU66       0.1561
     70  C        137.7290   43.0470  332.6670 C.2    66  LEU66       0.2260
     71  O        137.9670   44.2090  332.3420 O.2    66  LEU66      -0.2867
     72  CB       136.0810   41.8340  331.2240 C.3    66  LEU66       0.0270
     73  CG       136.0140   41.5140  329.7280 C.3    66  LEU66       0.0019
     74  CD1      134.8950   40.5680  329.4670 C.3    66  LEU66       0.0001
     75  CD2      135.8380   42.7930  328.9290 C.3    66  LEU66       0.0001
     76  N        141.0500   44.1330  331.8620 N.3    69  TRP69      -0.1241
     77  CA       141.0520   44.8560  330.6030 C.3    69  TRP69       0.1605
     78  C        140.3870   46.2230  330.7590 C.2    69  TRP69       0.2264
     79  O        140.8230   47.1960  330.1440 O.2    69  TRP69      -0.2867
     80  CB       140.3590   44.0340  329.5050 C.3    69  TRP69       0.0550
     81  CG       141.1340   42.7880  329.1580 C.ar   69  TRP69       0.0003
     82  CD1      142.4490   42.5280  329.4510 C.ar   69  TRP69       0.0946
     83  CD2      140.6440   41.6330  328.4720 C.ar   69  TRP69       0.0152
     84  NE1      142.8020   41.2880  328.9880 N.ar   69  TRP69      -0.2442
     85  CE2      141.7150   40.7170  328.3790 C.ar   69  TRP69       0.0810
     86  CE3      139.4070   41.2810  327.9290 C.ar   69  TRP69       0.0012
     87  CZ2      141.5820   39.4740  327.7660 C.ar   69  TRP69       0.0191
     88  CZ3      139.2830   40.0470  327.3080 C.ar   69  TRP69       0.0001
     89  CH2      140.3660   39.1590  327.2370 C.ar   69  TRP69       0.0015
     90  N        138.1880   49.5480  320.6690 N.3    94  ARG94      -0.1245
     91  CA       138.9640   48.4340  320.1570 C.3    94  ARG94       0.1563
     92  C        138.0310   47.4590  319.4680 C.2    94  ARG94       0.2260
     93  O        136.8950   47.2680  319.9020 O.2    94  ARG94      -0.2867
     94  CB       139.7190   47.7400  321.2910 C.3    94  ARG94       0.0307
     95  CG       140.4840   46.4750  320.9170 C.3    94  ARG94       0.0489
     96  CD       140.9340   45.7780  322.2110 C.3    94  ARG94       0.2205
     97  NE       142.1710   45.0100  322.0890 N.pl3  94  ARG94      -0.0865
     98  CZ       142.2210   43.6820  322.0090 C.cat  94  ARG94       0.5346
     99  NH1      141.0990   42.9720  322.0120 N.pl3  94  ARG94       0.1354
    100  NH2      143.3940   43.0630  321.9140 N.pl3  94  ARG94       0.1354
    101  N        138.4930   43.4430  317.8140 N.3    96  ILE96      -0.1245
    102  CA       139.2790   42.2920  317.3920 C.3    96  ILE96       0.1561
    103  C        138.3260   41.2490  316.8450 C.2    96  ILE96       0.2260
    104  O        137.1850   41.1760  317.2700 O.2    96  ILE96      -0.2867
    105  CB       140.1200   41.7100  318.5570 C.3    96  ILE96       0.0252
    106  CG1      141.2430   40.8090  318.0250 C.3    96  ILE96       0.0019
    107  CG2      139.2290   40.9790  319.5760 C.3    96  ILE96       0.0019
    108  CD1      142.2870   40.4390  319.1100 C.3    96  ILE96       0.0001
    109  N        151.5450   36.6980  319.2100 N.3   152  TYR152     -0.1227
    110  CA       150.3990   36.1900  319.9650 C.3   152  TYR152      0.1736
    111  C        149.0770   36.6670  319.3980 C.2   152  TYR152      0.2595
    112  O        148.1040   35.9090  319.3330 O.2   152  TYR152     -0.2718
    113  CB       150.5820   36.6130  321.4200 C.3   152  TYR152      0.0548
    114  CG       149.3900   36.7770  322.3350 C.ar  152  TYR152     -0.0200
    115  CD1      148.9950   35.7460  323.1800 C.ar  152  TYR152     -0.0009
    116  CD2      148.7350   37.9970  322.4490 C.ar  152  TYR152     -0.0009
    117  CE1      147.9330   35.9040  324.0770 C.ar  152  TYR152      0.0417
    118  CE2      147.6740   38.1710  323.3430 C.ar  152  TYR152      0.0417
    119  CZ       147.2830   37.1220  324.1580 C.ar  152  TYR152      0.1957
    120  OH       146.2340   37.2730  325.0460 O.3   152  TYR152     -0.2866
    121  N        149.0490   37.9200  318.9620 N.am  153  GLN153     -0.1979
    122  CA       147.8590   38.4730  318.3320 C.3   153  GLN153      0.1601
    123  C        147.6240   37.8130  316.9690 C.2   153  GLN153      0.2287
    124  O        146.4910   37.4850  316.6200 O.2   153  GLN153     -0.2864
    125  CB       147.9800   39.9970  318.2310 C.3   153  GLN153      0.0394
    126  CG       147.9030   40.6360  319.6260 C.3   153  GLN153      0.0908
    127  CD       148.3320   42.0890  319.6790 C.2   153  GLN153      0.2608
    128  OE1      149.1330   42.5480  318.8690 O.2   153  GLN153     -0.2717
    129  NE2      147.7840   42.8260  320.6410 N.am  153  GLN153     -0.0878
    130  N        146.3130   34.3010  317.6840 N.3   156  TRP156     -0.1241
    131  CA       144.9340   34.3490  318.1550 C.3   156  TRP156      0.1605
    132  C        143.9810   34.6550  317.0010 C.2   156  TRP156      0.2264
    133  O        142.9410   34.0090  316.8550 O.2   156  TRP156     -0.2867
    134  CB       144.7490   35.3850  319.2640 C.3   156  TRP156      0.0550
    135  CG       143.4150   35.2070  319.9450 C.ar  156  TRP156      0.0003
    136  CD1      143.1500   34.3900  320.9950 C.ar  156  TRP156      0.0946
    137  CD2      142.1600   35.8170  319.5830 C.ar  156  TRP156      0.0152
    138  NE1      141.8260   34.4630  321.3320 N.ar  156  TRP156     -0.2442
    139  CE2      141.1900   35.3270  320.4820 C.ar  156  TRP156      0.0810
    140  CE3      141.7670   36.7230  318.5880 C.ar  156  TRP156      0.0012
    141  CZ2      139.8500   35.7190  320.4300 C.ar  156  TRP156      0.0191
    142  CZ3      140.4280   37.1120  318.5290 C.ar  156  TRP156      0.0001
    143  CH2      139.4860   36.6100  319.4470 C.ar  156  TRP156      0.0015
    144  N        137.1450   29.5050  318.1320 N.3   164  TRP164     -0.1241
    145  CA       136.0160   30.0250  318.9070 C.3   164  TRP164      0.1605
    146  C        134.7820   30.2210  318.0130 C.2   164  TRP164      0.2264
    147  O        133.6600   29.8840  318.3950 O.2   164  TRP164     -0.2867
    148  CB       136.3700   31.3600  319.5700 C.3   164  TRP164      0.0550
    149  CG       137.2150   31.2950  320.8200 C.ar  164  TRP164      0.0003
    150  CD1      138.4910   31.7540  320.9660 C.ar  164  TRP164      0.0946
    151  CD2      136.8270   30.7860  322.1030 C.ar  164  TRP164      0.0152
    152  NE1      138.9280   31.5490  322.2470 N.ar  164  TRP164     -0.2442
    153  CE2      137.9260   30.9560  322.9690 C.ar  164  TRP164      0.0810
    154  CE3      135.6600   30.1940  322.6000 C.ar  164  TRP164      0.0012
    155  CZ2      137.8940   30.5610  324.3110 C.ar  164  TRP164      0.0191
    156  CZ3      135.6270   29.8010  323.9280 C.ar  164  TRP164      0.0001
    157  CH2      136.7400   29.9870  324.7700 C.ar  164  TRP164      0.0015
@<TRIPOS>BOND
     1   124   123    2
     2   103   104    2
     3   103   102    1
     4   133   132    2
     5   123   122    1
     6   132   131    1
     7   102   101    1
     8   102   105    1
     9   130   131    1
    10   146   147    2
    11   146   145    1
    12   106   105    1
    13   106   108    1
    14   144   145    1
    15   131   134    1
    16   125   122    1
    17   125   126    1
    18   122   121    1
    19   142   140   ar
    20   142   143   ar
    21   105   107    1
    22   140   137   ar
    23   128   127    2
    24   145   148    1
    25   121   111   am
    26     1     2    1
    27   109   110    1
    28   134   135    1
    29   112   111    2
    30   111   110    1
    31   143   141   ar
    32    92    93    2
    33    92    91    1
    34   148   149    1
    35   137   135   ar
    36   137   139   ar
    37   126   127    1
    38   127   129   am
    39     4     3    2
    40   135   136   ar
    41   110   113    1
    42    91    90    1
    43    91    94    1
    44     3     2    1
    45     2     5    1
    46   141   139   ar
    47   139   138   ar
    48   149   150   ar
    49   149   151   ar
    50    95    94    1
    51    95    96    1
    52   150   152   ar
    53   136   138   ar
    54     8    10   ar
    55     8     6   ar
    56     5     6    1
    57   113   114    1
    58    10    11   ar
    59     6     7   ar
    60   100    98    1
    61    98    99    1
    62    98    97    2
    63    97    96    1
    64   151   154   ar
    65   151   153   ar
    66   152   153   ar
    67   114   116   ar
    68   114   115   ar
    69    13    14    1
    70    11    12    1
    71    11     9   ar
    72   116   118   ar
    73     7     9   ar
    74    16    15    2
    75   154   156   ar
    76   153   155   ar
    77   115   117   ar
    78   118   119   ar
    79    15    14    1
    80    14    17    1
    81    30    31    1
    82   156   157   ar
    83   117   119   ar
    84   119   120    1
    85    17    18    1
    86   155   157   ar
    87    35    34    1
    88    18    19    1
    89    33    32    2
    90    36    34    1
    91    31    34    1
    92    31    32    1
    93    20    19    1
    94    20    21    2
    95    23    21    1
    96    21    22    1
    97    26    25    1
    98    26    27    2
    99    29    28    1
   100    25    28    1
   101    25    24    1
   102    45    44    1
   103    67    66    1
   104    54    55   ar
   105    54    52   ar
   106    89    88   ar
   107    89    87   ar
   108    44    43    1
   109    88    86   ar
   110    55    53   ar
   111    66    64   ar
   112    66    65   ar
   113    64    62   ar
   114    87    85   ar
   115    86    83   ar
   116    52    51   ar
   117    65    63   ar
   118    62    61   ar
   119    85    83   ar
   120    85    84   ar
   121    53    51   ar
   122    83    81   ar
   123    43    42    1
   124    51    50    1
   125    75    73    1
   126    84    82   ar
   127    81    82   ar
   128    81    80    1
   129    63    61   ar
   130    61    60    1
   131    42    41    1
   132    74    73    1
   133    80    77    1
   134    73    72    1
   135    50    47    1
   136    79    78    2
   137    60    57    1
   138    77    78    1
   139    77    76    1
   140    41    38    1
   141    72    69    1
   142    47    48    1
   143    47    46    1
   144    49    48    2
   145    57    58    1
   146    57    56    1
   147    39    38    1
   148    39    40    2
   149    69    68    1
   150    69    70    1
   151    38    37    1
   152    59    58    2
   153    71    70    2
