@<TRIPOS>MOLECULE
tmp/5d7nD00.pdb
 130 128 0 0 0
SMALL
GASTEIGER

@<TRIPOS>ATOM
      1  N         60.2860   42.9120  -43.3540 N.3    26  ALA26      -0.1245
      2  CA        60.8200   42.6380  -44.6910 C.3    26  ALA26       0.1562
      3  C         59.8070   41.9890  -45.6080 C.2    26  ALA26       0.2260
      4  O         59.8700   42.1660  -46.8280 O.2    26  ALA26      -0.2867
      5  CB        62.0570   41.7630  -44.5790 C.3    26  ALA26       0.0290
      6  N         70.2300   42.2050  -48.9490 N.3    37  PHE37      -0.1227
      7  CA        71.6850   42.3040  -49.0800 C.3    37  PHE37       0.1736
      8  C         72.4390   41.0350  -48.6450 C.2    37  PHE37       0.2595
      9  O         73.5660   40.8200  -49.0900 O.2    37  PHE37      -0.2718
     10  CB        72.2360   43.5220  -48.3270 C.3    37  PHE37       0.0547
     11  CG        72.2910   43.3490  -46.8380 C.ar   37  PHE37      -0.0202
     12  CD1       71.1530   43.5360  -46.0580 C.ar   37  PHE37      -0.0042
     13  CD2       73.4850   42.9990  -46.2040 C.ar   37  PHE37      -0.0042
     14  CE1       71.2030   43.3780  -44.6790 C.ar   37  PHE37      -0.0003
     15  CE2       73.5340   42.8320  -44.8260 C.ar   37  PHE37      -0.0003
     16  CZ        72.3950   43.0250  -44.0640 C.ar   37  PHE37      -0.0000
     17  N         71.8310   40.2030  -47.7990 N.am   38  ARG38      -0.1980
     18  CA        72.5270   39.0070  -47.2890 C.3    38  ARG38       0.1597
     19  C         72.1290   37.7090  -48.0060 C.2    38  ARG38       0.2287
     20  O         72.7570   36.6820  -47.7830 O.2    38  ARG38      -0.2864
     21  CB        72.3900   38.8280  -45.7600 C.3    38  ARG38       0.0334
     22  CG        71.4260   39.7450  -45.0350 C.3    38  ARG38       0.0492
     23  CD        70.8920   39.1370  -43.7520 C.3    38  ARG38       0.2205
     24  NE        70.3050   40.1480  -42.8660 N.pl3  38  ARG38      -0.0865
     25  CZ        69.0370   40.5630  -42.8890 C.cat  38  ARG38       0.5346
     26  NH1       68.1640   40.0740  -43.7650 N.pl3  38  ARG38       0.1354
     27  NH2       68.6390   41.4890  -42.0220 N.pl3  38  ARG38       0.1354
     28  N         77.2170   47.4040  -42.8790 N.3    60  PHE60      -0.1241
     29  CA        76.6060   48.2260  -41.8480 C.3    60  PHE60       0.1605
     30  C         77.4780   48.3650  -40.6240 C.2    60  PHE60       0.2264
     31  O         76.9710   48.7040  -39.5620 O.2    60  PHE60      -0.2867
     32  CB        75.2550   47.6220  -41.4190 C.3    60  PHE60       0.0534
     33  CG        74.2480   47.5730  -42.5200 C.ar   60  PHE60      -0.0203
     34  CD1       73.5080   48.6900  -42.8400 C.ar   60  PHE60      -0.0042
     35  CD2       74.0340   46.4130  -43.2360 C.ar   60  PHE60      -0.0042
     36  CE1       72.5600   48.6470  -43.8580 C.ar   60  PHE60      -0.0003
     37  CE2       73.0950   46.3670  -44.2470 C.ar   60  PHE60      -0.0003
     38  CZ        72.3660   47.4830  -44.5730 C.ar   60  PHE60      -0.0000
     39  N         60.6440   48.2460  -39.9660 N.3   108  GLN108     -0.1231
     40  CA        61.9940   47.7320  -39.8830 C.3   108  GLN108      0.1698
     41  C         62.7870   47.8940  -41.1830 C.2   108  GLN108      0.2592
     42  O         63.9970   47.6680  -41.2060 O.2   108  GLN108     -0.2718
     43  CB        61.9390   46.2540  -39.5360 C.3   108  GLN108      0.0381
     44  CG        61.5200   45.9550  -38.1140 C.3   108  GLN108      0.0905
     45  CD        62.6520   46.1980  -37.1340 C.2   108  GLN108      0.2608
     46  OE1       63.1250   47.3210  -36.9970 O.2   108  GLN108     -0.2717
     47  NE2       63.0990   45.1470  -36.4450 N.am  108  GLN108     -0.0878
     48  N         62.1050   48.2650  -42.2500 N.am  109  ASN109     -0.1960
     49  CA        62.6940   48.2750  -43.5900 C.3   109  ASN109      0.1819
     50  C         63.4720   49.5250  -43.8950 C.2   109  ASN109      0.2621
     51  O         63.1670   50.5990  -43.3780 O.2   109  ASN109     -0.2715
     52  CB        61.6040   48.0890  -44.6330 C.3   109  ASN109      0.1195
     53  CG        60.8250   46.8240  -44.4290 C.2   109  ASN109      0.2630
     54  OD1       61.3130   45.8630  -43.8310 O.2   109  ASN109     -0.2716
     55  ND2       59.6160   46.7970  -44.9360 N.am  109  ASN109     -0.0877
     56  N         64.4990   49.3830  -44.7330 N.am  110  ILE110     -0.1977
     57  CA        65.2510   50.5490  -45.1770 C.3   110  ILE110      0.1596
     58  C         64.9720   50.8980  -46.6390 C.2   110  ILE110      0.2287
     59  O         65.6070   51.7880  -47.1800 O.2   110  ILE110     -0.2864
     60  CB        66.7790   50.3700  -44.9630 C.3   110  ILE110      0.0276
     61  CG1       67.3080   49.1690  -45.7500 C.3   110  ILE110      0.0022
     62  CG2       67.0730   50.1740  -43.4820 C.3   110  ILE110      0.0022
     63  CD1       68.8220   49.1450  -45.8490 C.3   110  ILE110      0.0001
     64  N         65.2390   51.4480  -38.6200 N.3   128  HIS128     -0.1241
     65  CA        66.5830   51.2110  -39.1780 C.3   128  HIS128      0.1621
     66  C         67.1310   52.3700  -39.9680 C.2   128  HIS128      0.2264
     67  O         68.1730   52.2530  -40.6360 O.2   128  HIS128     -0.2867
     68  CB        66.5790   49.9420  -40.0180 C.3   128  HIS128      0.0745
     69  CG        66.7990   48.7090  -39.2090 C.ar  128  HIS128      0.0817
     70  ND1       68.0570   48.2230  -38.9240 N.ar  128  HIS128     -0.2268
     71  CD2       65.9270   47.8840  -38.5880 C.ar  128  HIS128      0.1154
     72  CE1       67.9470   47.1380  -38.1790 C.ar  128  HIS128      0.1986
     73  NE2       66.6660   46.9200  -37.9510 N.ar  128  HIS128     -0.2212
     74  N         71.0930   55.7980  -42.3970 N.3   171  ILE171     -0.1231
     75  CA        70.8310   54.3910  -42.0910 C.3   171  ILE171      0.1692
     76  C         71.5250   54.0220  -40.7860 C.2   171  ILE171      0.2592
     77  O         72.6900   54.3710  -40.5890 O.2   171  ILE171     -0.2718
     78  CB        71.3590   53.4790  -43.2040 C.3   171  ILE171      0.0266
     79  CG1       70.6690   53.7930  -44.5380 C.3   171  ILE171      0.0019
     80  CG2       71.2170   52.0060  -42.8530 C.3   171  ILE171      0.0020
     81  CD1       69.1790   53.5010  -44.5950 C.3   171  ILE171      0.0001
     82  N         70.8320   53.2750  -39.9270 N.am  172  VAL172     -0.1966
     83  CA        71.3900   52.8350  -38.6430 C.3   172  VAL172      0.1727
     84  C         72.4070   51.7140  -38.8330 C.2   172  VAL172      0.2616
     85  O         72.1090   50.6950  -39.4690 O.2   172  VAL172     -0.2715
     86  CB        70.2830   52.3570  -37.6740 C.3   172  VAL172      0.0290
     87  CG1       70.8890   51.8140  -36.3820 C.3   172  VAL172      0.0023
     88  CG2       69.3220   53.5000  -37.3750 C.3   172  VAL172      0.0023
     89  N         73.6120   51.9190  -38.3020 N.am  173  PHE173     -0.1960
     90  CA        74.6820   50.9200  -38.3430 C.3   173  PHE173      0.1771
     91  C         74.7550   50.1460  -37.0230 C.2   173  PHE173      0.2620
     92  O         74.2850   50.6230  -35.9930 O.2   173  PHE173     -0.2715
     93  CB        76.0320   51.5900  -38.6360 C.3   173  PHE173      0.0574
     94  CG        76.2840   51.8350  -40.1110 C.ar  173  PHE173     -0.0200
     95  CD1       75.2530   52.1980  -40.9710 C.ar  173  PHE173     -0.0042
     96  CD2       77.5490   51.7130  -40.6340 C.ar  173  PHE173     -0.0042
     97  CE1       75.4830   52.4180  -42.3250 C.ar  173  PHE173     -0.0003
     98  CE2       77.7950   51.9250  -41.9860 C.ar  173  PHE173     -0.0003
     99  CZ        76.7630   52.2850  -42.8340 C.ar  173  PHE173     -0.0000
    100  N         75.3610   48.9630  -37.0680 N.am  174  PHE174     -0.1960
    101  CA        75.5620   48.1520  -35.8700 C.3   174  PHE174      0.1771
    102  C         76.1730   48.9570  -34.7410 C.2   174  PHE174      0.2620
    103  O         77.0700   49.7760  -34.9560 O.2   174  PHE174     -0.2715
    104  CB        76.4330   46.9340  -36.1750 C.3   174  PHE174      0.0574
    105  CG        75.7300   45.8960  -36.9990 C.ar  174  PHE174     -0.0200
    106  CD1       74.6480   45.1910  -36.4670 C.ar  174  PHE174     -0.0042
    107  CD2       76.1340   45.6200  -38.2930 C.ar  174  PHE174     -0.0042
    108  CE1       73.9860   44.2310  -37.2170 C.ar  174  PHE174     -0.0003
    109  CE2       75.4840   44.6410  -39.0460 C.ar  174  PHE174     -0.0003
    110  CZ        74.4050   43.9500  -38.5130 C.ar  174  PHE174     -0.0000
    111  N         75.6440   48.7580  -33.5440 N.am  175  GLY175     -0.1940
    112  CA        76.1580   49.4300  -32.3670 C.3   175  GLY175      0.2014
    113  C         75.5070   50.7710  -32.1260 C.2   175  GLY175      0.2638
    114  O         75.6150   51.2960  -31.0270 O.2   175  GLY175     -0.2714
    115  N         74.8200   51.3330  -33.1240 N.am  176  GLU176     -0.1977
    116  CA        74.1610   52.6290  -32.9570 C.3   176  GLU176      0.1602
    117  C         72.7910   52.4540  -32.3200 C.2   176  GLU176      0.2287
    118  O         72.1660   51.4160  -32.4830 O.2   176  GLU176     -0.2864
    119  CB        74.0190   53.3700  -34.2930 C.3   176  GLU176      0.0415
    120  CG        75.3510   53.6180  -34.9760 C.3   176  GLU176      0.1163
    121  CD        75.2740   54.5760  -36.1560 C.2   176  GLU176      0.3649
    122  OE1       74.3330   54.4920  -36.9840 O.co2 176  GLU176     -0.2457
    123  OE2       76.1900   55.4080  -36.2810 O.co2 176  GLU176     -0.2457
    124  N         63.3060   40.1310  -33.5770 N.3   204  VAL204     -0.1245
    125  CA        64.2420   41.1280  -33.0780 C.3   204  VAL204      0.1561
    126  C         63.5870   42.0460  -32.0600 C.2   204  VAL204      0.2260
    127  O         62.4830   42.5410  -32.2810 O.2   204  VAL204     -0.2867
    128  CB        64.7950   41.9930  -34.2230 C.3   204  VAL204      0.0252
    129  CG1       65.8160   42.9980  -33.6930 C.3   204  VAL204      0.0019
    130  CG2       65.4310   41.1150  -35.2920 C.3   204  VAL204      0.0019
@<TRIPOS>BOND
     1     9     8    2
     2     7     6    1
     3     7     8    1
     4     7    10    1
     5     8    17   am
     6    10    11    1
     7    19    20    2
     8    19    18    1
     9    17    18    1
    10    18    21    1
    11    59    58    2
    12    11    13   ar
    13    11    12   ar
    14     4     3    2
    15    58    57    1
    16    13    15   ar
    17    12    14   ar
    18    63    61    1
    19    21    22    1
    20    61    60    1
    21     3     2    1
    22    57    60    1
    23    57    56    1
    24    22    23    1
    25    60    62    1
    26    55    53   am
    27    15    16   ar
    28    56    50   am
    29     2     5    1
    30     2     1    1
    31    14    16   ar
    32    52    53    1
    33    52    49    1
    34    81    79    1
    35    38    37   ar
    36    38    36   ar
    37    79    78    1
    38    53    54    2
    39    37    35   ar
    40    50    49    1
    41    50    51    2
    42    36    34   ar
    43    26    25    1
    44    23    24    1
    45    49    48    1
    46    35    33   ar
    47    78    80    1
    48    78    75    1
    49    25    24    2
    50    25    27    1
    51    28    29    1
    52    34    33   ar
    53    99    97   ar
    54    99    98   ar
    55    33    32    1
    56    74    75    1
    57    97    95   ar
    58    48    41   am
    59    75    76    1
    60    98    96   ar
    61    29    32    1
    62    29    30    1
    63    42    41    2
    64    41    40    1
    65    95    94   ar
    66    76    77    2
    67    76    82   am
    68    67    66    2
    69    96    94   ar
    70    30    31    2
    71    94    93    1
    72    68    69    1
    73    68    65    1
    74    66    65    1
    75    39    40    1
    76    82    83    1
    77    40    43    1
    78    43    44    1
    79    85    84    2
    80    69    70   ar
    81    69    71   ar
    82    65    64    1
    83   109   110   ar
    84   109   107   ar
    85    70    72   ar
    86    84    83    1
    87    84    89   am
    88    83    86    1
    89    93    90    1
    90    71    73   ar
    91   110   108   ar
    92    90    89    1
    93    90    91    1
    94   107   105   ar
    95    72    73   ar
    96    44    45    1
    97    86    88    1
    98    86    87    1
    99   108   106   ar
   100    45    46    2
   101    45    47   am
   102   100    91   am
   103   100   101    1
   104    91    92    2
   105   105   106   ar
   106   105   104    1
   107   122   121   ar
   108   123   121   ar
   109   104   101    1
   110   121   120    1
   111   101   102    1
   112   130   128    1
   113   120   119    1
   114   103   102    2
   115   102   111   am
   116   119   116    1
   117   128   129    1
   118   128   125    1
   119   124   125    1
   120   111   112    1
   121   115   116    1
   122   115   113   am
   123   125   126    1
   124   116   117    1
   125   118   117    2
   126   112   113    1
   127   127   126    2
   128   113   114    2
