@<TRIPOS>MOLECULE
tmp/5d7nA00.pdb
 110 108 0 0 0
SMALL
GASTEIGER

@<TRIPOS>ATOM
      1  N         25.6580  -12.0010    1.3880 N.3    37  PHE37      -0.1227
      2  CA        26.3130  -13.0530    2.1800 C.3    37  PHE37       0.1736
      3  C         25.8460  -14.4800    1.8090 C.2    37  PHE37       0.2595
      4  O         26.5260  -15.4580    2.1350 O.2    37  PHE37      -0.2718
      5  CB        26.0900  -12.8220    3.6840 C.3    37  PHE37       0.0547
      6  CG        24.7330  -13.2340    4.1700 C.ar   37  PHE37      -0.0202
      7  CD1       23.6140  -12.4160    3.9650 C.ar   37  PHE37      -0.0042
      8  CD2       24.5570  -14.4460    4.8470 C.ar   37  PHE37      -0.0042
      9  CE1       22.3620  -12.7970    4.4110 C.ar   37  PHE37      -0.0003
     10  CE2       23.2990  -14.8330    5.3000 C.ar   37  PHE37      -0.0003
     11  CZ        22.1960  -14.0150    5.0740 C.ar   37  PHE37      -0.0000
     12  N         24.6710  -14.5800    1.1800 N.am   38  ARG38      -0.1980
     13  CA        24.1110  -15.8640    0.7470 C.3    38  ARG38       0.1597
     14  C         24.5860  -16.3070   -0.6220 C.2    38  ARG38       0.2287
     15  O         24.3510  -17.4500   -1.0040 O.2    38  ARG38      -0.2864
     16  CB        22.5850  -15.7930    0.6950 C.3    38  ARG38       0.0334
     17  CG        21.9010  -16.0150    2.0230 C.3    38  ARG38       0.0492
     18  CD        20.4150  -15.7270    1.8910 C.3    38  ARG38       0.2205
     19  NE        20.1960  -14.2910    1.7440 N.pl3  38  ARG38      -0.0865
     20  CZ        19.0970  -13.7270    1.2500 C.cat  38  ARG38       0.5346
     21  NH1       19.0280  -12.4020    1.1790 N.pl3  38  ARG38       0.1354
     22  NH2       18.0740  -14.4630    0.8210 N.pl3  38  ARG38       0.1354
     23  N         22.9500  -18.6020    6.4470 N.3    57  GLU57      -0.1245
     24  CA        21.9130  -17.9490    7.2390 C.3    57  GLU57       0.1567
     25  C         22.0230  -18.1640    8.7470 C.2    57  GLU57       0.2260
     26  O         21.4080  -17.4180    9.5270 O.2    57  GLU57      -0.2867
     27  CB        20.5340  -18.3940    6.7400 C.3    57  GLU57       0.0388
     28  CG        20.2460  -17.9030    5.3300 C.3    57  GLU57       0.1160
     29  CD        20.5960  -18.9020    4.2270 C.2    57  GLU57       0.3649
     30  OE1       21.3790  -19.8550    4.4580 O.co2  57  GLU57      -0.2457
     31  OE2       20.0770  -18.6970    3.1090 O.co2  57  GLU57      -0.2457
     32  N         22.4390  -15.3610   11.3490 N.3    60  PHE60      -0.1241
     33  CA        21.2890  -14.6400   11.8980 C.3    60  PHE60       0.1605
     34  C         20.4610  -15.5010   12.8490 C.2    60  PHE60       0.2264
     35  O         19.3120  -15.1950   13.1160 O.2    60  PHE60      -0.2867
     36  CB        20.4150  -14.1160   10.7620 C.3    60  PHE60       0.0534
     37  CG        21.0900  -13.0810    9.9230 C.ar   60  PHE60      -0.0203
     38  CD1       20.9980  -11.7410   10.2500 C.ar   60  PHE60      -0.0042
     39  CD2       21.8370  -13.4460    8.8250 C.ar   60  PHE60      -0.0042
     40  CE1       21.6290  -10.7750    9.4760 C.ar   60  PHE60      -0.0003
     41  CE2       22.4700  -12.4890    8.0380 C.ar   60  PHE60      -0.0003
     42  CZ        22.3710  -11.1490    8.3700 C.ar   60  PHE60      -0.0000
     43  N         20.0100   -3.8400    5.3650 N.3   110  ILE110     -0.1245
     44  CA        20.7700   -3.5540    6.5940 C.3   110  ILE110      0.1561
     45  C         22.0570   -2.8260    6.2600 C.2   110  ILE110      0.2260
     46  O         22.9290   -2.6540    7.1230 O.2   110  ILE110     -0.2867
     47  CB        21.0510   -4.8360    7.4100 C.3   110  ILE110      0.0252
     48  CG1       21.8220   -5.8580    6.5810 C.3   110  ILE110      0.0019
     49  CG2       19.7260   -5.4350    7.8750 C.3   110  ILE110      0.0019
     50  CD1       22.4150   -6.9950    7.3980 C.3   110  ILE110      0.0001
     51  N         14.6420   -4.8310    8.9420 N.3   128  HIS128     -0.1241
     52  CA        15.5470   -5.9020    9.3510 C.3   128  HIS128      0.1621
     53  C         16.5570   -5.4190   10.3610 C.2   128  HIS128      0.2264
     54  O         17.5190   -6.1160   10.6360 O.2   128  HIS128     -0.2867
     55  CB        16.2940   -6.4830    8.1560 C.3   128  HIS128      0.0745
     56  CG        15.5360   -7.5550    7.4650 C.ar  128  HIS128      0.0817
     57  ND1       15.6290   -8.8850    7.8260 N.ar  128  HIS128     -0.2268
     58  CD2       14.6390   -7.4970    6.4590 C.ar  128  HIS128      0.1154
     59  CE1       14.8220   -9.6000    7.0570 C.ar  128  HIS128      0.1986
     60  NE2       14.2080   -8.7800    6.2220 N.ar  128  HIS128     -0.2212
     61  N         17.8830   -7.6780   13.2170 N.3   172  VAL172     -0.1231
     62  CA        16.8580   -8.6890   13.5310 C.3   172  VAL172      0.1692
     63  C         17.3250  -10.1070   13.1740 C.2   172  VAL172      0.2592
     64  O         17.7080  -10.4010   12.0330 O.2   172  VAL172     -0.2718
     65  CB        15.5470   -8.3760   12.7910 C.3   172  VAL172      0.0266
     66  CG1       14.4780   -9.4240   13.0800 C.3   172  VAL172      0.0020
     67  CG2       15.0410   -6.9840   13.1670 C.3   172  VAL172      0.0020
     68  N         17.2740  -11.0010   14.1490 N.am  173  PHE173     -0.1962
     69  CA        17.6610  -12.3950   13.9440 C.3   173  PHE173      0.1771
     70  C         16.3970  -13.2610   13.7590 C.2   173  PHE173      0.2620
     71  O         15.2900  -12.8280   14.0700 O.2   173  PHE173     -0.2715
     72  CB        18.4960  -12.8860   15.1380 C.3   173  PHE173      0.0574
     73  CG        19.9690  -12.5910   15.0180 C.ar  173  PHE173     -0.0200
     74  CD1       20.4310  -11.4020   14.4530 C.ar  173  PHE173     -0.0042
     75  CD2       20.9010  -13.4810   15.4940 C.ar  173  PHE173     -0.0042
     76  CE1       21.7930  -11.1500   14.3440 C.ar  173  PHE173     -0.0003
     77  CE2       22.2530  -13.2240   15.4170 C.ar  173  PHE173     -0.0003
     78  CZ        22.7050  -12.0660   14.8390 C.ar  173  PHE173     -0.0000
     79  N         16.5700  -14.4840   13.2720 N.am  174  PHE174     -0.1960
     80  CA        15.4240  -15.3780   13.0220 C.3   174  PHE174      0.1771
     81  C         14.6410  -15.5870   14.3020 C.2   174  PHE174      0.2620
     82  O         15.2190  -15.6990   15.3670 O.2   174  PHE174     -0.2715
     83  CB        15.8750  -16.7310   12.4510 C.3   174  PHE174      0.0574
     84  CG        16.2900  -16.6660   11.0090 C.ar  174  PHE174     -0.0200
     85  CD1       15.3430  -16.4790   10.0070 C.ar  174  PHE174     -0.0042
     86  CD2       17.6280  -16.7860   10.6490 C.ar  174  PHE174     -0.0042
     87  CE1       15.7230  -16.4040    8.6810 C.ar  174  PHE174     -0.0003
     88  CE2       18.0120  -16.7120    9.3180 C.ar  174  PHE174     -0.0003
     89  CZ        17.0610  -16.5280    8.3350 C.ar  174  PHE174     -0.0000
     90  N         13.3190  -15.5630   14.2000 N.am  175  GLY175     -0.1940
     91  CA        12.4620  -15.7690   15.3650 C.3   175  GLY175      0.2014
     92  C         12.2120  -14.5280   16.2000 C.2   175  GLY175      0.2638
     93  O         11.3220  -14.5470   17.0440 O.2   175  GLY175     -0.2714
     94  N         12.9930  -13.4610   16.0040 N.am  176  GLU176     -0.1977
     95  CA        12.8370  -12.2640   16.8100 C.3   176  GLU176      0.1602
     96  C         11.7140  -11.4140   16.2730 C.2   176  GLU176      0.2287
     97  O         11.4100  -11.4620   15.0810 O.2   176  GLU176     -0.2864
     98  CB        14.0990  -11.4100   16.8170 C.3   176  GLU176      0.0415
     99  CG        15.2940  -12.0410   17.5040 C.3   176  GLU176      0.1163
    100  CD        16.3960  -11.0300   17.7810 C.2   176  GLU176      0.3649
    101  OE1       16.7530  -10.2270   16.8840 O.co2 176  GLU176     -0.2457
    102  OE2       16.9080  -11.0390   18.9140 O.co2 176  GLU176     -0.2457
    103  N          9.8200   -8.1870   14.8100 N.3   178  LEU178     -0.1245
    104  CA        10.1760   -7.0530   14.0120 C.3   178  LEU178      0.1561
    105  C         10.4460   -5.8330   14.9050 C.2   178  LEU178      0.2260
    106  O          9.9620   -5.7570   16.0290 O.2   178  LEU178     -0.2867
    107  CB         9.0800   -6.7990   12.9880 C.3   178  LEU178      0.0270
    108  CG         9.0850   -7.8770   11.9060 C.3   178  LEU178      0.0019
    109  CD1        7.7390   -7.9750   11.2180 C.3   178  LEU178      0.0001
    110  CD2       10.1770   -7.6020   10.8840 C.3   178  LEU178      0.0001
@<TRIPOS>BOND
     1    15    14    2
     2    14    13    1
     3    16    13    1
     4    16    17    1
     5    13    12    1
     6    22    20    1
     7    21    20    1
     8    12     3   am
     9    20    19    2
    10     1     2    1
    11    19    18    1
    12     3     4    2
    13     3     2    1
    14    18    17    1
    15     2     5    1
    16    31    29   ar
    17     5     6    1
    18     7     6   ar
    19     7     9   ar
    20     6     8   ar
    21    29    30   ar
    22    29    28    1
    23     9    11   ar
    24     8    10   ar
    25    11    10   ar
    26    28    27    1
    27    43    44    1
    28    60    58   ar
    29    60    59   ar
    30    45    44    1
    31    45    46    2
    32    23    24    1
    33    58    56   ar
    34    48    50    1
    35    48    47    1
    36    44    47    1
    37    27    24    1
    38    59    57   ar
    39    24    25    1
    40    47    49    1
    41    56    57   ar
    42    56    55    1
    43    41    42   ar
    44    41    39   ar
    45    55    52    1
    46    89    87   ar
    47    89    88   ar
    48    42    40   ar
    49    87    85   ar
    50    25    26    2
    51    39    37   ar
    52    51    52    1
    53    88    86   ar
    54    52    53    1
    55    40    38   ar
    56    37    38   ar
    57    37    36    1
    58    85    84   ar
    59    53    54    2
    60    86    84   ar
    61    36    33    1
    62   110   108    1
    63    84    83    1
    64   109   108    1
    65    32    33    1
    66    33    34    1
    67   108   107    1
    68    64    63    2
    69    83    80    1
    70    65    66    1
    71    65    67    1
    72    65    62    1
    73    34    35    2
    74   107   104    1
    75    80    79    1
    76    80    81    1
    77    63    62    1
    78    63    68   am
    79    61    62    1
    80    79    70   am
    81    70    69    1
    82    70    71    2
    83    69    68    1
    84    69    72    1
    85   104   103    1
    86   104   105    1
    87    90    81   am
    88    90    91    1
    89    81    82    2
    90    76    74   ar
    91    76    78   ar
    92    74    73   ar
    93    78    77   ar
    94   105   106    2
    95    73    72    1
    96    73    75   ar
    97    97    96    2
    98    91    92    1
    99    77    75   ar
   100    94    92   am
   101    94    95    1
   102    92    93    2
   103    96    95    1
   104    95    98    1
   105    98    99    1
   106   101   100   ar
   107    99   100    1
   108   100   102   ar
