@<TRIPOS>MOLECULE
tmp/5d7nF00.pdb
 128 126 0 0 0
SMALL
GASTEIGER

@<TRIPOS>ATOM
      1  N         70.6790   22.0940  -36.6940 N.3    25  ALA25      -0.1245
      2  CA        69.3310   21.5760  -36.4460 C.3    25  ALA25       0.1562
      3  C         68.7850   20.7200  -37.5790 C.2    25  ALA25       0.2260
      4  O         68.0330   19.7890  -37.3300 O.2    25  ALA25      -0.2867
      5  CB        68.3780   22.7310  -36.1690 C.3    25  ALA25       0.0290
      6  N         61.9810   24.1390  -29.1080 N.3    36  PHE36      -0.1227
      7  CA        61.3140   24.8020  -27.9790 C.3    36  PHE36       0.1736
      8  C         60.7340   26.1860  -28.3300 C.2    36  PHE36       0.2595
      9  O         59.8450   26.6620  -27.6190 O.2    36  PHE36      -0.2718
     10  CB        62.2630   24.9490  -26.7780 C.3    36  PHE36       0.0547
     11  CG        63.2370   26.0790  -26.9210 C.ar   36  PHE36      -0.0202
     12  CD1       64.3940   25.9300  -27.6800 C.ar   36  PHE36      -0.0042
     13  CD2       62.9960   27.3000  -26.3090 C.ar   36  PHE36      -0.0042
     14  CE1       65.2760   26.9760  -27.8350 C.ar   36  PHE36      -0.0003
     15  CE2       63.8760   28.3620  -26.4600 C.ar   36  PHE36      -0.0003
     16  CZ        65.0260   28.1980  -27.2210 C.ar   36  PHE36      -0.0000
     17  N         61.2240   26.8140  -29.4020 N.am   37  ARG37      -0.1980
     18  CA        60.7640   28.1480  -29.7940 C.3    37  ARG37       0.1597
     19  C         59.5870   28.0990  -30.7740 C.2    37  ARG37       0.2287
     20  O         58.9820   29.1290  -31.0350 O.2    37  ARG37      -0.2864
     21  CB        61.8540   28.9630  -30.4960 C.3    37  ARG37       0.0334
     22  CG        63.2840   28.7090  -30.0760 C.3    37  ARG37       0.0492
     23  CD        64.2370   28.9290  -31.2390 C.3    37  ARG37       0.2205
     24  NE        65.4490   29.5610  -30.7380 N.pl3  37  ARG37      -0.0865
     25  CZ        66.6240   28.9600  -30.5290 C.cat  37  ARG37       0.5346
     26  NH1       67.6260   29.6840  -30.0340 N.pl3  37  ARG37       0.1354
     27  NH2       66.8200   27.6680  -30.8090 N.pl3  37  ARG37       0.1354
     28  N         66.3620   29.4390  -20.8640 N.3    59  PHE59      -0.1241
     29  CA        67.8200   29.4320  -20.9140 C.3    59  PHE59       0.1605
     30  C         68.4400   30.6450  -20.2130 C.2    59  PHE59       0.2264
     31  O         69.6120   30.9750  -20.4340 O.2    59  PHE59      -0.2867
     32  CB        68.2800   29.3680  -22.3710 C.3    59  PHE59       0.0534
     33  CG        67.9200   28.0990  -23.0550 C.ar   59  PHE59      -0.0203
     34  CD1       68.7740   27.0100  -23.0220 C.ar   59  PHE59      -0.0042
     35  CD2       66.7180   27.9740  -23.7110 C.ar   59  PHE59      -0.0042
     36  CE1       68.4360   25.8210  -23.6600 C.ar   59  PHE59      -0.0003
     37  CE2       66.3720   26.8040  -24.3590 C.ar   59  PHE59      -0.0003
     38  CZ        67.2300   25.7210  -24.3300 C.ar   59  PHE59      -0.0000
     39  N         75.8180   22.3120  -33.0550 N.3   107  GLN107     -0.1231
     40  CA        74.9630   23.3320  -32.4780 C.3   107  GLN107      0.1698
     41  C         73.7870   22.7780  -31.6700 C.2   107  GLN107      0.2592
     42  O         73.1340   23.5120  -30.9470 O.2   107  GLN107     -0.2718
     43  CB        74.4410   24.2440  -33.5840 C.3   107  GLN107      0.0381
     44  CG        75.4950   25.1990  -34.0930 C.3   107  GLN107      0.0905
     45  CD        75.6900   26.4100  -33.1850 C.2   107  GLN107      0.2608
     46  OE1       76.1860   26.2920  -32.0720 O.2   107  GLN107     -0.2717
     47  NE2       75.3400   27.6000  -33.6850 N.am  107  GLN107     -0.0878
     48  N         73.5410   21.4810  -31.7620 N.am  108  ASN108     -0.1960
     49  CA        72.3220   20.9010  -31.2350 C.3   108  ASN108      0.1819
     50  C         72.4170   20.5370  -29.7800 C.2   108  ASN108      0.2621
     51  O         73.5030   20.2580  -29.2660 O.2   108  ASN108     -0.2715
     52  CB        71.9590   19.6450  -32.0360 C.3   108  ASN108      0.1195
     53  CG        71.7330   19.9410  -33.5020 C.2   108  ASN108      0.2630
     54  OD1       71.4350   21.0710  -33.8660 O.2   108  ASN108     -0.2716
     55  ND2       71.8840   18.9240  -34.3550 N.am  108  ASN108     -0.0877
     56  N         71.2700   20.5260  -29.1100 N.am  109  ILE109     -0.1977
     57  CA        71.2170   20.0780  -27.7130 C.3   109  ILE109      0.1596
     58  C         70.4610   18.7770  -27.5660 C.2   109  ILE109      0.2287
     59  O         70.2560   18.3050  -26.4570 O.2   109  ILE109     -0.2864
     60  CB        70.6400   21.1530  -26.7740 C.3   109  ILE109      0.0276
     61  CG1       69.2190   21.5550  -27.1850 C.3   109  ILE109      0.0022
     62  CG2       71.5670   22.3650  -26.7670 C.3   109  ILE109      0.0022
     63  CD1       68.4920   22.3290  -26.1050 C.3   109  ILE109      0.0001
     64  N         78.5190   22.9350  -28.7370 N.3   126  ALA126     -0.1231
     65  CA        78.6020   24.3790  -28.5530 C.3   126  ALA126      0.1694
     66  C         77.5490   24.9340  -27.6210 C.2   126  ALA126      0.2592
     67  O         77.7470   26.0060  -27.0280 O.2   126  ALA126     -0.2718
     68  CB        78.5450   25.1090  -29.8800 C.3   126  ALA126      0.0304
     69  N         76.4440   24.2130  -27.4870 N.am  127  HIS127     -0.1976
     70  CA        75.3560   24.6100  -26.6000 C.3   127  HIS127      0.1656
     71  C         75.2200   23.6940  -25.3870 C.2   127  HIS127      0.2291
     72  O         74.2600   23.7880  -24.6160 O.2   127  HIS127     -0.2864
     73  CB        74.0650   24.6810  -27.4140 C.3   127  HIS127      0.0771
     74  CG        73.8860   25.9770  -28.1350 C.ar  127  HIS127      0.0820
     75  ND1       73.2940   27.0820  -27.5510 N.ar  127  HIS127     -0.2267
     76  CD2       74.2320   26.3550  -29.3900 C.ar  127  HIS127      0.1154
     77  CE1       73.2670   28.0770  -28.4220 C.ar  127  HIS127      0.1986
     78  NE2       73.8310   27.6610  -29.5450 N.ar  127  HIS127     -0.2212
     79  N         74.3120   25.2060  -22.0280 N.3   171  VAL171     -0.1231
     80  CA        74.8240   26.5690  -21.9940 C.3   171  VAL171      0.1692
     81  C         73.6640   27.5570  -21.9120 C.2   171  VAL171      0.2592
     82  O         72.7440   27.5140  -22.7300 O.2   171  VAL171     -0.2718
     83  CB        75.6940   26.8770  -23.2240 C.3   171  VAL171      0.0266
     84  CG1       76.1870   28.3180  -23.1720 C.3   171  VAL171      0.0020
     85  CG2       76.8920   25.9270  -23.2770 C.3   171  VAL171      0.0020
     86  N         73.6890   28.4220  -20.9020 N.am  172  PHE172     -0.1962
     87  CA        72.6280   29.4310  -20.7420 C.3   172  PHE172      0.1771
     88  C         73.0570   30.7790  -21.3370 C.2   172  PHE172      0.2620
     89  O         74.2370   31.0210  -21.5850 O.2   172  PHE172     -0.2715
     90  CB        72.2610   29.5830  -19.2690 C.3   172  PHE172      0.0574
     91  CG        71.2260   28.5870  -18.7880 C.ar  172  PHE172     -0.0200
     92  CD1       71.2470   27.2660  -19.2030 C.ar  172  PHE172     -0.0042
     93  CD2       70.2320   28.9720  -17.9190 C.ar  172  PHE172     -0.0042
     94  CE1       70.2900   26.3690  -18.7620 C.ar  172  PHE172     -0.0003
     95  CE2       69.2850   28.0790  -17.4730 C.ar  172  PHE172     -0.0003
     96  CZ        69.3130   26.7740  -17.8880 C.ar  172  PHE172     -0.0000
     97  N         72.0850   31.6610  -21.5480 N.am  173  PHE173     -0.1960
     98  CA        72.3800   33.0070  -22.0280 C.3   173  PHE173      0.1771
     99  C         73.3500   33.7190  -21.1020 C.2   173  PHE173      0.2620
    100  O         73.3050   33.5560  -19.8970 O.2   173  PHE173     -0.2715
    101  CB        71.0900   33.8120  -22.1860 C.3   173  PHE173      0.0574
    102  CG        70.3350   33.4690  -23.4220 C.ar  173  PHE173     -0.0200
    103  CD1       70.8360   33.8360  -24.6800 C.ar  173  PHE173     -0.0042
    104  CD2       69.1360   32.7710  -23.3560 C.ar  173  PHE173     -0.0042
    105  CE1       70.1560   33.5070  -25.8300 C.ar  173  PHE173     -0.0003
    106  CE2       68.4430   32.4490  -24.5040 C.ar  173  PHE173     -0.0003
    107  CZ        68.9550   32.8080  -25.7480 C.ar  173  PHE173     -0.0000
    108  N         74.2770   34.4600  -21.6880 N.am  174  GLY174     -0.1940
    109  CA        75.2660   35.1890  -20.9060 C.3   174  GLY174      0.2014
    110  C         76.4660   34.3660  -20.4610 C.2   174  GLY174      0.2638
    111  O         77.4210   34.9290  -19.9420 O.2   174  GLY174     -0.2714
    112  N         76.4320   33.0450  -20.6260 N.am  175  GLU175     -0.1977
    113  CA        77.5920   32.2170  -20.2710 C.3   175  GLU175      0.1602
    114  C         78.5020   32.1580  -21.4900 C.2   175  GLU175      0.2287
    115  O         78.0350   32.2560  -22.6210 O.2   175  GLU175     -0.2864
    116  CB        77.1760   30.8030  -19.8630 C.3   175  GLU175      0.0415
    117  CG        76.3150   30.7640  -18.6090 C.3   175  GLU175      0.1163
    118  CD        75.9750   29.3650  -18.1080 C.2   175  GLU175      0.3649
    119  OE1       75.6090   28.4580  -18.8870 O.co2 175  GLU175     -0.2457
    120  OE2       76.0380   29.1730  -16.8880 O.co2 175  GLU175     -0.2457
    121  N         81.0410   30.5300  -24.4220 N.3   177  LEU177     -0.1245
    122  CA        81.0700   29.3040  -25.1930 C.3   177  LEU177      0.1561
    123  C         81.8700   28.2820  -24.3820 C.2   177  LEU177      0.2260
    124  O         82.7620   28.6450  -23.6160 O.2   177  LEU177     -0.2867
    125  CB        81.7190   29.5120  -26.5660 C.3   177  LEU177      0.0270
    126  CG        80.8350   29.9250  -27.7510 C.3   177  LEU177      0.0019
    127  CD1       81.7270   30.4560  -28.8630 C.3   177  LEU177      0.0001
    128  CD2       80.0000   28.7630  -28.2560 C.3   177  LEU177      0.0001
@<TRIPOS>BOND
     1     3     4    2
     2     3     2    1
     3     1     2    1
     4     2     5    1
     5    55    53   am
     6    44    43    1
     7    44    45    1
     8    54    53    2
     9    47    45   am
    10    43    40    1
    11    53    52    1
    12    45    46    2
    13    39    40    1
    14    40    41    1
    15    52    49    1
    16    48    41   am
    17    48    49    1
    18    41    42    2
    19    23    24    1
    20    23    22    1
    21    49    50    1
    22    20    19    2
    23    27    25    1
    24    19    18    1
    25    24    25    2
    26    25    26    1
    27    21    22    1
    28    21    18    1
    29    68    65    1
    30    18    17    1
    31    50    51    2
    32    50    56   am
    33    78    76   ar
    34    78    77   ar
    35    17     8   am
    36    76    74   ar
    37    56    57    1
    38     6     7    1
    39   127   126    1
    40    64    65    1
    41    65    66    1
    42    77    75   ar
    43     8     7    1
    44     8     9    2
    45   128   126    1
    46    74    75   ar
    47    74    73    1
    48     7    10    1
    49    14    12   ar
    50    14    16   ar
    51   126   125    1
    52    57    58    1
    53    57    60    1
    54    12    11   ar
    55    66    69   am
    56    66    67    2
    57    58    59    2
    58    69    70    1
    59    73    70    1
    60    16    15   ar
    61    61    60    1
    62    61    63    1
    63    11    10    1
    64    11    13   ar
    65    60    62    1
    66    70    71    1
    67   125   122    1
    68    15    13   ar
    69   105   107   ar
    70   105   103   ar
    71   107   106   ar
    72    71    72    2
    73   122   121    1
    74   122   123    1
    75   103   102   ar
    76   106   104   ar
    77   123   124    2
    78    37    38   ar
    79    37    35   ar
    80    38    36   ar
    81    35    33   ar
    82    36    34   ar
    83   102   104   ar
    84   102   101    1
    85    85    83    1
    86    83    84    1
    87    83    80    1
    88    33    34   ar
    89    33    32    1
    90    82    81    2
    91   115   114    2
    92    32    29    1
    93   101    98    1
    94    98    97    1
    95    98    99    1
    96    79    80    1
    97    80    81    1
    98    81    86   am
    99   108    99   am
   100   108   109    1
   101    89    88    2
   102    97    88   am
   103   114   113    1
   104    88    87    1
   105    99   100    2
   106    29    28    1
   107    29    30    1
   108   109   110    1
   109    86    87    1
   110    87    90    1
   111   112   110   am
   112   112   113    1
   113   110   111    2
   114    31    30    2
   115   113   116    1
   116   116   117    1
   117    90    91    1
   118    92    91   ar
   119    92    94   ar
   120   119   118   ar
   121    91    93   ar
   122    94    96   ar
   123   117   118    1
   124   118   120   ar
   125    93    95   ar
   126    96    95   ar
