@<TRIPOS>MOLECULE
tmp/5d7pA02.pdb
 141 137 0 0 0
SMALL
GASTEIGER

@<TRIPOS>ATOM
      1  N          7.8190  -11.6460  -24.0240 N.3    32  ALA32      -0.1245
      2  CA         8.3980  -10.5610  -23.2330 C.3    32  ALA32       0.1562
      3  C          7.3630   -9.7760  -22.4380 C.2    32  ALA32       0.2260
      4  O          7.6990   -9.1730  -21.4060 O.2    32  ALA32      -0.2867
      5  CB         9.1830   -9.6230  -24.1490 C.3    32  ALA32       0.0290
      6  N          6.9670  -10.2690  -18.5870 N.3    35  SER35      -0.1217
      7  CA         7.9900   -9.7390  -17.6930 C.3    35  SER35       0.1889
      8  C          8.0670   -8.2100  -17.6310 C.2    35  SER35       0.2288
      9  O          8.8650   -7.6610  -16.8500 O.2    35  SER35      -0.2866
     10  CB         9.3490  -10.3230  -18.0720 C.3    35  SER35       0.2089
     11  OG         9.3450  -11.7410  -17.9430 O.3    35  SER35      -0.2183
     12  N         11.2200   -5.3540  -16.9910 N.3    40  ILE40      -0.1231
     13  CA        11.9930   -5.6900  -18.1890 C.3    40  ILE40       0.1678
     14  C         11.2030   -5.2220  -19.4190 C.2    40  ILE40       0.2434
     15  O         10.0910   -5.6630  -19.6120 O.2    40  ILE40      -0.2733
     16  CB        12.2170   -7.2170  -18.2760 C.3    40  ILE40       0.0265
     17  CG1       12.7970   -7.7410  -16.9560 C.3    40  ILE40       0.0019
     18  CG2       13.1250   -7.5720  -19.4560 C.3    40  ILE40       0.0020
     19  CD1       13.1410   -9.2120  -16.9670 C.3    40  ILE40       0.0001
     20  N         11.7770   -4.3500  -20.2640 N.am   41  PRO41      -0.2718
     21  CA        11.0130   -3.9280  -21.4490 C.3    41  PRO41       0.1535
     22  C         10.7290   -5.0830  -22.4010 C.2    41  PRO41       0.2599
     23  O         11.4300   -6.0860  -22.3920 O.2    41  PRO41      -0.2715
     24  CB        11.9680   -2.9520  -22.1430 C.3    41  PRO41       0.0310
     25  CG        13.3200   -3.5040  -21.8000 C.3    41  PRO41       0.0237
     26  CD        13.1720   -3.8730  -20.3380 C.3    41  PRO41       0.0939
     27  N          9.6930   -4.9400  -23.2080 N.am   42  ASP42      -0.1958
     28  CA         9.4590   -5.8810  -24.2990 C.3    42  ASP42       0.1840
     29  C         10.1840   -5.3580  -25.5380 C.2    42  ASP42       0.2622
     30  O         11.0580   -4.4720  -25.4370 O.2    42  ASP42      -0.2715
     31  CB         7.9510   -6.1390  -24.4890 C.3    42  ASP42       0.1450
     32  CG         7.1940   -4.9490  -25.0660 C.2    42  ASP42       0.3671
     33  OD1        7.8310   -3.9890  -25.5310 O.co2  42  ASP42      -0.2456
     34  OD2        5.9430   -5.0040  -25.0760 O.co2  42  ASP42      -0.2456
     35  N          9.8880   -5.9390  -26.6970 N.am   43  PHE43      -0.1974
     36  CA        10.5430   -5.5590  -27.9300 C.3    43  PHE43       0.1639
     37  C          9.7380   -4.5950  -28.7700 C.2    43  PHE43       0.2290
     38  O         10.2900   -3.6120  -29.2820 O.2    43  PHE43      -0.2864
     39  CB        10.8250   -6.7980  -28.7740 C.3    43  PHE43       0.0560
     40  CG        11.9250   -7.6510  -28.2320 C.ar   43  PHE43      -0.0200
     41  CD1       13.2310   -7.4090  -28.5930 C.ar   43  PHE43      -0.0042
     42  CD2       11.6530   -8.6930  -27.3540 C.ar   43  PHE43      -0.0042
     43  CE1       14.2640   -8.1900  -28.1080 C.ar   43  PHE43      -0.0003
     44  CE2       12.6800   -9.4840  -26.8690 C.ar   43  PHE43      -0.0003
     45  CZ        13.9870   -9.2210  -27.2410 C.ar   43  PHE43      -0.0000
     46  N         12.0620   -2.2820  -26.7370 N.3    50  LEU50      -0.1245
     47  CA        13.4800   -2.2330  -27.0110 C.3    50  LEU50       0.1561
     48  C         13.7810   -1.7530  -28.4330 C.2    50  LEU50       0.2260
     49  O         14.6990   -0.9620  -28.6300 O.2    50  LEU50      -0.2867
     50  CB        14.0990   -3.6130  -26.7520 C.3    50  LEU50       0.0270
     51  CG        15.5880   -3.7250  -26.4520 C.3    50  LEU50       0.0019
     52  CD1       16.0210   -2.7600  -25.3550 C.3    50  LEU50       0.0001
     53  CD2       15.8870   -5.1630  -26.0460 C.3    50  LEU50       0.0001
     54  N         20.2520   -8.1460  -32.7040 N.3    66  PHE66      -0.1241
     55  CA        20.1160   -9.5530  -32.3260 C.3    66  PHE66       0.1605
     56  C         20.0530  -10.4290  -33.5720 C.2    66  PHE66       0.2264
     57  O         19.2640  -11.3620  -33.6410 O.2    66  PHE66      -0.2867
     58  CB        18.8600   -9.7820  -31.4820 C.3    66  PHE66       0.0534
     59  CG        18.8230   -8.9750  -30.2100 C.ar   66  PHE66      -0.0203
     60  CD1       19.8430   -9.0770  -29.2830 C.ar   66  PHE66      -0.0042
     61  CD2       17.7670   -8.1100  -29.9500 C.ar   66  PHE66      -0.0042
     62  CE1       19.8140   -8.3480  -28.1110 C.ar   66  PHE66      -0.0003
     63  CE2       17.7380   -7.3640  -28.7790 C.ar   66  PHE66      -0.0003
     64  CZ        18.7590   -7.4910  -27.8540 C.ar   66  PHE66      -0.0000
     65  N         21.9350   -4.2300  -20.0390 N.3    85  LEU85      -0.1245
     66  CA        20.8640   -5.1760  -19.6800 C.3    85  LEU85       0.1561
     67  C         21.2800   -6.3340  -18.7670 C.2    85  LEU85       0.2260
     68  O         20.4470   -6.8740  -18.0500 O.2    85  LEU85      -0.2867
     69  CB        20.2370   -5.7630  -20.9510 C.3    85  LEU85       0.0270
     70  CG        19.5240   -4.7900  -21.8950 C.3    85  LEU85       0.0019
     71  CD1       18.9940   -5.5440  -23.1050 C.3    85  LEU85       0.0001
     72  CD2       18.4050   -4.0340  -21.1880 C.3    85  LEU85       0.0001
     73  N          9.8920  -17.5230  -24.9100 N.3   114  GLN114     -0.1231
     74  CA        10.7940  -16.7700  -25.7760 C.3   114  GLN114      0.1698
     75  C         11.7160  -15.8700  -24.9630 C.2   114  GLN114      0.2592
     76  O         12.5490  -15.1570  -25.5330 O.2   114  GLN114     -0.2718
     77  CB         9.9810  -15.9290  -26.7640 C.3   114  GLN114      0.0381
     78  CG         9.1070  -16.7720  -27.6950 C.3   114  GLN114      0.0905
     79  CD         8.1010  -15.9250  -28.4520 C.2   114  GLN114      0.2608
     80  OE1        8.3220  -15.5890  -29.6010 O.2   114  GLN114     -0.2717
     81  NE2        6.9860  -15.5890  -27.8130 N.am  114  GLN114     -0.0878
     82  N         11.5790  -15.9180  -23.6340 N.am  115  ASN115     -0.1960
     83  CA        12.3460  -15.0710  -22.7380 C.3   115  ASN115      0.1819
     84  C         13.6400  -15.7400  -22.2700 C.2   115  ASN115      0.2621
     85  O         13.7490  -16.9770  -22.2040 O.2   115  ASN115     -0.2715
     86  CB        11.5080  -14.6700  -21.5300 C.3   115  ASN115      0.1195
     87  CG        10.3010  -13.8300  -21.8980 C.2   115  ASN115      0.2630
     88  OD1       10.1890  -13.3170  -23.0150 O.2   115  ASN115     -0.2716
     89  ND2        9.3900  -13.6700  -20.9410 N.am  115  ASN115     -0.0877
     90  N         14.6210  -14.8980  -21.9910 N.am  116  ILE116     -0.1963
     91  CA        15.9230  -15.3160  -21.4630 C.3   116  ILE116      0.1727
     92  C         16.1300  -14.8340  -20.0180 C.2   116  ILE116      0.2616
     93  O         17.2050  -15.0510  -19.4340 O.2   116  ILE116     -0.2715
     94  CB        17.0820  -14.7890  -22.3390 C.3   116  ILE116      0.0290
     95  CG1       17.1080  -13.2470  -22.3560 C.3   116  ILE116      0.0022
     96  CG2       16.9710  -15.3690  -23.7420 C.3   116  ILE116      0.0023
     97  CD1       18.3190  -12.6400  -23.0290 C.3   116  ILE116      0.0001
     98  N         15.1110  -14.1910  -19.4410 N.am  117  ASP117     -0.1971
     99  CA        15.2220  -13.6190  -18.1020 C.3   117  ASP117      0.1709
    100  C         15.2460  -14.6600  -16.9800 C.2   117  ASP117      0.2293
    101  O         15.5460  -14.3130  -15.8400 O.2   117  ASP117     -0.2864
    102  CB        14.1100  -12.5720  -17.8310 C.3   117  ASP117      0.1436
    103  CG        12.6940  -13.1110  -18.0390 C.2   117  ASP117      0.3671
    104  OD1       12.4110  -14.2800  -17.6790 O.co2 117  ASP117     -0.2456
    105  OD2       11.8380  -12.3300  -18.5470 O.co2 117  ASP117     -0.2456
    106  N         14.2730  -19.5630  -27.0310 N.3   134  HIS134     -0.1241
    107  CA        15.2380  -18.6140  -27.5800 C.3   134  HIS134      0.1621
    108  C         16.5270  -18.5690  -26.7900 C.2   134  HIS134      0.2264
    109  O         17.2260  -17.5700  -26.7990 O.2   134  HIS134     -0.2867
    110  CB        14.6250  -17.2190  -27.7590 C.3   134  HIS134      0.0745
    111  CG        13.5400  -17.1740  -28.7940 C.ar  134  HIS134      0.0817
    112  ND1       12.7220  -16.0800  -28.9630 N.ar  134  HIS134     -0.2268
    113  CD2       13.1260  -18.0960  -29.7000 C.ar  134  HIS134      0.1154
    114  CE1       11.8490  -16.3260  -29.9220 C.ar  134  HIS134      0.1986
    115  NE2       12.0760  -17.5390  -30.3940 N.ar  134  HIS134     -0.2212
    116  N         21.8870  -17.1510  -26.3640 N.3   179  ILE179     -0.1231
    117  CA        20.5950  -16.5610  -26.6640 C.3   179  ILE179      0.1692
    118  C         20.4640  -16.4860  -28.1910 C.2   179  ILE179      0.2592
    119  O         21.4170  -16.1350  -28.8950 O.2   179  ILE179     -0.2718
    120  CB        20.4140  -15.1740  -26.0070 C.3   179  ILE179      0.0266
    121  CG1       21.4510  -14.1600  -26.4960 C.3   179  ILE179      0.0019
    122  CG2       20.4550  -15.3130  -24.4970 C.3   179  ILE179      0.0020
    123  CD1       21.3190  -12.7960  -25.8400 C.3   179  ILE179      0.0001
    124  N         19.2790  -16.8250  -28.6890 N.am  180  VAL180     -0.1966
    125  CA        19.0880  -17.1110  -30.0990 C.3   180  VAL180      0.1727
    126  C         18.8450  -15.8110  -30.8650 C.2   180  VAL180      0.2616
    127  O         17.8950  -15.0730  -30.5700 O.2   180  VAL180     -0.2715
    128  CB        17.9060  -18.0810  -30.3220 C.3   180  VAL180      0.0290
    129  CG1       17.6880  -18.3280  -31.8100 C.3   180  VAL180      0.0023
    130  CG2       18.1350  -19.4030  -29.6100 C.3   180  VAL180      0.0023
    131  N         19.7180  -15.5430  -31.8300 N.am  181  PHE181     -0.1974
    132  CA        19.6480  -14.3760  -32.7160 C.3   181  PHE181      0.1639
    133  C         18.9150  -14.7590  -33.9950 C.2   181  PHE181      0.2290
    134  O         18.8610  -15.9360  -34.3380 O.2   181  PHE181     -0.2864
    135  CB        21.0570  -13.9510  -33.1360 C.3   181  PHE181      0.0560
    136  CG        21.8180  -13.1540  -32.1070 C.ar  181  PHE181     -0.0200
    137  CD1       21.3500  -12.9740  -30.8060 C.ar  181  PHE181     -0.0042
    138  CD2       23.0230  -12.5770  -32.4580 C.ar  181  PHE181     -0.0042
    139  CE1       22.0720  -12.2420  -29.8870 C.ar  181  PHE181     -0.0003
    140  CE2       23.7600  -11.8410  -31.5340 C.ar  181  PHE181     -0.0003
    141  CZ        23.2840  -11.6770  -30.2510 C.ar  181  PHE181     -0.0000
@<TRIPOS>BOND
     1   134   133    2
     2   133   132    1
     3    57    56    2
     4    56    55    1
     5   135   132    1
     6   135   136    1
     7   132   131    1
     8    54    55    1
     9   138   136   ar
    10   138   140   ar
    11    55    58    1
    12   136   137   ar
    13   131   126   am
    14   129   128    1
    15   140   141   ar
    16    58    59    1
    17   126   127    2
    18   126   125    1
    19   137   139   ar
    20   115   114   ar
    21   115   113   ar
    22   128   125    1
    23   128   130    1
    24   141   139   ar
    25    59    61   ar
    26    59    60   ar
    27   125   124    1
    28    61    63   ar
    29   114   112   ar
    30   113   111   ar
    31    80    79    2
    32    60    62   ar
    33    38    37    2
    34   112   111   ar
    35   119   118    2
    36   111   110    1
    37    63    64   ar
    38    39    40    1
    39    39    36    1
    40    37    36    1
    41   124   118   am
    42    49    48    2
    43    41    40   ar
    44    41    43   ar
    45    79    81   am
    46    79    78    1
    47    48    47    1
    48    40    42   ar
    49   118   117    1
    50    62    64   ar
    51    43    45   ar
    52    36    35    1
    53   110   107    1
    54    78    77    1
    55   107   106    1
    56   107   108    1
    57    42    44   ar
    58    45    44   ar
    59    47    50    1
    60    47    46    1
    61   109   108    2
    62    77    74    1
    63    50    51    1
    64    35    29   am
    65   117   116    1
    66   117   120    1
    67   121   120    1
    68   121   123    1
    69    51    53    1
    70    51    52    1
    71   120   122    1
    72    74    75    1
    73    74    73    1
    74    29    30    2
    75    29    28    1
    76    76    75    2
    77    33    32   ar
    78    34    32   ar
    79    32    31    1
    80    75    82   am
    81    31    28    1
    82    28    27    1
    83     5     2    1
    84     1     2    1
    85    96    94    1
    86    82    83    1
    87     2     3    1
    88    27    22   am
    89    71    70    1
    90    97    95    1
    91    88    87    2
    92    83    84    1
    93    83    86    1
    94     3     4    2
    95    22    23    2
    96    22    21    1
    97    95    94    1
    98    94    91    1
    99    84    85    2
   100    84    90   am
   101    24    25    1
   102    24    21    1
   103    90    91    1
   104    87    86    1
   105    87    89   am
   106    70    72    1
   107    70    69    1
   108    25    26    1
   109    91    92    1
   110    21    20    1
   111    69    66    1
   112    26    20    1
   113    20    14   am
   114    65    66    1
   115    92    98   am
   116    92    93    2
   117    66    67    1
   118    15    14    2
   119    18    16    1
   120    98    99    1
   121    14    13    1
   122    67    68    2
   123     6     7    1
   124   105   103   ar
   125    16    13    1
   126    16    17    1
   127    13    12    1
   128    99   102    1
   129    99   100    1
   130    10    11    1
   131    10     7    1
   132   103   102    1
   133   103   104   ar
   134     7     8    1
   135     8     9    2
   136   100   101    2
   137    19    17    1
