@<TRIPOS>MOLECULE
tmp/5d7pA01.pdb
 136 134 0 0 0
SMALL
GASTEIGER

@<TRIPOS>ATOM
      1  N         11.2200   -5.3540  -16.9910 N.3    40  ILE40      -0.1245
      2  CA        11.9930   -5.6900  -18.1890 C.3    40  ILE40       0.1561
      3  C         11.2030   -5.2220  -19.4190 C.2    40  ILE40       0.2260
      4  O         10.0910   -5.6630  -19.6120 O.2    40  ILE40      -0.2867
      5  CB        12.2170   -7.2170  -18.2760 C.3    40  ILE40       0.0252
      6  CG1       12.7970   -7.7410  -16.9560 C.3    40  ILE40       0.0019
      7  CG2       13.1250   -7.5720  -19.4560 C.3    40  ILE40       0.0019
      8  CD1       13.1410   -9.2120  -16.9670 C.3    40  ILE40       0.0001
      9  N         20.2520   -8.1460  -32.7040 N.3    66  PHE66      -0.1241
     10  CA        20.1160   -9.5530  -32.3260 C.3    66  PHE66       0.1605
     11  C         20.0530  -10.4290  -33.5720 C.2    66  PHE66       0.2264
     12  O         19.2640  -11.3620  -33.6410 O.2    66  PHE66      -0.2867
     13  CB        18.8600   -9.7820  -31.4820 C.3    66  PHE66       0.0534
     14  CG        18.8230   -8.9750  -30.2100 C.ar   66  PHE66      -0.0203
     15  CD1       19.8430   -9.0770  -29.2830 C.ar   66  PHE66      -0.0042
     16  CD2       17.7670   -8.1100  -29.9500 C.ar   66  PHE66      -0.0042
     17  CE1       19.8140   -8.3480  -28.1110 C.ar   66  PHE66      -0.0003
     18  CE2       17.7380   -7.3640  -28.7790 C.ar   66  PHE66      -0.0003
     19  CZ        18.7590   -7.4910  -27.8540 C.ar   66  PHE66      -0.0000
     20  N         25.7560   -4.9430  -29.8210 N.3    78  PHE78      -0.1241
     21  CA        25.1820   -5.9880  -28.9750 C.3    78  PHE78       0.1605
     22  C         25.7910   -5.9600  -27.5750 C.2    78  PHE78       0.2264
     23  O         25.0600   -5.9390  -26.5790 O.2    78  PHE78      -0.2867
     24  CB        25.3780   -7.3900  -29.5580 C.3    78  PHE78       0.0534
     25  CG        24.9930   -8.4750  -28.6010 C.ar   78  PHE78      -0.0203
     26  CD1       23.6650   -8.6530  -28.2490 C.ar   78  PHE78      -0.0042
     27  CD2       25.9530   -9.2780  -28.0100 C.ar   78  PHE78      -0.0042
     28  CE1       23.3000   -9.6300  -27.3420 C.ar   78  PHE78      -0.0003
     29  CE2       25.5960  -10.2630  -27.1060 C.ar   78  PHE78      -0.0003
     30  CZ        24.2640  -10.4390  -26.7670 C.ar   78  PHE78      -0.0000
     31  N         24.8270   -3.0030  -25.5320 N.3    81  LEU81      -0.1231
     32  CA        23.4860   -3.1990  -24.9820 C.3    81  LEU81       0.1693
     33  C         23.5160   -4.2390  -23.8620 C.2    81  LEU81       0.2591
     34  O         22.8640   -4.0640  -22.8300 O.2    81  LEU81      -0.2718
     35  CB        22.5020   -3.6200  -26.0730 C.3    81  LEU81       0.0284
     36  CG        21.0540   -3.8700  -25.6280 C.3    81  LEU81       0.0019
     37  CD1       20.3910   -2.5950  -25.1280 C.3    81  LEU81       0.0001
     38  CD2       20.2650   -4.4710  -26.7820 C.3    81  LEU81       0.0001
     39  N         24.2760   -5.3110  -24.0550 N.am   82  ALA82      -0.1980
     40  CA        24.3830   -6.3550  -23.0390 C.3    82  ALA82       0.1597
     41  C         24.9280   -5.8180  -21.7180 C.2    82  ALA82       0.2287
     42  O         24.6010   -6.3500  -20.6660 O.2    82  ALA82      -0.2864
     43  CB        25.2470   -7.4990  -23.5380 C.3    82  ALA82       0.0319
     44  N         21.9350   -4.2300  -20.0390 N.3    85  LEU85      -0.1231
     45  CA        20.8640   -5.1760  -19.6800 C.3    85  LEU85       0.1693
     46  C         21.2800   -6.3340  -18.7670 C.2    85  LEU85       0.2592
     47  O         20.4470   -6.8740  -18.0500 O.2    85  LEU85      -0.2718
     48  CB        20.2370   -5.7630  -20.9510 C.3    85  LEU85       0.0284
     49  CG        19.5240   -4.7900  -21.8950 C.3    85  LEU85       0.0019
     50  CD1       18.9940   -5.5440  -23.1050 C.3    85  LEU85       0.0001
     51  CD2       18.4050   -4.0340  -21.1880 C.3    85  LEU85       0.0001
     52  N         22.5520   -6.7240  -18.7950 N.am   86  TYR86      -0.1963
     53  CA        23.0580   -7.7880  -17.9100 C.3    86  TYR86       0.1756
     54  C         22.8790   -7.4580  -16.4240 C.2    86  TYR86       0.2461
     55  O         22.5960   -8.3590  -15.6340 O.2    86  TYR86      -0.2730
     56  CB        24.5500   -8.0700  -18.1530 C.3    86  TYR86       0.0574
     57  CG        24.8670   -9.5030  -18.5260 C.ar   86  TYR86      -0.0198
     58  CD1       24.5720  -10.5580  -17.6610 C.ar   86  TYR86      -0.0009
     59  CD2       25.4750   -9.8020  -19.7500 C.ar   86  TYR86      -0.0009
     60  CE1       24.8650  -11.8700  -18.0100 C.ar   86  TYR86       0.0417
     61  CE2       25.7720  -11.1080  -20.1100 C.ar   86  TYR86       0.0417
     62  CZ        25.4670  -12.1400  -19.2420 C.ar   86  TYR86       0.1957
     63  OH        25.7660  -13.4340  -19.6140 O.3    86  TYR86      -0.2866
     64  N         23.0690   -6.1760  -16.0370 N.am   87  PRO87      -0.2716
     65  CA        22.8870   -5.8660  -14.6190 C.3    87  PRO87       0.1536
     66  C         21.4130   -5.8230  -14.2510 C.2    87  PRO87       0.2599
     67  O         20.5470   -5.9050  -15.1210 O.2    87  PRO87      -0.2715
     68  CB        23.5230   -4.4760  -14.4760 C.3    87  PRO87       0.0310
     69  CG        23.3570   -3.8480  -15.8120 C.3    87  PRO87       0.0237
     70  CD        23.4420   -4.9740  -16.8120 C.3    87  PRO87       0.0939
     71  N         21.1360   -5.6960  -12.9630 N.am   88  GLY88      -0.1941
     72  CA        19.7680   -5.5760  -12.5000 C.3    88  GLY88       0.2014
     73  C         19.1100   -6.9310  -12.3520 C.2    88  GLY88       0.2639
     74  O         19.2430   -7.8150  -13.2140 O.2    88  GLY88      -0.2714
     75  N         18.4080   -7.0800  -11.2380 N.am   89  GLN89      -0.1963
     76  CA        17.7120   -8.2990  -10.9040 C.3    89  GLN89       0.1733
     77  C         16.2280   -8.0180  -10.8680 C.2    89  GLN89       0.2616
     78  O         15.7820   -6.9110  -10.5620 O.2    89  GLN89      -0.2715
     79  CB        18.1670   -8.8200   -9.5470 C.3    89  GLN89       0.0408
     80  CG        19.5190   -9.5020   -9.5780 C.3    89  GLN89       0.0908
     81  CD        20.1350   -9.5750   -8.1990 C.2    89  GLN89       0.2608
     82  OE1       20.6310   -8.5730   -7.6840 O.2    89  GLN89      -0.2717
     83  NE2       20.0940  -10.7570   -7.5840 N.am   89  GLN89      -0.0878
     84  N         15.4670   -9.0490  -11.1790 N.am   90  PHE90      -0.1974
     85  CA        14.0460   -8.9130  -11.3240 C.3    90  PHE90       0.1639
     86  C         13.3990  -10.0710  -10.6090 C.2    90  PHE90       0.2290
     87  O         13.9910  -11.1360  -10.4590 O.2    90  PHE90      -0.2864
     88  CB        13.6860   -8.8920  -12.8120 C.3    90  PHE90       0.0560
     89  CG        14.4080   -7.8220  -13.5870 C.ar   90  PHE90      -0.0200
     90  CD1       13.9080   -6.5280  -13.6490 C.ar   90  PHE90      -0.0042
     91  CD2       15.6020   -8.1030  -14.2360 C.ar   90  PHE90      -0.0042
     92  CE1       14.5740   -5.5390  -14.3580 C.ar   90  PHE90      -0.0003
     93  CE2       16.2790   -7.1140  -14.9410 C.ar   90  PHE90      -0.0003
     94  CZ        15.7610   -5.8310  -15.0050 C.ar   90  PHE90      -0.0000
     95  N         14.6210  -14.8980  -21.9910 N.3   116  ILE116     -0.1231
     96  CA        15.9230  -15.3160  -21.4630 C.3   116  ILE116      0.1692
     97  C         16.1300  -14.8340  -20.0180 C.2   116  ILE116      0.2592
     98  O         17.2050  -15.0510  -19.4340 O.2   116  ILE116     -0.2718
     99  CB        17.0820  -14.7890  -22.3390 C.3   116  ILE116      0.0266
    100  CG1       17.1080  -13.2470  -22.3560 C.3   116  ILE116      0.0019
    101  CG2       16.9710  -15.3690  -23.7420 C.3   116  ILE116      0.0020
    102  CD1       18.3190  -12.6400  -23.0290 C.3   116  ILE116      0.0001
    103  N         15.1110  -14.1910  -19.4410 N.am  117  ASP117     -0.1974
    104  CA        15.2220  -13.6190  -18.1020 C.3   117  ASP117      0.1709
    105  C         15.2460  -14.6600  -16.9800 C.2   117  ASP117      0.2293
    106  O         15.5460  -14.3130  -15.8400 O.2   117  ASP117     -0.2864
    107  CB        14.1100  -12.5720  -17.8310 C.3   117  ASP117      0.1436
    108  CG        12.6940  -13.1110  -18.0390 C.2   117  ASP117      0.3671
    109  OD1       12.4110  -14.2800  -17.6790 O.co2 117  ASP117     -0.2456
    110  OD2       11.8380  -12.3300  -18.5470 O.co2 117  ASP117     -0.2456
    111  N         21.3430  -17.1350  -21.5160 N.3   137  PHE137     -0.1241
    112  CA        22.6280  -16.4300  -21.3680 C.3   137  PHE137      0.1605
    113  C         23.6110  -17.1570  -20.4290 C.2   137  PHE137      0.2264
    114  O         24.7560  -16.7260  -20.2960 O.2   137  PHE137     -0.2867
    115  CB        22.4550  -14.9430  -20.9750 C.3   137  PHE137      0.0534
    116  CG        21.8720  -14.7100  -19.5980 C.ar  137  PHE137     -0.0203
    117  CD1       22.6690  -14.7850  -18.4560 C.ar  137  PHE137     -0.0042
    118  CD2       20.5340  -14.3480  -19.4430 C.ar  137  PHE137     -0.0042
    119  CE1       22.1380  -14.5480  -17.1920 C.ar  137  PHE137     -0.0003
    120  CE2       20.0000  -14.1120  -18.1810 C.ar  137  PHE137     -0.0003
    121  CZ        20.8030  -14.2130  -17.0540 C.ar  137  PHE137     -0.0000
    122  N         26.7430  -15.2490  -25.7860 N.3   177  PRO177     -0.2116
    123  CA        25.8590  -16.1290  -25.0060 C.3   177  PRO177      0.1372
    124  C         24.8730  -16.8830  -25.8930 C.2   177  PRO177      0.2244
    125  O         24.5770  -16.4400  -27.0100 O.2   177  PRO177     -0.2868
    126  CB        25.1340  -15.1700  -24.0540 C.3   177  PRO177      0.0268
    127  CG        25.2820  -13.8180  -24.6560 C.3   177  PRO177      0.0207
    128  CD        26.5200  -13.8220  -25.5040 C.3   177  PRO177      0.0892
    129  N         21.8870  -17.1510  -26.3640 N.3   179  ILE179     -0.1245
    130  CA        20.5950  -16.5610  -26.6640 C.3   179  ILE179      0.1561
    131  C         20.4640  -16.4860  -28.1910 C.2   179  ILE179      0.2260
    132  O         21.4170  -16.1350  -28.8950 O.2   179  ILE179     -0.2867
    133  CB        20.4140  -15.1740  -26.0070 C.3   179  ILE179      0.0252
    134  CG1       21.4510  -14.1600  -26.4960 C.3   179  ILE179      0.0019
    135  CG2       20.4550  -15.3130  -24.4970 C.3   179  ILE179      0.0019
    136  CD1       21.3190  -12.7960  -25.8400 C.3   179  ILE179      0.0001
@<TRIPOS>BOND
     1    12    11    2
     2    11    10    1
     3     9    10    1
     4    10    13    1
     5    13    14    1
     6    14    16   ar
     7    14    15   ar
     8    16    18   ar
     9    20    21    1
    10    24    21    1
    11    24    25    1
    12    15    17   ar
    13    21    22    1
    14   132   131    2
    15    18    19   ar
    16    25    26   ar
    17    25    27   ar
    18    26    28   ar
    19   131   130    1
    20    17    19   ar
    21    27    29   ar
    22    22    23    2
    23    28    30   ar
    24    29    30   ar
    25   125   124    2
    26    38    36    1
    27   130   129    1
    28   130   133    1
    29   134   133    1
    30   134   136    1
    31    35    36    1
    32    35    32    1
    33   133   135    1
    34   124   123    1
    35   122   128    1
    36   122   123    1
    37    36    37    1
    38    31    32    1
    39   128   127    1
    40   123   126    1
    41    32    33    1
    42   127   126    1
    43    39    33   am
    44    39    40    1
    45    33    34    2
    46   101    99    1
    47    43    40    1
    48    50    49    1
    49    40    41    1
    50   102   100    1
    51   100    99    1
    52    99    96    1
    53    95    96    1
    54    49    51    1
    55    49    48    1
    56    41    42    2
    57   111   112    1
    58    96    97    1
    59   112   115    1
    60   112   113    1
    61   115   116    1
    62    48    45    1
    63   113   114    2
    64    61    59   ar
    65    61    62   ar
    66    44    45    1
    67    97   103   am
    68    97    98    2
    69    59    57   ar
    70    45    46    1
    71    63    62    1
    72     4     3    2
    73   116   118   ar
    74   116   117   ar
    75     7     5    1
    76   118   120   ar
    77   103   104    1
    78     3     2    1
    79    62    60   ar
    80    52    46   am
    81    52    53    1
    82    46    47    2
    83   110   108   ar
    84    57    56    1
    85    57    58   ar
    86   117   119   ar
    87     5     2    1
    88     5     6    1
    89     2     1    1
    90   120   121   ar
    91    56    53    1
    92   104   107    1
    93   104   105    1
    94   108   107    1
    95   108   109   ar
    96    60    58   ar
    97    53    54    1
    98   119   121   ar
    99   105   106    2
   100     8     6    1
   101    70    64    1
   102    70    69    1
   103    54    64   am
   104    54    55    2
   105    64    65    1
   106    69    68    1
   107    67    66    2
   108    94    93   ar
   109    94    92   ar
   110    93    91   ar
   111    65    68    1
   112    65    66    1
   113    92    90   ar
   114    66    71   am
   115    91    89   ar
   116    90    89   ar
   117    89    88    1
   118    74    73    2
   119    71    72    1
   120    88    85    1
   121    72    73    1
   122    73    75   am
   123    85    84    1
   124    85    86    1
   125    75    76    1
   126    84    77   am
   127    76    77    1
   128    76    79    1
   129    77    78    2
   130    86    87    2
   131    80    79    1
   132    80    81    1
   133    81    82    2
   134    81    83   am
