@<TRIPOS>MOLECULE
tmp/5d7qA02.pdb
 136 133 0 0 0
SMALL
GASTEIGER

@<TRIPOS>ATOM
      1  N        -10.9640   -5.7690   17.1210 N.3    40  ILE40      -0.1231
      2  CA       -11.7140   -6.1330   18.3170 C.3    40  ILE40       0.1678
      3  C        -10.9510   -5.6420   19.5520 C.2    40  ILE40       0.2434
      4  O         -9.7760   -5.9560   19.7210 O.2    40  ILE40      -0.2733
      5  CB       -11.9080   -7.6570   18.4130 C.3    40  ILE40       0.0265
      6  CG1      -12.6140   -8.1740   17.1460 C.3    40  ILE40       0.0019
      7  CG2      -12.7150   -8.0030   19.6460 C.3    40  ILE40       0.0020
      8  CD1      -12.6560   -9.6790   17.0150 C.3    40  ILE40       0.0001
      9  N        -11.6100   -4.8720   20.4290 N.am   41  PRO41      -0.2729
     10  CA       -10.8700   -4.4410   21.6200 C.3    41  PRO41       0.1401
     11  C        -10.5560   -5.6160   22.5560 C.2    41  PRO41       0.2269
     12  O        -11.2770   -6.6130   22.5660 O.2    41  PRO41      -0.2865
     13  CB       -11.8410   -3.4670   22.3000 C.3    41  PRO41       0.0296
     14  CG       -13.1950   -3.9660   21.8960 C.3    41  PRO41       0.0237
     15  CD       -13.0410   -4.5190   20.5000 C.3    41  PRO41       0.0939
     16  N        -20.1060   -8.5880   32.6530 N.3    66  PHE66      -0.1241
     17  CA       -19.9660  -10.0090   32.3520 C.3    66  PHE66       0.1605
     18  C        -19.8600  -10.8110   33.6400 C.2    66  PHE66       0.2264
     19  O        -18.9820  -11.6610   33.7860 O.2    66  PHE66      -0.2867
     20  CB       -18.7370  -10.2590   31.4740 C.3    66  PHE66       0.0534
     21  CG       -18.7610   -9.5150   30.1610 C.ar   66  PHE66      -0.0203
     22  CD1      -19.8710   -9.5600   29.3410 C.ar   66  PHE66      -0.0042
     23  CD2      -17.6690   -8.7780   29.7500 C.ar   66  PHE66      -0.0042
     24  CE1      -19.8930   -8.8870   28.1370 C.ar   66  PHE66      -0.0003
     25  CE2      -17.6850   -8.1040   28.5450 C.ar   66  PHE66      -0.0003
     26  CZ       -18.7990   -8.1620   27.7350 C.ar   66  PHE66      -0.0000
     27  N        -25.7500   -5.5920   29.7430 N.3    78  PHE78      -0.1241
     28  CA       -25.1520   -6.6330   28.8920 C.3    78  PHE78       0.1605
     29  C        -25.7510   -6.6840   27.4760 C.2    78  PHE78       0.2264
     30  O        -25.0150   -6.7800   26.4850 O.2    78  PHE78      -0.2867
     31  CB       -25.2380   -8.0370   29.5000 C.3    78  PHE78       0.0534
     32  CG       -24.8570   -9.1120   28.5260 C.ar   78  PHE78      -0.0203
     33  CD1      -23.5240   -9.2820   28.1570 C.ar   78  PHE78      -0.0042
     34  CD2      -25.8310   -9.9010   27.9100 C.ar   78  PHE78      -0.0042
     35  CE1      -23.1680  -10.2440   27.2130 C.ar   78  PHE78      -0.0003
     36  CE2      -25.4810  -10.8660   26.9760 C.ar   78  PHE78      -0.0003
     37  CZ       -24.1450  -11.0380   26.6260 C.ar   78  PHE78      -0.0000
     38  N        -24.7560   -3.6830   25.3600 N.3    81  LEU81      -0.1231
     39  CA       -23.4030   -3.8530   24.8190 C.3    81  LEU81       0.1693
     40  C        -23.3680   -4.8780   23.6740 C.2    81  LEU81       0.2591
     41  O        -22.7170   -4.6540   22.6450 O.2    81  LEU81      -0.2718
     42  CB       -22.3960   -4.2300   25.9120 C.3    81  LEU81       0.0284
     43  CG       -20.9320   -4.3440   25.4570 C.3    81  LEU81       0.0019
     44  CD1      -20.4150   -3.0320   24.9060 C.3    81  LEU81       0.0001
     45  CD2      -20.0320   -4.8010   26.5990 C.3    81  LEU81       0.0001
     46  N        -24.0770   -5.9900   23.8390 N.am   82  ALA82      -0.1980
     47  CA       -24.1020   -7.0230   22.7960 C.3    82  ALA82       0.1597
     48  C        -24.6460   -6.4720   21.4820 C.2    82  ALA82       0.2287
     49  O        -24.1360   -6.7900   20.4180 O.2    82  ALA82      -0.2864
     50  CB       -24.9160   -8.2260   23.2370 C.3    82  ALA82       0.0319
     51  N        -21.7020   -4.4370   19.9040 N.3    85  LEU85      -0.1231
     52  CA       -20.5060   -5.1710   19.4710 C.3    85  LEU85       0.1693
     53  C        -20.7550   -6.3360   18.5100 C.2    85  LEU85       0.2592
     54  O        -19.8550   -6.7140   17.7650 O.2    85  LEU85      -0.2718
     55  CB       -19.7410   -5.6950   20.6860 C.3    85  LEU85       0.0284
     56  CG       -19.1170   -4.6570   21.6230 C.3    85  LEU85       0.0019
     57  CD1      -18.5480   -5.3400   22.8600 C.3    85  LEU85       0.0001
     58  CD2      -18.0400   -3.8460   20.9190 C.3    85  LEU85       0.0001
     59  N        -21.9540   -6.9110   18.5230 N.am   86  TYR86      -0.1976
     60  CA       -22.2370   -8.0930   17.6870 C.3    86  TYR86       0.1639
     61  C        -22.1300   -7.8570   16.1590 C.2    86  TYR86       0.2290
     62  O        -21.5480   -8.6880   15.4570 O.2    86  TYR86      -0.2864
     63  CB       -23.5960   -8.7350   18.0320 C.3    86  TYR86       0.0560
     64  CG       -23.8640   -9.9800   17.2090 C.ar   86  TYR86      -0.0198
     65  CD1      -24.4670   -9.8920   15.9500 C.ar   86  TYR86      -0.0009
     66  CD2      -23.4760  -11.2350   17.6620 C.ar   86  TYR86      -0.0009
     67  CE1      -24.6890  -11.0190   15.1780 C.ar   86  TYR86       0.0417
     68  CE2      -23.6970  -12.3690   16.8990 C.ar   86  TYR86       0.0417
     69  CZ       -24.3020  -12.2560   15.6580 C.ar   86  TYR86       0.1957
     70  OH       -24.5250  -13.3770   14.8940 O.3    86  TYR86      -0.2866
     71  N        -20.2510   -6.0700   14.2520 N.3    88  GLY88      -0.1210
     72  CA       -18.9000   -5.9550   13.6990 C.3    88  GLY88       0.1956
     73  C        -18.4080   -7.1670   12.9190 C.2    88  GLY88       0.2612
     74  O        -18.4140   -8.2910   13.4290 O.2    88  GLY88      -0.2717
     75  N        -17.9870   -6.9340   11.6760 N.am   89  GLN89      -0.1965
     76  CA       -17.3880   -7.9820   10.8460 C.3    89  GLN89       0.1733
     77  C        -15.8680   -7.8840   10.8960 C.2    89  GLN89       0.2616
     78  O        -15.2950   -6.8740   10.4980 O.2    89  GLN89      -0.2715
     79  CB       -17.8700   -7.8770    9.3910 C.3    89  GLN89       0.0408
     80  CG       -19.3090   -8.3300    9.1660 C.3    89  GLN89       0.0908
     81  CD       -19.6020   -9.7000    9.7680 C.2    89  GLN89       0.2608
     82  OE1      -19.2630  -10.7340    9.1880 O.2    89  GLN89      -0.2717
     83  NE2      -20.2300   -9.7110   10.9420 N.am   89  GLN89      -0.0878
     84  N        -15.2340   -8.9440   11.3850 N.am   90  PHE90      -0.1974
     85  CA       -13.7810   -9.0010   11.5440 C.3    90  PHE90       0.1639
     86  C        -13.2240  -10.2340   10.8500 C.2    90  PHE90       0.2290
     87  O        -13.9180  -11.2290   10.6850 O.2    90  PHE90      -0.2864
     88  CB       -13.4090   -9.0340   13.0370 C.3    90  PHE90       0.0560
     89  CG       -14.0910   -7.9740   13.8490 C.ar   90  PHE90      -0.0200
     90  CD1      -13.6370   -6.6590   13.8270 C.ar   90  PHE90      -0.0042
     91  CD2      -15.2070   -8.2820   14.6130 C.ar   90  PHE90      -0.0042
     92  CE1      -14.2720   -5.6780   14.5640 C.ar   90  PHE90      -0.0003
     93  CE2      -15.8480   -7.3030   15.3620 C.ar   90  PHE90      -0.0003
     94  CZ       -15.3790   -5.9990   15.3340 C.ar   90  PHE90      -0.0000
     95  N        -14.4950  -15.3000   22.2710 N.3   116  ILE116     -0.1231
     96  CA       -15.7800  -15.7660   21.7660 C.3   116  ILE116      0.1692
     97  C        -15.9790  -15.3300   20.3100 C.2   116  ILE116      0.2592
     98  O        -17.0450  -15.5670   19.7400 O.2   116  ILE116     -0.2718
     99  CB       -16.9610  -15.2380   22.6180 C.3   116  ILE116      0.0266
    100  CG1      -17.0660  -13.7120   22.5300 C.3   116  ILE116      0.0019
    101  CG2      -16.7980  -15.6490   24.0760 C.3   116  ILE116      0.0020
    102  CD1      -18.3920  -13.1470   22.9990 C.3   116  ILE116      0.0001
    103  N        -14.9630  -14.6900   19.7250 N.am  117  ASP117     -0.1974
    104  CA       -15.0720  -14.1370   18.3680 C.3   117  ASP117      0.1709
    105  C        -15.0830  -15.1770   17.2450 C.2   117  ASP117      0.2293
    106  O        -15.4240  -14.8560   16.1070 O.2   117  ASP117     -0.2864
    107  CB       -14.0180  -13.0460   18.1100 C.3   117  ASP117      0.1436
    108  CG       -12.5590  -13.5240   18.2850 C.2   117  ASP117      0.3671
    109  OD1      -12.2190  -14.6880   17.9580 O.co2 117  ASP117     -0.2456
    110  OD2      -11.7300  -12.6870   18.7170 O.co2 117  ASP117     -0.2456
    111  N        -21.2040  -17.8540   21.7360 N.3   137  PHE137     -0.1241
    112  CA       -22.4820  -17.1440   21.6060 C.3   137  PHE137      0.1605
    113  C        -23.4470  -17.8890   20.6820 C.2   137  PHE137      0.2264
    114  O        -24.6070  -17.5040   20.5590 O.2   137  PHE137     -0.2867
    115  CB       -22.3120  -15.6660   21.1910 C.3   137  PHE137      0.0534
    116  CG       -21.7630  -15.4530   19.8030 C.ar  137  PHE137     -0.0203
    117  CD1      -22.5730  -15.5990   18.6830 C.ar  137  PHE137     -0.0042
    118  CD2      -20.4490  -15.0390   19.6190 C.ar  137  PHE137     -0.0042
    119  CE1      -22.0690  -15.3810   17.4090 C.ar  137  PHE137     -0.0003
    120  CE2      -19.9450  -14.8150   18.3460 C.ar  137  PHE137     -0.0003
    121  CZ       -20.7560  -14.9870   17.2410 C.ar  137  PHE137     -0.0000
    122  N        -26.5470  -15.9190   26.1440 N.3   177  PRO177     -0.2116
    123  CA       -25.6400  -16.7500   25.3570 C.3   177  PRO177      0.1372
    124  C        -24.6780  -17.5180   26.2450 C.2   177  PRO177      0.2244
    125  O        -24.3010  -17.0330   27.3230 O.2   177  PRO177     -0.2868
    126  CB       -24.8620  -15.7450   24.5070 C.3   177  PRO177      0.0268
    127  CG       -25.5520  -14.4430   24.6550 C.3   177  PRO177      0.0207
    128  CD       -26.3440  -14.4840   25.9140 C.3   177  PRO177      0.0892
    129  N        -21.7490  -17.6700   26.6550 N.3   179  ILE179     -0.1245
    130  CA       -20.4490  -17.0590   26.8830 C.3   179  ILE179      0.1561
    131  C        -20.2910  -16.9910   28.4100 C.2   179  ILE179      0.2260
    132  O        -21.2540  -16.7100   29.1430 O.2   179  ILE179     -0.2867
    133  CB       -20.2750  -15.6930   26.1750 C.3   179  ILE179      0.0252
    134  CG1      -21.3150  -14.6700   26.6320 C.3   179  ILE179      0.0019
    135  CG2      -20.3300  -15.8670   24.6570 C.3   179  ILE179      0.0019
    136  CD1      -21.1650  -13.3030   25.9790 C.3   179  ILE179      0.0001
@<TRIPOS>BOND
     1    80    79    1
     2    80    81    1
     3    82    81    2
     4    79    76    1
     5    81    83   am
     6    78    77    2
     7    87    86    2
     8    76    77    1
     9    76    75    1
    10    86    85    1
    11    77    84   am
    12    84    85    1
    13    85    88    1
    14    75    73   am
    15    73    74    2
    16    73    72    1
    17    88    89    1
    18    72    71    1
    19    90    89   ar
    20    90    92   ar
    21    89    91   ar
    22    92    94   ar
    23    91    93   ar
    24    70    69    1
    25    67    69   ar
    26    67    65   ar
    27    94    93   ar
    28    62    61    2
    29    69    68   ar
    30    65    64   ar
    31   106   105    2
    32    61    60    1
    33    68    66   ar
    34     8     6    1
    35     1     2    1
    36     6     5    1
    37    64    66   ar
    38    64    63    1
    39   121   119   ar
    40   121   120   ar
    41   105   104    1
    42   119   117   ar
    43    60    63    1
    44    60    59    1
    45    54    53    2
    46   109   108   ar
    47   107   108    1
    48   107   104    1
    49   108   110   ar
    50     2     5    1
    51     2     3    1
    52   120   118   ar
    53   104   103    1
    54     5     7    1
    55    53    59   am
    56    53    52    1
    57   117   116   ar
    58    52    51    1
    59    52    55    1
    60     3     4    2
    61     3     9   am
    62   118   116   ar
    63   103    97   am
    64    98    97    2
    65   116   115    1
    66    97    96    1
    67    49    48    2
    68     9    15    1
    69     9    10    1
    70    15    14    1
    71   114   113    2
    72   113   112    1
    73    55    56    1
    74    58    56    1
    75   115   112    1
    76    48    47    1
    77   112   111    1
    78    10    13    1
    79    10    11    1
    80    56    57    1
    81    96    95    1
    82    96    99    1
    83    14    13    1
    84   100    99    1
    85   100   102    1
    86    11    12    2
    87    99   101    1
    88    41    40    2
    89    47    50    1
    90    47    46    1
    91    40    46   am
    92    40    39    1
    93   126   127    1
    94   126   123    1
    95   127   128    1
    96   135   133    1
    97    39    38    1
    98    39    42    1
    99    44    43    1
   100   123   122    1
   101   123   124    1
   102    43    42    1
   103    43    45    1
   104   128   122    1
   105   136   134    1
   106   133   134    1
   107   133   130    1
   108   124   125    2
   109    30    29    2
   110    37    36   ar
   111    37    35   ar
   112   129   130    1
   113   130   131    1
   114    36    34   ar
   115    35    33   ar
   116    29    28    1
   117    26    24   ar
   118    26    25   ar
   119    34    32   ar
   120    24    22   ar
   121    33    32   ar
   122   131   132    2
   123    32    31    1
   124    25    23   ar
   125    28    31    1
   126    28    27    1
   127    22    21   ar
   128    23    21   ar
   129    21    20    1
   130    20    17    1
   131    17    16    1
   132    17    18    1
   133    18    19    2
