@<TRIPOS>MOLECULE
tmp/5d7qA01.pdb
 141 137 0 0 0
SMALL
GASTEIGER

@<TRIPOS>ATOM
      1  N         -7.5230  -12.1080   24.2440 N.3    32  ALA32      -0.1245
      2  CA        -8.1280  -11.0700   23.4110 C.3    32  ALA32       0.1562
      3  C         -7.0910  -10.2370   22.6790 C.2    32  ALA32       0.2260
      4  O         -7.4130   -9.5100   21.7370 O.2    32  ALA32      -0.2867
      5  CB        -9.0270  -10.1860   24.2530 C.3    32  ALA32       0.0290
      6  N         -6.7250  -10.8160   18.8000 N.3    35  SER35      -0.1217
      7  CA        -7.7560  -10.2580   17.9190 C.3    35  SER35       0.1889
      8  C         -7.8040   -8.7210   17.8370 C.2    35  SER35       0.2288
      9  O         -8.5570   -8.1850   17.0340 O.2    35  SER35      -0.2866
     10  CB        -9.1200  -10.7870   18.3300 C.3    35  SER35       0.2089
     11  OG        -9.1860  -12.1870   18.1330 O.3    35  SER35      -0.2183
     12  N        -10.9640   -5.7690   17.1210 N.3    40  ILE40      -0.1231
     13  CA       -11.7140   -6.1330   18.3170 C.3    40  ILE40       0.1678
     14  C        -10.9510   -5.6420   19.5520 C.2    40  ILE40       0.2434
     15  O         -9.7760   -5.9560   19.7210 O.2    40  ILE40      -0.2733
     16  CB       -11.9080   -7.6570   18.4130 C.3    40  ILE40       0.0265
     17  CG1      -12.6140   -8.1740   17.1460 C.3    40  ILE40       0.0019
     18  CG2      -12.7150   -8.0030   19.6460 C.3    40  ILE40       0.0020
     19  CD1      -12.6560   -9.6790   17.0150 C.3    40  ILE40       0.0001
     20  N        -11.6100   -4.8720   20.4290 N.am   41  PRO41      -0.2718
     21  CA       -10.8700   -4.4410   21.6200 C.3    41  PRO41       0.1535
     22  C        -10.5560   -5.6160   22.5560 C.2    41  PRO41       0.2599
     23  O        -11.2770   -6.6130   22.5660 O.2    41  PRO41      -0.2715
     24  CB       -11.8410   -3.4670   22.3000 C.3    41  PRO41       0.0310
     25  CG       -13.1950   -3.9660   21.8960 C.3    41  PRO41       0.0237
     26  CD       -13.0410   -4.5190   20.5000 C.3    41  PRO41       0.0939
     27  N         -9.4740   -5.4950   23.3130 N.am   42  ASP42      -0.1958
     28  CA        -9.2120   -6.3940   24.4200 C.3    42  ASP42       0.1840
     29  C         -9.9260   -5.8740   25.6830 C.2    42  ASP42       0.2622
     30  O        -10.7880   -4.9860   25.5980 O.2    42  ASP42      -0.2715
     31  CB        -7.7080   -6.6020   24.6280 C.3    42  ASP42       0.1450
     32  CG        -7.0070   -5.4020   25.2440 C.2    42  ASP42       0.3671
     33  OD1       -7.6780   -4.4660   25.7250 O.co2  42  ASP42      -0.2456
     34  OD2       -5.7580   -5.4040   25.2370 O.co2  42  ASP42      -0.2456
     35  N         -9.5840   -6.4420   26.8420 N.am   43  PHE43      -0.1974
     36  CA       -10.2480   -6.0790   28.0870 C.3    43  PHE43       0.1639
     37  C         -9.4750   -5.0810   28.9270 C.2    43  PHE43       0.2290
     38  O        -10.0400   -4.0690   29.3710 O.2    43  PHE43      -0.2864
     39  CB       -10.5070   -7.3310   28.9200 C.3    43  PHE43       0.0560
     40  CG       -11.6570   -8.1470   28.4300 C.ar   43  PHE43      -0.0200
     41  CD1      -12.9570   -7.8240   28.8130 C.ar   43  PHE43      -0.0042
     42  CD2      -11.4520   -9.2410   27.6080 C.ar   43  PHE43      -0.0042
     43  CE1      -14.0270   -8.5720   28.3760 C.ar   43  PHE43      -0.0003
     44  CE2      -12.5230   -9.9930   27.1630 C.ar   43  PHE43      -0.0003
     45  CZ       -13.8110   -9.6560   27.5400 C.ar   43  PHE43      -0.0000
     46  N        -11.8420   -2.7120   26.7560 N.3    50  LEU50      -0.1245
     47  CA       -13.2780   -2.6170   27.0100 C.3    50  LEU50       0.1561
     48  C        -13.6220   -2.1660   28.4360 C.2    50  LEU50       0.2260
     49  O        -14.5240   -1.3460   28.6290 O.2    50  LEU50      -0.2867
     50  CB       -13.9350   -3.9670   26.7190 C.3    50  LEU50       0.0270
     51  CG       -15.4570   -4.0350   26.6190 C.3    50  LEU50       0.0019
     52  CD1      -16.0120   -3.1440   25.5100 C.3    50  LEU50       0.0001
     53  CD2      -15.8450   -5.4780   26.3670 C.3    50  LEU50       0.0001
     54  N        -20.1060   -8.5880   32.6530 N.3    66  PHE66      -0.1241
     55  CA       -19.9660  -10.0090   32.3520 C.3    66  PHE66       0.1605
     56  C        -19.8600  -10.8110   33.6400 C.2    66  PHE66       0.2264
     57  O        -18.9820  -11.6610   33.7860 O.2    66  PHE66      -0.2867
     58  CB       -18.7370  -10.2590   31.4740 C.3    66  PHE66       0.0534
     59  CG       -18.7610   -9.5150   30.1610 C.ar   66  PHE66      -0.0203
     60  CD1      -19.8710   -9.5600   29.3410 C.ar   66  PHE66      -0.0042
     61  CD2      -17.6690   -8.7780   29.7500 C.ar   66  PHE66      -0.0042
     62  CE1      -19.8930   -8.8870   28.1370 C.ar   66  PHE66      -0.0003
     63  CE2      -17.6850   -8.1040   28.5450 C.ar   66  PHE66      -0.0003
     64  CZ       -18.7990   -8.1620   27.7350 C.ar   66  PHE66      -0.0000
     65  N        -21.7020   -4.4370   19.9040 N.3    85  LEU85      -0.1245
     66  CA       -20.5060   -5.1710   19.4710 C.3    85  LEU85       0.1561
     67  C        -20.7550   -6.3360   18.5100 C.2    85  LEU85       0.2260
     68  O        -19.8550   -6.7140   17.7650 O.2    85  LEU85      -0.2867
     69  CB       -19.7410   -5.6950   20.6860 C.3    85  LEU85       0.0270
     70  CG       -19.1170   -4.6570   21.6230 C.3    85  LEU85       0.0019
     71  CD1      -18.5480   -5.3400   22.8600 C.3    85  LEU85       0.0001
     72  CD2      -18.0400   -3.8460   20.9190 C.3    85  LEU85       0.0001
     73  N         -9.7170  -17.9470   25.1300 N.3   114  GLN114     -0.1231
     74  CA       -10.6110  -17.2430   26.0330 C.3   114  GLN114      0.1698
     75  C        -11.5430  -16.3160   25.2490 C.2   114  GLN114      0.2592
     76  O        -12.3620  -15.6030   25.8290 O.2   114  GLN114     -0.2718
     77  CB        -9.7890  -16.4350   27.0480 C.3   114  GLN114      0.0381
     78  CG        -8.8630  -17.2590   27.9440 C.3   114  GLN114      0.0905
     79  CD        -7.8680  -16.3910   28.6980 C.2   114  GLN114      0.2608
     80  OE1       -8.0250  -16.1260   29.8880 O.2   114  GLN114     -0.2717
     81  NE2       -6.8470  -15.9360   28.0050 N.am  114  GLN114     -0.0878
     82  N        -11.3990  -16.3110   23.9290 N.am  115  ASN115     -0.1960
     83  CA       -12.2040  -15.4600   23.0610 C.3   115  ASN115      0.1819
     84  C        -13.5020  -16.1340   22.5780 C.2   115  ASN115      0.2621
     85  O        -13.6180  -17.3660   22.5190 O.2   115  ASN115     -0.2715
     86  CB       -11.3770  -15.0120   21.8540 C.3   115  ASN115      0.1195
     87  CG       -10.1280  -14.2090   22.2320 C.2   115  ASN115      0.2630
     88  OD1       -9.9940  -13.6840   23.3390 O.2   115  ASN115     -0.2716
     89  ND2       -9.2090  -14.0910   21.2720 N.am  115  ASN115     -0.0877
     90  N        -14.4950  -15.3000   22.2710 N.am  116  ILE116     -0.1963
     91  CA       -15.7800  -15.7660   21.7660 C.3   116  ILE116      0.1727
     92  C        -15.9790  -15.3300   20.3100 C.2   116  ILE116      0.2616
     93  O        -17.0450  -15.5670   19.7400 O.2   116  ILE116     -0.2715
     94  CB       -16.9610  -15.2380   22.6180 C.3   116  ILE116      0.0290
     95  CG1      -17.0660  -13.7120   22.5300 C.3   116  ILE116      0.0022
     96  CG2      -16.7980  -15.6490   24.0760 C.3   116  ILE116      0.0023
     97  CD1      -18.3920  -13.1470   22.9990 C.3   116  ILE116      0.0001
     98  N        -14.9630  -14.6900   19.7250 N.am  117  ASP117     -0.1971
     99  CA       -15.0720  -14.1370   18.3680 C.3   117  ASP117      0.1709
    100  C        -15.0830  -15.1770   17.2450 C.2   117  ASP117      0.2293
    101  O        -15.4240  -14.8560   16.1070 O.2   117  ASP117     -0.2864
    102  CB       -14.0180  -13.0460   18.1100 C.3   117  ASP117      0.1436
    103  CG       -12.5590  -13.5240   18.2850 C.2   117  ASP117      0.3671
    104  OD1      -12.2190  -14.6880   17.9580 O.co2 117  ASP117     -0.2456
    105  OD2      -11.7300  -12.6870   18.7170 O.co2 117  ASP117     -0.2456
    106  N        -14.0080  -20.0310   27.3810 N.3   134  HIS134     -0.1241
    107  CA       -15.0060  -19.0640   27.8860 C.3   134  HIS134      0.1621
    108  C        -16.3000  -19.0250   27.0640 C.2   134  HIS134      0.2264
    109  O        -16.9890  -18.0190   27.0130 O.2   134  HIS134     -0.2867
    110  CB       -14.3780  -17.6700   28.0170 C.3   134  HIS134      0.0745
    111  CG       -13.3080  -17.5950   29.0590 C.ar  134  HIS134      0.0817
    112  ND1      -12.4610  -16.5140   29.1810 N.ar  134  HIS134     -0.2268
    113  CD2      -12.9320  -18.4780   30.0210 C.ar  134  HIS134      0.1154
    114  CE1      -11.6130  -16.7290   30.1720 C.ar  134  HIS134      0.1986
    115  NE2      -11.8730  -17.9150   30.6950 N.ar  134  HIS134     -0.2212
    116  N        -21.7490  -17.6700   26.6550 N.3   179  ILE179     -0.1231
    117  CA       -20.4490  -17.0590   26.8830 C.3   179  ILE179      0.1692
    118  C        -20.2910  -16.9910   28.4100 C.2   179  ILE179      0.2592
    119  O        -21.2540  -16.7100   29.1430 O.2   179  ILE179     -0.2718
    120  CB       -20.2750  -15.6930   26.1750 C.3   179  ILE179      0.0266
    121  CG1      -21.3150  -14.6700   26.6320 C.3   179  ILE179      0.0019
    122  CG2      -20.3300  -15.8670   24.6570 C.3   179  ILE179      0.0020
    123  CD1      -21.1650  -13.3030   25.9790 C.3   179  ILE179      0.0001
    124  N        -19.0900  -17.2980   28.8800 N.am  180  VAL180     -0.1966
    125  CA       -18.8770  -17.5500   30.2970 C.3   180  VAL180      0.1727
    126  C        -18.6350  -16.2380   31.0470 C.2   180  VAL180      0.2616
    127  O        -17.6400  -15.5570   30.7990 O.2   180  VAL180     -0.2715
    128  CB       -17.7070  -18.5240   30.5310 C.3   180  VAL180      0.0290
    129  CG1      -17.4500  -18.7030   32.0200 C.3   180  VAL180      0.0023
    130  CG2      -18.0140  -19.8610   29.8820 C.3   180  VAL180      0.0023
    131  N        -19.5700  -15.9120   31.9400 N.am  181  PHE181     -0.1974
    132  CA       -19.4980  -14.7730   32.8710 C.3   181  PHE181      0.1639
    133  C        -18.7560  -15.1570   34.1740 C.2   181  PHE181      0.2290
    134  O        -18.7230  -16.3300   34.5500 O.2   181  PHE181     -0.2864
    135  CB       -20.9260  -14.3680   33.2760 C.3   181  PHE181      0.0560
    136  CG       -21.7080  -13.5880   32.2320 C.ar  181  PHE181     -0.0200
    137  CD1      -21.2680  -13.4440   30.9160 C.ar  181  PHE181     -0.0042
    138  CD2      -22.9180  -12.9950   32.5880 C.ar  181  PHE181     -0.0042
    139  CE1      -22.0110  -12.7240   29.9930 C.ar  181  PHE181     -0.0003
    140  CE2      -23.6630  -12.2720   31.6640 C.ar  181  PHE181     -0.0003
    141  CZ       -23.2100  -12.1360   30.3680 C.ar  181  PHE181     -0.0000
@<TRIPOS>BOND
     1   101   100    2
     2    19    17    1
     3     9     8    2
     4    12    13    1
     5    17    16    1
     6   100    99    1
     7    68    67    2
     8     8     7    1
     9     7    10    1
    10     7     6    1
    11   104   103   ar
    12   102   103    1
    13   102    99    1
    14    11    10    1
    15   103   105   ar
    16    13    16    1
    17    13    14    1
    18    99    98    1
    19    16    18    1
    20    67    66    1
    21    66    65    1
    22    66    69    1
    23    14    15    2
    24    14    20   am
    25    98    92   am
    26    93    92    2
    27    92    91    1
    28    20    26    1
    29    20    21    1
    30    26    25    1
    31    69    70    1
    32    72    70    1
    33    89    87   am
    34    21    24    1
    35    21    22    1
    36    70    71    1
    37     4     3    2
    38    91    90    1
    39    91    94    1
    40    86    87    1
    41    86    83    1
    42    25    24    1
    43    87    88    2
    44    90    84   am
    45    85    84    2
    46    95    94    1
    47    95    97    1
    48    22    23    2
    49    22    27   am
    50    84    83    1
    51    94    96    1
    52     3     2    1
    53    83    82    1
    54    27    28    1
    55     2     1    1
    56     2     5    1
    57    82    75   am
    58    28    31    1
    59    28    29    1
    60    31    32    1
    61   122   120    1
    62    73    74    1
    63    34    32   ar
    64    32    33   ar
    65    75    76    2
    66    75    74    1
    67    52    51    1
    68    30    29    2
    69    29    35   am
    70   123   121    1
    71    74    77    1
    72   120   121    1
    73   120   117    1
    74    53    51    1
    75    51    50    1
    76   116   117    1
    77    50    47    1
    78    46    47    1
    79    35    36    1
    80   117   118    1
    81    47    48    1
    82   109   108    2
    83    77    78    1
    84   108   107    1
    85    44    45   ar
    86    44    42   ar
    87   106   107    1
    88    45    43   ar
    89    42    40   ar
    90    64    62   ar
    91    64    63   ar
    92   107   110    1
    93    78    79    1
    94    81    79   am
    95   110   111    1
    96    36    39    1
    97    36    37    1
    98    62    60   ar
    99    43    41   ar
   100   118   124   am
   101   118   119    2
   102    40    41   ar
   103    40    39    1
   104    48    49    2
   105    63    61   ar
   106    79    80    2
   107   124   125    1
   108    37    38    2
   109   111   112   ar
   110   111   113   ar
   111   112   114   ar
   112    60    59   ar
   113    61    59   ar
   114   130   128    1
   115   139   141   ar
   116   139   137   ar
   117   113   115   ar
   118    59    58    1
   119   114   115   ar
   120   125   128    1
   121   125   126    1
   122   141   140   ar
   123   128   129    1
   124   127   126    2
   125   137   136   ar
   126   126   131   am
   127    58    55    1
   128   140   138   ar
   129   131   132    1
   130   136   138   ar
   131   136   135    1
   132    55    54    1
   133    55    56    1
   134   132   135    1
   135   132   133    1
   136    56    57    2
   137   133   134    2
