@<TRIPOS>MOLECULE
tmp/5d7rB01.pdb
 125 117 0 0 0
SMALL
GASTEIGER

@<TRIPOS>ATOM
      1  N        -22.3400  -36.7570   -3.9080 N.3    33  ILE33      -0.1245
      2  CA       -22.5690  -38.1750   -4.1850 C.3    33  ILE33       0.1561
      3  C        -22.5890  -38.3430   -5.7070 C.2    33  ILE33       0.2260
      4  O        -21.9990  -39.2660   -6.3040 O.2    33  ILE33      -0.2867
      5  CB       -23.9300  -38.6480   -3.5520 C.3    33  ILE33       0.0252
      6  CG1      -23.9320  -38.5780   -1.9800 C.3    33  ILE33       0.0019
      7  CG2      -24.3040  -40.0220   -4.1220 C.3    33  ILE33       0.0019
      8  CD1      -22.7930  -39.2230   -1.3090 C.3    33  ILE33       0.0001
      9  N        -19.1910  -38.6810   -7.4050 N.3    36  ASN36      -0.1225
     10  CA       -18.6310  -40.0240   -7.3120 C.3    36  ASN36       0.1785
     11  C        -19.1090  -40.9570   -8.3930 C.2    36  ASN36       0.2597
     12  O        -18.3230  -41.6890   -9.0340 O.2    36  ASN36      -0.2718
     13  CB       -18.8860  -40.5940   -5.9480 C.3    36  ASN36       0.1169
     14  CG       -18.1400  -39.8440   -4.8510 C.2    36  ASN36       0.2627
     15  OD1      -17.0870  -39.3230   -5.1000 O.2    36  ASN36      -0.2716
     16  ND2      -18.7320  -39.7250   -3.7250 N.am   36  ASN36      -0.0877
     17  N        -20.4090  -40.8200   -8.7440 N.am   37  SER37      -0.1952
     18  CA       -20.9810  -41.4930   -9.8820 C.3    37  SER37       0.1924
     19  C        -20.3650  -41.0200  -11.2030 C.2    37  SER37       0.2314
     20  O        -20.0550  -41.8320  -12.1050 O.2    37  SER37      -0.2863
     21  CB       -22.5090  -41.3980   -9.9200 C.3    37  SER37       0.2116
     22  OG       -23.0470  -42.1630   -8.8430 O.3    37  SER37      -0.2180
     23  N        -17.0330  -42.4780  -11.7530 N.3    40  GLU40      -0.1245
     24  CA       -17.1740  -43.7710  -12.2880 C.3    40  GLU40       0.1567
     25  C        -17.4950  -43.8700  -13.7880 C.2    40  GLU40       0.2260
     26  O        -17.0910  -44.8010  -14.5340 O.2    40  GLU40      -0.2867
     27  CB       -18.1780  -44.5370  -11.3620 C.3    40  GLU40       0.0388
     28  CG       -18.3080  -45.9620  -11.4950 C.3    40  GLU40       0.1160
     29  CD       -17.0400  -46.7570  -11.0720 C.2    40  GLU40       0.3649
     30  OE1      -15.9970  -46.2730  -10.5730 O.co2  40  GLU40      -0.2457
     31  OE2      -17.2030  -47.9750  -11.3610 O.co2  40  GLU40      -0.2457
     32  N        -29.2960  -41.8660   -5.1150 N.3    61  VAL61      -0.1231
     33  CA       -28.4330  -41.7440   -6.3460 C.3    61  VAL61       0.1692
     34  C        -28.0400  -43.1860   -6.7020 C.2    61  VAL61       0.2593
     35  O        -27.5320  -43.8780   -5.7870 O.2    61  VAL61      -0.2718
     36  CB       -27.2160  -40.9240   -6.0530 C.3    61  VAL61       0.0266
     37  CG1      -26.3400  -40.7790   -7.2770 C.3    61  VAL61       0.0020
     38  CG2      -27.5830  -39.4950   -5.6180 C.3    61  VAL61       0.0020
     39  N        -28.2560  -43.5380   -7.9100 N.am   62  THR62      -0.1939
     40  CA       -27.8720  -44.8770   -8.4110 C.3    62  THR62       0.2028
     41  C        -26.9440  -44.6650   -9.5610 C.2    62  THR62       0.2642
     42  O        -27.2430  -43.8710  -10.4420 O.2    62  THR62      -0.2714
     43  CB       -29.1570  -45.6030   -8.8590 C.3    62  THR62       0.1808
     44  OG1      -30.0010  -45.7520   -7.6920 O.3    62  THR62      -0.2208
     45  CG2      -28.8480  -47.0470   -9.2820 C.3    62  THR62       0.0379
     46  N        -25.9680  -45.5440   -9.6760 N.am   63  ASP63      -0.1971
     47  CA       -25.2410  -45.6000  -10.8980 C.3    63  ASP63       0.1709
     48  C        -25.0450  -47.0360  -11.2800 C.2    63  ASP63       0.2293
     49  O        -25.2080  -47.9690  -10.4670 O.2    63  ASP63      -0.2864
     50  CB       -23.9290  -44.8840  -10.9400 C.3    63  ASP63       0.1436
     51  CG       -22.8680  -45.4460   -9.9760 C.2    63  ASP63       0.3671
     52  OD1      -22.3870  -44.7660   -9.1020 O.co2  63  ASP63      -0.2456
     53  OD2      -22.4680  -46.6310  -10.1670 O.co2  63  ASP63      -0.2456
     54  N        -19.1340  -50.0520  -11.2650 N.3    66  ARG66      -0.1231
     55  CA       -18.5910  -51.4080  -10.7920 C.3    66  ARG66       0.1694
     56  C        -19.1870  -51.8280   -9.4610 C.2    66  ARG66       0.2593
     57  O        -19.0130  -53.0000   -9.0170 O.2    66  ARG66      -0.2718
     58  CB       -17.0990  -51.3840  -10.6640 C.3    66  ARG66       0.0321
     59  CG       -16.4580  -51.2360  -12.0270 C.3    66  ARG66       0.0489
     60  CD       -14.9770  -50.9180  -11.9500 C.3    66  ARG66       0.2205
     61  NE       -14.8000  -49.5460  -11.4540 N.pl3  66  ARG66      -0.0865
     62  CZ       -13.6440  -48.9210  -11.2630 C.cat  66  ARG66       0.5346
     63  NH1      -13.5910  -47.6500  -10.8980 N.pl3  66  ARG66       0.1354
     64  NH2      -12.4870  -49.6200  -11.4530 N.pl3  66  ARG66       0.1354
     65  N        -19.7200  -50.8370   -8.7520 N.am   67  GLY67      -0.1942
     66  CA       -20.0460  -51.1260   -7.4180 C.3    67  GLY67       0.2014
     67  C        -18.9410  -50.8510   -6.4320 C.2    67  GLY67       0.2639
     68  O        -17.7700  -51.1600   -6.7120 O.2    67  GLY67      -0.2714
     69  N        -19.1720  -50.0580   -5.3390 N.am   68  ILE68      -0.1963
     70  CA       -18.0980  -49.8140   -4.4220 C.3    68  ILE68       0.1712
     71  C        -17.4950  -51.0670   -3.8520 C.2    68  ILE68       0.2458
     72  O        -18.2050  -51.9670   -3.4550 O.2    68  ILE68      -0.2730
     73  CB       -18.5320  -48.8400   -3.2350 C.3    68  ILE68       0.0289
     74  CG1      -19.1450  -47.5610   -3.8020 C.3    68  ILE68       0.0022
     75  CG2      -17.4170  -48.5610   -2.2400 C.3    68  ILE68       0.0023
     76  CD1      -19.8190  -46.7810   -2.6430 C.3    68  ILE68       0.0001
     77  N        -16.1470  -51.2090   -3.8120 N.am   69  PRO69      -0.2727
     78  CA       -15.6430  -52.4970   -3.3240 C.3    69  PRO69       0.1402
     79  C        -16.0030  -52.8160   -1.9030 C.2    69  PRO69       0.2269
     80  O        -16.1560  -51.9010   -1.0580 O.2    69  PRO69      -0.2865
     81  CB       -14.1160  -52.4020   -3.5150 C.3    69  PRO69       0.0296
     82  CG       -13.8850  -51.2120   -4.3310 C.3    69  PRO69       0.0237
     83  CD       -15.1210  -50.4390   -4.5480 C.3    69  PRO69       0.0939
     84  N        -14.7640  -46.0870    3.1630 N.3    81  ILE81      -0.1231
     85  CA       -15.1320  -45.0030    2.3060 C.3    81  ILE81       0.1692
     86  C        -16.3100  -44.2380    2.8460 C.2    81  ILE81       0.2591
     87  O        -16.2230  -42.9580    2.9650 O.2    81  ILE81      -0.2718
     88  CB       -15.4320  -45.5040    0.8930 C.3    81  ILE81       0.0266
     89  CG1      -14.1540  -46.0880    0.2800 C.3    81  ILE81       0.0019
     90  CG2      -16.0620  -44.4430   -0.0080 C.3    81  ILE81       0.0020
     91  CD1      -14.3740  -46.9440   -0.9480 C.3    81  ILE81       0.0001
     92  N        -17.4280  -44.9300    3.1860 N.am   82  LEU82      -0.1980
     93  CA       -18.5780  -44.1700    3.7440 C.3    82  LEU82       0.1596
     94  C        -18.4060  -43.5240    5.0800 C.2    82  LEU82       0.2287
     95  O        -19.0160  -42.4530    5.2750 O.2    82  LEU82      -0.2864
     96  CB       -19.9250  -44.9600    3.5630 C.3    82  LEU82       0.0297
     97  CG       -20.2110  -45.2610    2.0270 C.3    82  LEU82       0.0022
     98  CD1      -21.5060  -46.0770    1.9180 C.3    82  LEU82       0.0001
     99  CD2      -20.3280  -43.9750    1.1930 C.3    82  LEU82       0.0001
    100  N        -22.4470  -56.1200   -6.7750 N.3   100  ARG100     -0.1245
    101  CA       -21.1120  -56.4770   -7.1550 C.3   100  ARG100      0.1563
    102  C        -20.8960  -57.9730   -6.8170 C.2   100  ARG100      0.2260
    103  O        -21.4670  -58.5150   -5.8880 O.2   100  ARG100     -0.2867
    104  CB       -20.1240  -55.5920   -6.4100 C.3   100  ARG100      0.0307
    105  CG       -18.6430  -55.6860   -6.7880 C.3   100  ARG100      0.0489
    106  CD       -17.8620  -54.6880   -5.9820 C.3   100  ARG100      0.2205
    107  NE       -16.4510  -54.9730   -6.1200 N.pl3 100  ARG100     -0.0865
    108  CZ       -15.6410  -54.3690   -6.9290 C.cat 100  ARG100      0.5346
    109  NH1      -15.9640  -53.2200   -7.5380 N.pl3 100  ARG100      0.1354
    110  NH2      -14.3670  -54.8480   -6.9880 N.pl3 100  ARG100      0.1354
    111  N        -24.0110  -49.0690   -7.7520 N.3   129  THR129     -0.1218
    112  CA       -24.1460  -48.6150   -6.4090 C.3   129  THR129      0.1862
    113  C        -25.3880  -47.7620   -6.2590 C.2   129  THR129      0.2287
    114  O        -25.7220  -46.9110   -7.1060 O.2   129  THR129     -0.2866
    115  CB       -22.9340  -47.7130   -5.9780 C.3   129  THR129      0.1770
    116  OG1      -21.7070  -48.4700   -6.1660 O.3   129  THR129     -0.2211
    117  CG2      -22.9370  -47.2930   -4.5870 C.3   129  THR129      0.0375
    118  N        -26.9670  -45.2090   -3.2870 N.3   131  ILE131     -0.1245
    119  CA       -26.8670  -44.5850   -1.9960 C.3   131  ILE131      0.1561
    120  C        -28.1080  -43.7230   -1.7460 C.2   131  ILE131      0.2260
    121  O        -28.5110  -42.9400   -2.6520 O.2   131  ILE131     -0.2867
    122  CB       -25.6050  -43.7190   -1.8760 C.3   131  ILE131      0.0252
    123  CG1      -24.3180  -44.5570   -2.0630 C.3   131  ILE131      0.0019
    124  CG2      -25.5820  -42.8840   -0.6060 C.3   131  ILE131      0.0019
    125  CD1      -23.0920  -43.7390   -1.8750 C.3   131  ILE131      0.0001
@<TRIPOS>BOND
     1    26    25    2
     2    25    24    1
     3    24    23    1
     4    24    27    1
     5    20    19    2
     6    59    60    1
     7    59    58    1
     8    60    61    1
     9    28    27    1
    10    28    29    1
    11    61    62    2
    12    64    62    1
    13    31    29   ar
    14    48    47    1
    15    48    49    2
    16    54    55    1
    17    62    63    1
    18    19    18    1
    19    29    30   ar
    20    50    47    1
    21    50    51    1
    22    47    46    1
    23    55    58    1
    24    55    56    1
    25    42    41    2
    26    53    51   ar
    27    51    52   ar
    28    21    18    1
    29    21    22    1
    30    18    17    1
    31    46    41   am
    32    41    40    1
    33    56    57    2
    34    56    65   am
    35    45    43    1
    36    12    11    2
    37    43    40    1
    38    43    44    1
    39    65    66    1
    40    17    11   am
    41    40    39    1
    42    11    10    1
    43    39    34   am
    44   111   112    1
    45   109   108    1
    46    66    67    1
    47     9    10    1
    48    10    13    1
    49    37    36    1
    50   101   102    1
    51   101   100    1
    52   101   104    1
    53   114   113    2
    54   110   108    1
    55   108   107    2
    56   102   103    2
    57   105   104    1
    58   105   106    1
    59    68    67    2
    60    34    33    1
    61    34    35    2
    62    67    69   am
    63   112   113    1
    64   112   115    1
    65    33    36    1
    66    33    32    1
    67     4     3    2
    68   116   115    1
    69   107   106    1
    70    36    38    1
    71   115   117    1
    72    13    14    1
    73     3     2    1
    74    69    70    1
    75    15    14    2
    76    14    16   am
    77    83    82    1
    78    83    77    1
    79    70    71    1
    80    70    73    1
    81    82    81    1
    82     2     1    1
    83     2     5    1
    84     7     5    1
    85    71    77   am
    86    71    72    2
    87    77    78    1
    88    74    73    1
    89    74    76    1
    90     5     6    1
    91    81    78    1
    92    78    79    1
    93   118   119    1
    94    73    75    1
    95   121   120    2
    96   123   122    1
    97   123   125    1
    98   119   122    1
    99   119   120    1
   100     6     8    1
   101    79    80    2
   102   122   124    1
   103    91    89    1
   104    90    88    1
   105    89    88    1
   106    88    85    1
   107    99    97    1
   108    98    97    1
   109    97    96    1
   110    85    86    1
   111    85    84    1
   112    86    87    2
   113    86    92   am
   114    92    93    1
   115    96    93    1
   116    93    94    1
   117    94    95    2
