@<TRIPOS>MOLECULE
tmp/5d7xA00.pdb
 122 121 0 0 0
SMALL
GASTEIGER

@<TRIPOS>ATOM
      1  N         17.6460  -12.1820    5.8500 N.3    27  ASN27      -0.1225
      2  CA        17.0240  -13.2260    6.6690 C.3    27  ASN27       0.1785
      3  C         15.5020  -13.2150    6.5860 C.2    27  ASN27       0.2597
      4  O         14.8180  -13.5370    7.5570 O.2    27  ASN27      -0.2718
      5  CB        17.4930  -13.1140    8.1180 C.3    27  ASN27       0.1169
      6  CG        18.9670  -13.4450    8.2590 C.2    27  ASN27       0.2627
      7  OD1       19.4220  -14.4720    7.7600 O.2    27  ASN27      -0.2716
      8  ND2       19.7220  -12.5620    8.8950 N.am   27  ASN27      -0.0877
      9  N         14.9630  -12.8690    5.4230 N.am   28  ILE28      -0.1966
     10  CA        13.5100  -12.8310    5.3020 C.3    28  ILE28       0.1727
     11  C         12.9310  -14.2120    5.0450 C.2    28  ILE28       0.2616
     12  O         11.7200  -14.3780    5.0700 O.2    28  ILE28      -0.2715
     13  CB        13.0370  -11.8620    4.2010 C.3    28  ILE28       0.0290
     14  CG1       13.4310  -12.3510    2.8140 C.3    28  ILE28       0.0022
     15  CG2       13.5650  -10.4550    4.4750 C.3    28  ILE28       0.0023
     16  CD1       12.7780  -11.5370    1.6880 C.3    28  ILE28       0.0001
     17  N         13.7900  -15.1990    4.7920 N.am   29  PHE29      -0.1974
     18  CA        13.3330  -16.5730    4.5870 C.3    29  PHE29       0.1639
     19  C         13.7360  -17.5020    5.7230 C.2    29  PHE29       0.2290
     20  O         13.5570  -18.7130    5.6190 O.2    29  PHE29      -0.2864
     21  CB        13.8860  -17.1190    3.2700 C.3    29  PHE29       0.0560
     22  CG        13.5940  -16.2430    2.0850 C.ar   29  PHE29      -0.0200
     23  CD1       12.2990  -16.0430    1.6640 C.ar   29  PHE29      -0.0042
     24  CD2       14.6190  -15.6310    1.3940 C.ar   29  PHE29      -0.0042
     25  CE1       12.0320  -15.2400    0.5600 C.ar   29  PHE29      -0.0003
     26  CE2       14.3570  -14.8120    0.3000 C.ar   29  PHE29      -0.0003
     27  CZ        13.0600  -14.6190   -0.1140 C.ar   29  PHE29      -0.0000
     28  N         12.5910  -17.8200    8.8440 N.3    31  GLU31      -0.1231
     29  CA        11.5350  -18.2950    9.7370 C.3    31  GLU31       0.1684
     30  C         10.2260  -18.1750    8.9910 C.2    31  GLU31       0.2434
     31  O         10.1610  -17.4650    7.9970 O.2    31  GLU31      -0.2733
     32  CB        11.5040  -17.4720   11.0320 C.3    31  GLU31       0.0402
     33  CG        12.7760  -17.5460   11.8510 C.3    31  GLU31       0.1161
     34  CD        12.7630  -16.5990   13.0350 C.2    31  GLU31       0.3649
     35  OE1       11.8930  -15.7010   13.0710 O.co2  31  GLU31      -0.2457
     36  OE2       13.6230  -16.7570   13.9270 O.co2  31  GLU31      -0.2457
     37  N          9.1680  -18.8550    9.4580 N.am   32  PRO32      -0.2718
     38  CA         7.8950  -18.7190    8.7460 C.3    32  PRO32       0.1535
     39  C          7.4210  -17.2720    8.6360 C.2    32  PRO32       0.2598
     40  O          7.5960  -16.4680    9.5600 O.2    32  PRO32      -0.2715
     41  CB         6.9200  -19.5330    9.6110 C.3    32  PRO32       0.0310
     42  CG         7.7810  -20.5300   10.3090 C.3    32  PRO32       0.0237
     43  CD         9.0830  -19.8140   10.5750 C.3    32  PRO32       0.0939
     44  N          6.8170  -16.9500    7.5020 N.am   33  VAL33      -0.1964
     45  CA         6.1020  -15.6900    7.3670 C.3    33  VAL33       0.1712
     46  C          5.1460  -15.5450    8.5440 C.2    33  VAL33       0.2458
     47  O          4.3940  -16.4710    8.8400 O.2    33  VAL33      -0.2730
     48  CB         5.3340  -15.6310    6.0430 C.3    33  VAL33       0.0289
     49  CG1        4.4270  -14.4190    5.9920 C.3    33  VAL33       0.0023
     50  CG2        6.3120  -15.6250    4.8740 C.3    33  VAL33       0.0023
     51  N          5.2040  -14.4070    9.2460 N.am   34  PRO34      -0.2727
     52  CA         4.3720  -14.2310   10.4400 C.3    34  PRO34       0.1402
     53  C          2.9080  -14.0150   10.0610 C.2    34  PRO34       0.2269
     54  O          2.5300  -12.9140    9.6620 O.2    34  PRO34      -0.2865
     55  CB         4.9790  -12.9920   11.1100 C.3    34  PRO34       0.0296
     56  CG         5.5900  -12.2220    9.9800 C.3    34  PRO34       0.0237
     57  CD         6.1040  -13.2580    9.0230 C.3    34  PRO34       0.0939
     58  N          0.6460  -11.0670   10.9950 N.3    37  GLU37      -0.1231
     59  CA         0.7790   -9.7960   10.2880 C.3    37  GLU37       0.1699
     60  C          0.0980   -9.8110    8.9260 C.2    37  GLU37       0.2592
     61  O         -0.2680   -8.7610    8.3920 O.2    37  GLU37      -0.2718
     62  CB         2.2540   -9.4420   10.1140 C.3    37  GLU37       0.0402
     63  CG         3.0380   -9.4470   11.4110 C.3    37  GLU37       0.1161
     64  CD         4.4900   -9.0670   11.2120 C.2    37  GLU37       0.3649
     65  OE1        4.8480   -8.6580   10.0870 O.co2  37  GLU37      -0.2457
     66  OE2        5.2750   -9.1780   12.1800 O.co2  37  GLU37      -0.2457
     67  N         -0.0600  -10.9990    8.3510 N.am   38  VAL38      -0.1980
     68  CA        -0.6620  -11.1040    7.0250 C.3    38  VAL38       0.1595
     69  C         -1.7100  -12.2100    6.9930 C.2    38  VAL38       0.2287
     70  O         -1.4540  -13.3060    6.4970 O.2    38  VAL38      -0.2864
     71  CB         0.4070  -11.3480    5.9310 C.3    38  VAL38       0.0276
     72  CG1        1.0650  -10.0310    5.5390 C.3    38  VAL38       0.0022
     73  CG2        1.4580  -12.3450    6.4040 C.3    38  VAL38       0.0022
     74  N         -2.2920  -14.1310    3.8350 N.3    41  TYR41      -0.1241
     75  CA        -1.1920  -14.8810    3.2200 C.3    41  TYR41       0.1605
     76  C         -1.6530  -16.2530    2.7300 C.2    41  TYR41       0.2264
     77  O         -1.3510  -16.6550    1.5970 O.2    41  TYR41      -0.2867
     78  CB        -0.0220  -15.0300    4.2050 C.3    41  TYR41       0.0534
     79  CG         1.2460  -15.5900    3.5860 C.ar   41  TYR41      -0.0201
     80  CD1        2.0340  -14.8070    2.7420 C.ar   41  TYR41      -0.0009
     81  CD2        1.6540  -16.8960    3.8320 C.ar   41  TYR41      -0.0009
     82  CE1        3.1980  -15.3080    2.1680 C.ar   41  TYR41       0.0417
     83  CE2        2.8200  -17.4050    3.2710 C.ar   41  TYR41       0.0417
     84  CZ         3.5740  -16.6060    2.4320 C.ar   41  TYR41       0.1957
     85  OH         4.7250  -17.1130    1.8730 O.3    41  TYR41      -0.2866
     86  N          7.2310  -16.4140   -2.3730 N.3    80  CYS80      -0.1235
     87  CA         7.6150  -15.0250   -2.2200 C.3    80  CYS80       0.1677
     88  C          7.3690  -14.2200   -3.4920 C.2    80  CYS80       0.2270
     89  O          6.8830  -13.0910   -3.4350 O.2    80  CYS80      -0.2867
     90  CB         9.0790  -14.9430   -1.8120 C.3    80  CYS80       0.0956
     91  SG         9.6340  -13.2800   -1.3360 S.3    80  CYS80      -0.0801
     92  N          3.3990  -13.8700   -3.6000 N.3    83  TYR83      -0.1227
     93  CA         2.7190  -13.0110   -2.6510 C.3    83  TYR83       0.1736
     94  C          3.0630  -11.5360   -2.8110 C.2    83  TYR83       0.2595
     95  O          2.2030  -10.6810   -2.6480 O.2    83  TYR83      -0.2718
     96  CB         3.0210  -13.4580   -1.2190 C.3    83  TYR83       0.0548
     97  CG         2.2130  -12.6600   -0.2320 C.ar   83  TYR83      -0.0200
     98  CD1        0.8550  -12.8920   -0.0810 C.ar   83  TYR83      -0.0009
     99  CD2        2.7890  -11.6270    0.4910 C.ar   83  TYR83      -0.0009
    100  CE1        0.0940  -12.1460    0.7860 C.ar   83  TYR83       0.0417
    101  CE2        2.0300  -10.8720    1.3750 C.ar   83  TYR83       0.0417
    102  CZ         0.6840  -11.1430    1.5130 C.ar   83  TYR83       0.1957
    103  OH        -0.0980  -10.3980    2.3740 O.3    83  TYR83      -0.2866
    104  N          4.3240  -11.2440   -3.1100 N.am   84  ASN84      -0.1974
    105  CA         4.8210   -9.8710   -3.1040 C.3    84  ASN84       0.1688
    106  C          4.8190   -9.2210   -4.4730 C.2    84  ASN84       0.2292
    107  O          5.0840   -9.8760   -5.4830 O.2    84  ASN84      -0.2864
    108  CB         6.2330   -9.8510   -2.5110 C.3    84  ASN84       0.1181
    109  CG         6.2510  -10.3420   -1.0910 C.2    84  ASN84       0.2629
    110  OD1        5.8210   -9.6400   -0.1790 O.2    84  ASN84      -0.2716
    111  ND2        6.7160  -11.5640   -0.8880 N.am   84  ASN84      -0.0877
    112  N         11.1830   -7.5350   -1.2420 N.3    90  PHE90      -0.1241
    113  CA        10.9090   -8.9500   -0.9950 C.3    90  PHE90       0.1605
    114  C         10.8500   -9.7670   -2.2890 C.2    90  PHE90       0.2264
    115  O         11.4320  -10.8560   -2.3700 O.2    90  PHE90      -0.2867
    116  CB         9.5920   -9.1280   -0.2200 C.3    90  PHE90       0.0534
    117  CG         9.7050   -8.8910    1.2730 C.ar   90  PHE90      -0.0203
    118  CD1       10.8490   -8.3520    1.8460 C.ar   90  PHE90      -0.0042
    119  CD2        8.6640   -9.2580    2.1150 C.ar   90  PHE90      -0.0042
    120  CE1       10.9290   -8.1490    3.2250 C.ar   90  PHE90      -0.0003
    121  CE2        8.7480   -9.0620    3.4950 C.ar   90  PHE90      -0.0003
    122  CZ         9.8840   -8.5130    4.0410 C.ar   90  PHE90      -0.0000
@<TRIPOS>BOND
     1   107   106    2
     2   106   105    1
     3    92    93    1
     4    88    89    2
     5    88    87    1
     6   104   105    1
     7   104    94   am
     8   105   108    1
     9    94    93    1
    10    94    95    2
    11    93    96    1
    12   108   109    1
    13    86    87    1
    14   115   114    2
    15   114   113    1
    16    87    90    1
    17    90    91    1
    18   112   113    1
    19    96    97    1
    20   109   111   am
    21   109   110    2
    22   113   116    1
    23    97    98   ar
    24    97    99   ar
    25   116   117    1
    26    27    26   ar
    27    27    25   ar
    28    98   100   ar
    29    26    24   ar
    30    99   101   ar
    31    25    23   ar
    32   100   102   ar
    33   117   118   ar
    34   117   119   ar
    35   101   102   ar
    36    24    22   ar
    37   102   103    1
    38    77    76    2
    39    23    22   ar
    40    16    14    1
    41   118   120   ar
    42    85    84    1
    43    22    21    1
    44   119   121   ar
    45    82    84   ar
    46    82    80   ar
    47    84    83   ar
    48    76    75    1
    49    80    79   ar
    50    14    13    1
    51    75    74    1
    52    75    78    1
    53   120   122   ar
    54    21    18    1
    55    83    81   ar
    56   121   122   ar
    57    79    81   ar
    58    79    78    1
    59    13    15    1
    60    13    10    1
    61    18    17    1
    62    18    19    1
    63    17    11   am
    64    50    48    1
    65    11    12    2
    66    11    10    1
    67    10     9    1
    68     9     3   am
    69    72    71    1
    70    20    19    2
    71     1     2    1
    72    71    73    1
    73    71    68    1
    74    49    48    1
    75    48    45    1
    76    70    69    2
    77     3     2    1
    78     3     4    2
    79     2     5    1
    80    69    68    1
    81    68    67    1
    82    45    44    1
    83    45    46    1
    84    44    39   am
    85     7     6    2
    86    31    30    2
    87     5     6    1
    88     6     8   am
    89    67    60   am
    90    61    60    2
    91    46    47    2
    92    46    51   am
    93    39    38    1
    94    39    40    2
    95    38    37    1
    96    38    41    1
    97    28    29    1
    98    60    59    1
    99    30    37   am
   100    30    29    1
   101    57    51    1
   102    57    56    1
   103    51    52    1
   104    37    43    1
   105    41    42    1
   106    54    53    2
   107    29    32    1
   108    56    55    1
   109    53    52    1
   110    65    64   ar
   111    62    59    1
   112    62    63    1
   113    59    58    1
   114    42    43    1
   115    52    55    1
   116    32    33    1
   117    64    63    1
   118    64    66   ar
   119    33    34    1
   120    34    35   ar
   121    34    36   ar
