@<TRIPOS>MOLECULE
tmp/5d7yC00.pdb
 96 97 0 0 0
SMALL
GASTEIGER

@<TRIPOS>ATOM
      1  N        179.9730  -10.3290  242.5340 N.3   120  VAL120     -0.1231
      2  CA       181.1440  -10.9420  241.9290 C.3   120  VAL120      0.1692
      3  C        182.1410   -9.8670  241.5100 C.2   120  VAL120      0.2592
      4  O        183.3380   -9.9820  241.7770 O.2   120  VAL120     -0.2718
      5  CB       180.7590  -11.7800  240.6980 C.3   120  VAL120      0.0266
      6  CG1      182.0010  -12.2270  239.9490 C.3   120  VAL120      0.0020
      7  CG2      179.9160  -12.9760  241.1120 C.3   120  VAL120      0.0020
      8  N        181.6340   -8.8180  240.8650 N.am  121  SER121     -0.1952
      9  CA       182.4790   -7.7500  240.3320 C.3   121  SER121      0.1924
     10  C        183.3140   -7.0720  241.4190 C.2   121  SER121      0.2314
     11  O        184.4770   -6.7420  241.1920 O.2   121  SER121     -0.2863
     12  CB       181.6420   -6.7160  239.5750 C.3   121  SER121      0.2116
     13  OG       182.4350   -6.0130  238.6340 O.3   121  SER121     -0.2180
     14  N        185.9870  -10.0330  243.9500 N.3   124  VAL124     -0.1231
     15  CA       187.2690  -10.4130  243.3700 C.3   124  VAL124      0.1692
     16  C        188.1680   -9.1950  243.1180 C.2   124  VAL124      0.2592
     17  O        189.3910   -9.3270  243.0390 O.2   124  VAL124     -0.2718
     18  CB       187.0800  -11.2210  242.0670 C.3   124  VAL124      0.0266
     19  CG1      186.5700  -10.3280  240.9470 C.3   124  VAL124      0.0020
     20  CG2      188.3750  -11.9160  241.6710 C.3   124  VAL124      0.0020
     21  N        187.5670   -8.0120  243.0000 N.am  125  TRP125     -0.1976
     22  CA       188.3470   -6.7840  242.8660 C.3   125  TRP125      0.1640
     23  C        189.2060   -6.5830  244.1030 C.2   125  TRP125      0.2290
     24  O        190.3720   -6.1950  244.0120 O.2   125  TRP125     -0.2864
     25  CB       187.4490   -5.5600  242.6760 C.3   125  TRP125      0.0576
     26  CG       188.2140   -4.2650  242.7680 C.ar  125  TRP125      0.0006
     27  CD1      188.8600   -3.6220  241.7520 C.ar  125  TRP125      0.0946
     28  CD2      188.4170   -3.4650  243.9410 C.ar  125  TRP125      0.0152
     29  NE1      189.4500   -2.4720  242.2180 N.ar  125  TRP125     -0.2442
     30  CE2      189.1940   -2.3530  243.5590 C.ar  125  TRP125      0.0810
     31  CE3      188.0180   -3.5810  245.2770 C.ar  125  TRP125      0.0012
     32  CZ2      189.5810   -1.3660  244.4620 C.ar  125  TRP125      0.0191
     33  CZ3      188.4020   -2.5990  246.1710 C.ar  125  TRP125      0.0001
     34  CH2      189.1740   -1.5050  245.7590 C.ar  125  TRP125      0.0015
     35  N        190.1580   -8.9130  245.8790 N.3   127  ARG127     -0.1231
     36  CA       191.0870  -10.0390  245.8550 C.3   127  ARG127      0.1694
     37  C        192.0870   -9.9000  244.7170 C.2   127  ARG127      0.2593
     38  O        192.5430  -10.8960  244.1550 O.2   127  ARG127     -0.2718
     39  CB       190.3310  -11.3610  245.7130 C.3   127  ARG127      0.0321
     40  CG       189.7050  -11.8560  247.0000 C.3   127  ARG127      0.0489
     41  CD       188.9150  -13.1330  246.7760 C.3   127  ARG127      0.2205
     42  NE       188.3930  -13.6650  248.0290 N.pl3 127  ARG127     -0.0865
     43  CZ       187.3030  -13.2080  248.6380 C.cat 127  ARG127      0.5346
     44  NH1      186.6160  -12.2050  248.1070 N.pl3 127  ARG127      0.1354
     45  NH2      186.9010  -13.7530  249.7770 N.pl3 127  ARG127      0.1354
     46  N        192.4250   -8.6610  244.3810 N.am  128  THR128     -0.1940
     47  CA       193.3430   -8.3900  243.2830 C.3   128  THR128      0.2013
     48  C        194.5240   -7.5410  243.7360 C.2   128  THR128      0.2484
     49  O        194.3280   -6.4870  244.3440 O.2   128  THR128     -0.2729
     50  CB       192.6290   -7.6690  242.1320 C.3   128  THR128      0.1807
     51  OG1      191.7370   -8.5810  241.4790 O.3   128  THR128     -0.2208
     52  CG2      193.6390   -7.1410  241.1270 C.3   128  THR128      0.0379
     53  N        195.7530   -8.0060  243.4450 N.am  129  PRO129     -0.2726
     54  CA       196.9940   -7.2750  243.7280 C.3   129  PRO129      0.1402
     55  C        196.9220   -5.8310  243.2360 C.2   129  PRO129      0.2269
     56  O        196.6610   -5.5990  242.0550 O.2   129  PRO129     -0.2865
     57  CB       198.0410   -8.0650  242.9430 C.3   129  PRO129      0.0296
     58  CG       197.5190   -9.4580  242.9630 C.3   129  PRO129      0.0237
     59  CD       196.0230   -9.3260  242.8470 C.3   129  PRO129      0.0939
     60  N        197.9530   -3.7740  239.8460 N.3   132  TYR132     -0.1227
     61  CA       197.2900   -4.0250  238.5730 C.3   132  TYR132      0.1736
     62  C        195.7690   -4.0600  238.7060 C.2   132  TYR132      0.2595
     63  O        195.1370   -5.0610  238.3740 O.2   132  TYR132     -0.2718
     64  CB       197.7800   -5.3460  237.9760 C.3   132  TYR132      0.0548
     65  CG       199.2450   -5.6270  238.2260 C.ar  132  TYR132     -0.0200
     66  CD1      200.2290   -5.0480  237.4350 C.ar  132  TYR132     -0.0009
     67  CD2      199.6420   -6.4750  239.2520 C.ar  132  TYR132     -0.0009
     68  CE1      201.5690   -5.3030  237.6610 C.ar  132  TYR132      0.0417
     69  CE2      200.9790   -6.7360  239.4840 C.ar  132  TYR132      0.0417
     70  CZ       201.9390   -6.1480  238.6860 C.ar  132  TYR132      0.1957
     71  OH       203.2720   -6.4060  238.9130 O.3   132  TYR132     -0.2866
     72  N        195.1850   -2.9670  239.1860 N.am  133  ARG133     -0.1966
     73  CA       193.7340   -2.8790  239.3160 C.3   133  ARG133      0.1714
     74  C        193.2710   -1.4290  239.1990 C.2   133  ARG133      0.2458
     75  O        194.0840   -0.5120  239.3250 O.2   133  ARG133     -0.2730
     76  CB       193.2750   -3.4860  240.6460 C.3   133  ARG133      0.0347
     77  CG       193.5090   -2.6130  241.8670 C.3   133  ARG133      0.0492
     78  CD       192.7180   -3.1570  243.0450 C.3   133  ARG133      0.2205
     79  NE       193.1280   -2.5800  244.3200 N.pl3 133  ARG133     -0.0865
     80  CZ       193.0370   -3.2180  245.4820 C.cat 133  ARG133      0.5346
     81  NH1      192.5580   -4.4540  245.5250 N.pl3 133  ARG133      0.1354
     82  NH2      193.4320   -2.6260  246.6010 N.pl3 133  ARG133      0.1354
     83  N        191.9680   -1.2170  238.9300 N.am  134  PRO134     -0.2727
     84  CA       191.4170    0.1390  238.9510 C.3   134  PRO134      0.1402
     85  C        191.7300    0.8090  240.2800 C.2   134  PRO134      0.2269
     86  O        191.6560    0.1470  241.3170 O.2   134  PRO134     -0.2865
     87  CB       189.9120   -0.1000  238.8230 C.3   134  PRO134      0.0296
     88  CG       189.8080   -1.3580  238.0510 C.3   134  PRO134      0.0237
     89  CD       190.9660   -2.2050  238.4960 C.3   134  PRO134      0.0939
     90  N        185.2170   -0.8290  241.9590 N.3   138  PRO138     -0.2116
     91  CA       184.1590   -0.7840  240.9490 C.3   138  PRO138      0.1372
     92  C        182.8550   -0.5140  241.6690 C.2   138  PRO138      0.2244
     93  O        182.6350   -1.0690  242.7450 O.2   138  PRO138     -0.2868
     94  CB       184.1560   -2.2030  240.3840 C.3   138  PRO138      0.0268
     95  CG       184.6550   -3.0500  241.4990 C.3   138  PRO138      0.0207
     96  CD       185.6640   -2.2070  242.2280 C.3   138  PRO138      0.0892
@<TRIPOS>BOND
     1    66    68   ar
     2    66    65   ar
     3    68    70   ar
     4    64    65    1
     5    64    61    1
     6    88    89    1
     7    88    87    1
     8    65    67   ar
     9    63    62    2
    10    89    83    1
    11    61    62    1
    12    61    60    1
    13    13    12    1
    14    70    71    1
    15    70    69   ar
    16    62    72   am
    17    87    84    1
    18    83    84    1
    19    83    74   am
    20    84    85    1
    21    72    73    1
    22    74    73    1
    23    74    75    2
    24    67    69   ar
    25    73    76    1
    26    12     9    1
    27     6     5    1
    28    85    86    2
    29     9     8    1
    30     9    10    1
    31    94    91    1
    32    94    95    1
    33    76    77    1
    34     5     7    1
    35     5     2    1
    36     8     3   am
    37    19    18    1
    38    91    92    1
    39    91    90    1
    40    52    50    1
    41    11    10    2
    42    51    50    1
    43    95    96    1
    44     3     4    2
    45     3     2    1
    46    92    93    2
    47    20    18    1
    48    27    29   ar
    49    27    26   ar
    50    77    78    1
    51     2     1    1
    52    90    96    1
    53    56    55    2
    54    18    15    1
    55    50    47    1
    56    29    30   ar
    57    25    26    1
    58    25    22    1
    59    26    28   ar
    60    59    58    1
    61    59    53    1
    62    22    21    1
    63    22    23    1
    64    57    58    1
    65    57    54    1
    66    21    16   am
    67    17    16    2
    68    78    79    1
    69    16    15    1
    70    55    54    1
    71    47    48    1
    72    47    46    1
    73    15    14    1
    74    53    54    1
    75    53    48   am
    76    30    28   ar
    77    30    32   ar
    78    48    49    2
    79    28    31   ar
    80    24    23    2
    81    38    37    2
    82    79    80    2
    83    46    37   am
    84    32    34   ar
    85    37    36    1
    86    31    33   ar
    87    80    81    1
    88    80    82    1
    89    39    36    1
    90    39    40    1
    91    34    33   ar
    92    36    35    1
    93    41    40    1
    94    41    42    1
    95    42    43    2
    96    44    43    1
    97    43    45    1
