@<TRIPOS>MOLECULE
tmp/5d7yB00.pdb
 136 132 0 0 0
SMALL
GASTEIGER

@<TRIPOS>ATOM
      1  N        201.9280  -10.9280  240.4620 N.3    23  PHE23      -0.1241
      2  CA       200.8120  -10.5770  239.5940 C.3    23  PHE23       0.1605
      3  C        199.5430  -11.3440  239.9410 C.2    23  PHE23       0.2264
      4  O        198.5100  -10.7510  240.2490 O.2    23  PHE23      -0.2867
      5  CB       201.2170  -10.8580  238.1520 C.3    23  PHE23       0.0534
      6  CG       200.1790  -10.5040  237.1420 C.ar   23  PHE23      -0.0203
      7  CD1      199.4060  -11.4900  236.5550 C.ar   23  PHE23      -0.0042
      8  CD2      199.9940   -9.1880  236.7550 C.ar   23  PHE23      -0.0042
      9  CE1      198.4630  -11.1660  235.6130 C.ar   23  PHE23      -0.0003
     10  CE2      199.0490   -8.8590  235.8140 C.ar   23  PHE23      -0.0003
     11  CZ       198.2890   -9.8460  235.2400 C.ar   23  PHE23      -0.0000
     12  N        196.9290  -13.3900  242.0740 N.3    25  PRO25      -0.2116
     13  CA       196.5920  -13.2980  243.4990 C.3    25  PRO25       0.1372
     14  C        196.6990  -14.6500  244.2010 C.2    25  PRO25       0.2244
     15  O        196.8810  -15.6710  243.5350 O.2    25  PRO25      -0.2868
     16  CB       195.1490  -12.7890  243.4890 C.3    25  PRO25       0.0268
     17  CG       194.6000  -13.2130  242.1770 C.3    25  PRO25       0.0207
     18  CD       195.7410  -13.3330  241.2060 C.3    25  PRO25       0.0892
     19  N        192.6110  -16.9660  247.4600 N.3    29  ASP29      -0.1225
     20  CA       191.6850  -16.1110  246.7270 C.3    29  ASP29       0.1805
     21  C        191.2970  -16.7520  245.3980 C.2    29  ASP29       0.2597
     22  O        190.2160  -16.5000  244.8690 O.2    29  ASP29      -0.2718
     23  CB       192.2980  -14.7290  246.4890 C.3    29  ASP29       0.1424
     24  CG       192.5480  -13.9730  247.7780 C.2    29  ASP29       0.3668
     25  OD1      191.7210  -14.0880  248.7070 O.co2  29  ASP29      -0.2456
     26  OD2      193.5760  -13.2690  247.8630 O.co2  29  ASP29      -0.2456
     27  N        192.1840  -17.5880  244.8680 N.am   30  LEU30      -0.1979
     28  CA       191.9520  -18.2500  243.5890 C.3    30  LEU30       0.1596
     29  C        190.9320  -19.3720  243.7070 C.2    30  LEU30       0.2287
     30  O        190.2700  -19.7280  242.7340 O.2    30  LEU30      -0.2864
     31  CB       193.2640  -18.7930  243.0200 C.3    30  LEU30       0.0297
     32  CG       193.7930  -18.0330  241.8060 C.3    30  LEU30       0.0022
     33  CD1      192.9100  -18.2960  240.6090 C.3    30  LEU30       0.0001
     34  CD2      193.8270  -16.5580  242.1100 C.3    30  LEU30       0.0001
     35  N        187.4320  -17.6410  244.7650 N.3    33  THR33      -0.1218
     36  CA       186.7990  -17.0930  243.5740 C.3    33  THR33       0.1862
     37  C        186.1340  -18.1920  242.7610 C.2    33  THR33       0.2287
     38  O        185.0130  -18.0300  242.2810 O.2    33  THR33      -0.2866
     39  CB       187.8040  -16.3710  242.6690 C.3    33  THR33       0.1770
     40  OG1      188.7750  -15.6860  243.4690 O.3    33  THR33      -0.2211
     41  CG2      187.0770  -15.3730  241.7940 C.3    33  THR33       0.0375
     42  N        181.7530  -18.3630  242.1100 N.3    37  LEU37      -0.1245
     43  CA       181.0180  -18.1290  240.8680 C.3    37  LEU37       0.1561
     44  C        181.1690  -19.1950  239.7770 C.2    37  LEU37       0.2260
     45  O        180.9340  -18.9070  238.6040 O.2    37  LEU37      -0.2867
     46  CB       181.3340  -16.7380  240.2980 C.3    37  LEU37       0.0270
     47  CG       182.7880  -16.3390  240.0420 C.3    37  LEU37       0.0019
     48  CD1      182.8840  -15.5150  238.7710 C.3    37  LEU37       0.0001
     49  CD2      183.3340  -15.5490  241.2190 C.3    37  LEU37       0.0001
     50  N        194.5310  -19.2360  237.7130 N.3   102  TRP102     -0.1241
     51  CA       194.1070  -17.9280  237.2400 C.3   102  TRP102      0.1605
     52  C        193.6470  -17.9750  235.7860 C.2   102  TRP102      0.2264
     53  O        192.6180  -17.4000  235.4370 O.2   102  TRP102     -0.2867
     54  CB       195.2230  -16.8940  237.4040 C.3   102  TRP102      0.0550
     55  CG       195.0490  -15.7370  236.4890 C.ar  102  TRP102      0.0003
     56  CD1      194.3030  -14.6220  236.7140 C.ar  102  TRP102      0.0946
     57  CD2      195.6130  -15.5880  235.1820 C.ar  102  TRP102      0.0152
     58  NE1      194.3720  -13.7830  235.6300 N.ar  102  TRP102     -0.2442
     59  CE2      195.1710  -14.3550  234.6760 C.ar  102  TRP102      0.0810
     60  CE3      196.4570  -16.3750  234.3940 C.ar  102  TRP102      0.0012
     61  CZ2      195.5380  -13.8930  233.4160 C.ar  102  TRP102      0.0191
     62  CZ3      196.8160  -15.9160  233.1420 C.ar  102  TRP102      0.0001
     63  CH2      196.3610  -14.6850  232.6670 C.ar  102  TRP102      0.0015
     64  N        190.2190  -19.7370  235.0610 N.3   105  ILE105     -0.1231
     65  CA       189.1550  -18.9420  235.6660 C.3   105  ILE105      0.1692
     66  C        188.9610  -17.6120  234.9320 C.2   105  ILE105      0.2592
     67  O        187.8320  -17.1490  234.7580 O.2   105  ILE105     -0.2718
     68  CB       189.4030  -18.6950  237.1680 C.3   105  ILE105      0.0266
     69  CG1      189.3460  -20.0100  237.9410 C.3   105  ILE105      0.0019
     70  CG2      188.3600  -17.7600  237.7370 C.3   105  ILE105      0.0020
     71  CD1      189.4150  -19.8280  239.4410 C.3   105  ILE105      0.0001
     72  N        190.0610  -17.0120  234.4880 N.am  106  SER106     -0.1952
     73  CA       190.0040  -15.7500  233.7570 C.3   106  SER106      0.1924
     74  C        189.2330  -15.8970  232.4510 C.2   106  SER106      0.2314
     75  O        188.3430  -15.1010  232.1500 O.2   106  SER106     -0.2863
     76  CB       191.4130  -15.2420  233.4590 C.3   106  SER106      0.2116
     77  OG       192.2130  -15.2620  234.6260 O.3   106  SER106     -0.2180
     78  N        185.3610  -15.8750  232.4950 N.3   109  THR109     -0.1203
     79  CA       184.5850  -14.6660  232.7440 C.3   109  THR109      0.1994
     80  C        184.8670  -13.5740  231.7190 C.2   109  THR109      0.2617
     81  O        184.3220  -12.4750  231.8090 O.2   109  THR109     -0.2717
     82  CB       184.8520  -14.1050  234.1530 C.3   109  THR109      0.1784
     83  OG1      185.5570  -15.0770  234.9330 O.3   109  THR109     -0.2211
     84  CG2      183.5400  -13.7590  234.8450 C.3   109  THR109      0.0376
     85  N        185.7200  -13.8730  230.7460 N.am  110  PHE110     -0.1975
     86  CA       186.0900  -12.8770  229.7490 C.3   110  PHE110      0.1639
     87  C        186.2440  -13.4900  228.3650 C.2   110  PHE110      0.2290
     88  O        186.3090  -12.7780  227.3650 O.2   110  PHE110     -0.2864
     89  CB       187.3820  -12.1730  230.1590 C.3   110  PHE110      0.0560
     90  CG       187.2700  -11.4090  231.4460 C.ar  110  PHE110     -0.0200
     91  CD1      187.5610  -12.0180  232.6590 C.ar  110  PHE110     -0.0042
     92  CD2      186.8770  -10.0810  231.4450 C.ar  110  PHE110     -0.0042
     93  CE1      187.4630  -11.3150  233.8450 C.ar  110  PHE110     -0.0003
     94  CE2      186.7780   -9.3710  232.6280 C.ar  110  PHE110     -0.0003
     95  CZ       187.0700   -9.9900  233.8300 C.ar  110  PHE110     -0.0000
     96  N        194.8390   -9.8910  226.0170 N.3   118  TYR118     -0.1241
     97  CA       195.4480   -9.2040  227.1510 C.3   118  TYR118      0.1605
     98  C        196.9060   -9.6180  227.2930 C.2   118  TYR118      0.2264
     99  O        197.8000   -8.7700  227.2900 O.2   118  TYR118     -0.2867
    100  CB       194.6960   -9.5040  228.4520 C.3   118  TYR118      0.0534
    101  CG       195.1860   -8.7020  229.6460 C.ar  118  TYR118     -0.0201
    102  CD1      196.3810   -9.0200  230.2840 C.ar  118  TYR118     -0.0009
    103  CD2      194.4510   -7.6330  230.1380 C.ar  118  TYR118     -0.0009
    104  CE1      196.8280   -8.2970  231.3680 C.ar  118  TYR118      0.0417
    105  CE2      194.8930   -6.9020  231.2270 C.ar  118  TYR118      0.0417
    106  CZ       196.0830   -7.2400  231.8360 C.ar  118  TYR118      0.1957
    107  OH       196.5380   -6.5200  232.9150 O.3   118  TYR118     -0.2866
    108  N        194.5800   -2.9860  232.2630 N.3   139  ILE139     -0.1231
    109  CA       193.6870   -3.8250  233.0510 C.3   139  ILE139      0.1692
    110  C        192.6030   -4.4510  232.1800 C.2   139  ILE139      0.2592
    111  O        192.1760   -3.8690  231.1820 O.2   139  ILE139     -0.2718
    112  CB       193.0660   -3.0560  234.2340 C.3   139  ILE139      0.0266
    113  CG1      192.3830   -1.7760  233.7490 C.3   139  ILE139      0.0019
    114  CG2      194.1340   -2.7250  235.2660 C.3   139  ILE139      0.0020
    115  CD1      191.8180   -0.9260  234.8700 C.3   139  ILE139      0.0001
    116  N        192.1650   -5.6440  232.5670 N.am  140  LEU140     -0.1966
    117  CA       191.2720   -6.4410  231.7360 C.3   140  LEU140      0.1728
    118  C        189.7980   -6.1180  231.9380 C.2   140  LEU140      0.2617
    119  O        189.2190   -6.4430  232.9740 O.2   140  LEU140     -0.2715
    120  CB       191.4940   -7.9260  232.0040 C.3   140  LEU140      0.0311
    121  CG       190.6170   -8.8500  231.1620 C.3   140  LEU140      0.0022
    122  CD1      191.2910   -9.1910  229.8420 C.3   140  LEU140      0.0001
    123  CD2      190.2810  -10.0990  231.9330 C.3   140  LEU140      0.0001
    124  N        189.1900   -5.4930  230.9360 N.am  141  SER141     -0.1936
    125  CA       187.7590   -5.2220  230.9700 C.3   141  SER141      0.2055
    126  C        187.0140   -6.2240  230.0970 C.2   141  SER141      0.2643
    127  O        187.6210   -6.9230  229.2840 O.2   141  SER141     -0.2714
    128  CB       187.4640   -3.7950  230.5050 C.3   141  SER141      0.2130
    129  OG       186.0760   -3.5160  230.5690 O.3   141  SER141     -0.2179
    130  N        185.6980   -6.2900  230.2700 N.am  142  THR142     -0.1950
    131  CA       184.8670   -7.2000  229.4910 C.3   142  THR142      0.1897
    132  C        184.7760   -6.7240  228.0430 C.2   142  THR142      0.2313
    133  O        184.4700   -7.5060  227.1420 O.2   142  THR142     -0.2863
    134  CB       183.4490   -7.3160  230.0850 C.3   142  THR142      0.1794
    135  OG1      183.5170   -7.2320  231.5140 O.3   142  THR142     -0.2208
    136  CG2      182.8060   -8.6370  229.6870 C.3   142  THR142      0.0378
@<TRIPOS>BOND
     1    96    97    1
     2   133   132    2
     3    97    98    1
     4    97   100    1
     5    99    98    2
     6    88    87    2
     7   132   131    1
     8    87    86    1
     9   100   101    1
    10   127   126    2
    11   131   134    1
    12   131   130    1
    13   101   103   ar
    14   101   102   ar
    15   136   134    1
    16    86    89    1
    17    86    85    1
    18   122   121    1
    19   134   135    1
    20   126   130   am
    21   126   125    1
    22   103   105   ar
    23    89    90    1
    24   102   104   ar
    25   128   129    1
    26   128   125    1
    27    85    80   am
    28   124   125    1
    29   124   118   am
    30   121   123    1
    31   121   120    1
    32   111   110    2
    33   105   106   ar
    34   104   106   ar
    35    92    90   ar
    36    92    94   ar
    37    90    91   ar
    38    80    81    2
    39    80    79    1
    40   117   118    1
    41   117   120    1
    42   117   116    1
    43   106   107    1
    44   118   119    2
    45    75    74    2
    46   110   116   am
    47   110   109    1
    48   108   109    1
    49    74    73    1
    50    78    79    1
    51    94    95   ar
    52    91    93   ar
    53    63    62   ar
    54    63    61   ar
    55    79    82    1
    56   109   112    1
    57    62    60   ar
    58    61    59   ar
    59    76    73    1
    60    76    77    1
    61   113   112    1
    62   113   115    1
    63    73    72    1
    64    95    93   ar
    65    82    84    1
    66    82    83    1
    67   112   114    1
    68    60    57   ar
    69    72    66   am
    70    59    57   ar
    71    59    58   ar
    72    67    66    2
    73    66    65    1
    74    64    65    1
    75    57    55   ar
    76    11     9   ar
    77    11    10   ar
    78    53    52    2
    79     9     7   ar
    80    58    56   ar
    81    65    68    1
    82    52    51    1
    83    10     8   ar
    84    55    56   ar
    85    55    54    1
    86     7     6   ar
    87     8     6   ar
    88     6     5    1
    89    68    70    1
    90    68    69    1
    91    51    54    1
    92    51    50    1
    93    69    71    1
    94     5     2    1
    95    45    44    2
    96    48    47    1
    97     2     3    1
    98     2     1    1
    99    44    43    1
   100     3     4    2
   101    47    46    1
   102    47    49    1
   103    46    43    1
   104    33    32    1
   105    43    42    1
   106    18    12    1
   107    18    17    1
   108    41    39    1
   109    32    34    1
   110    32    31    1
   111    12    13    1
   112    17    16    1
   113    38    37    2
   114    39    40    1
   115    39    36    1
   116    30    29    2
   117    37    36    1
   118    31    28    1
   119    16    13    1
   120    13    14    1
   121    15    14    2
   122    36    35    1
   123    28    29    1
   124    28    27    1
   125    27    21   am
   126    22    21    2
   127    21    20    1
   128    23    20    1
   129    23    24    1
   130    20    19    1
   131    24    26   ar
   132    24    25   ar
