@<TRIPOS>MOLECULE
tmp/5d7zA00.pdb
 159 148 0 0 0
SMALL
GASTEIGER

@<TRIPOS>ATOM
      1  N         89.5130  -16.3290   -6.3910 N.3    81  GLY81      -0.1210
      2  CA        88.8130  -16.3210   -7.6450 C.3    81  GLY81       0.1956
      3  C         87.5810  -17.1710   -7.7780 C.2    81  GLY81       0.2611
      4  O         86.4440  -16.6500   -7.6760 O.2    81  GLY81      -0.2717
      5  N         87.7730  -18.4320   -8.1190 N.am   82  HIS82      -0.1975
      6  CA        86.6040  -19.2780   -8.3220 C.3    82  HIS82       0.1656
      7  C         87.0520  -20.7220   -8.3580 C.2    82  HIS82       0.2291
      8  O         88.2490  -21.0320   -8.3970 O.2    82  HIS82      -0.2864
      9  CB        85.9030  -18.9590   -9.6490 C.3    82  HIS82       0.0771
     10  CG        86.7810  -19.1680  -10.8310 C.ar   82  HIS82       0.0820
     11  ND1       87.2070  -18.1320  -11.6240 N.ar   82  HIS82      -0.2267
     12  CD2       87.2500  -20.2940  -11.3980 C.ar   82  HIS82       0.1154
     13  CE1       87.9490  -18.6140  -12.5960 C.ar   82  HIS82       0.1986
     14  NE2       87.9830  -19.9190  -12.4890 N.ar   82  HIS82      -0.2212
     15  N         75.1090  -15.8090  -12.2060 N.3   105  THR105     -0.1203
     16  CA        75.5510  -14.4380  -12.2320 C.3   105  THR105      0.1994
     17  C         76.0350  -14.0050  -13.6100 C.2   105  THR105      0.2617
     18  O         76.1190  -12.7960  -13.8860 O.2   105  THR105     -0.2717
     19  CB        76.6500  -14.1340  -11.2060 C.3   105  THR105      0.1784
     20  OG1       77.8130  -14.8630  -11.5150 O.3   105  THR105     -0.2211
     21  CG2       76.2580  -14.5640   -9.8650 C.3   105  THR105      0.0376
     22  N         76.4110  -14.9700  -14.4450 N.am  106  ARG106     -0.1979
     23  CA        76.8790  -14.6970  -15.8150 C.3   106  ARG106      0.1597
     24  C         76.2530  -15.7450  -16.6910 C.2   106  ARG106      0.2287
     25  O         76.4870  -16.9590  -16.5310 O.2   106  ARG106     -0.2864
     26  CB        78.4310  -14.6430  -15.8490 C.3   106  ARG106      0.0334
     27  CG        79.0330  -14.0570  -17.0980 C.3   106  ARG106      0.0492
     28  CD        79.0040  -14.9990  -18.2280 C.3   106  ARG106      0.2205
     29  NE        79.9580  -14.6480  -19.3010 N.pl3 106  ARG106     -0.0865
     30  CZ        79.9560  -15.2130  -20.4930 C.cat 106  ARG106      0.5346
     31  NH1       79.1130  -16.1540  -20.7620 N.pl3 106  ARG106      0.1354
     32  NH2       80.8640  -14.8860  -21.4230 N.pl3 106  ARG106      0.1354
     33  N         82.7770  -16.7080  -24.4140 N.3   111  VAL111     -0.1231
     34  CA        83.6340  -15.7170  -23.8110 C.3   111  VAL111      0.1692
     35  C         84.1180  -14.6680  -24.8620 C.2   111  VAL111      0.2591
     36  O         83.9030  -14.8670  -26.0590 O.2   111  VAL111     -0.2718
     37  CB        84.7990  -16.4890  -23.1630 C.3   111  VAL111      0.0266
     38  CG1       85.7700  -17.0000  -24.2520 C.3   111  VAL111      0.0020
     39  CG2       85.4850  -15.6550  -22.1150 C.3   111  VAL111      0.0020
     40  N         84.6710  -13.5380  -24.4050 N.am  112  LYS112     -0.1980
     41  CA        85.7200  -12.7240  -25.1400 C.3   112  LYS112      0.1596
     42  C         86.2240  -13.2340  -26.5090 C.2   112  LYS112      0.2287
     43  O         87.3070  -13.8630  -26.5810 O.2   112  LYS112     -0.2864
     44  CB        86.9670  -12.6580  -24.2330 C.3   112  LYS112      0.0298
     45  CG        86.6650  -11.9390  -22.9470 C.3   112  LYS112      0.0038
     46  CD        87.9400  -11.5290  -22.2850 C.3   112  LYS112      0.0206
     47  CE        87.6590  -11.4200  -20.8240 C.3   112  LYS112      0.1093
     48  NZ        87.3220  -10.0400  -20.4910 N.3   112  LYS112     -0.1314
     49  N         80.9490  -20.4470  -21.5060 N.3   118  ILE118     -0.1245
     50  CA        81.0590  -20.4000  -20.0140 C.3   118  ILE118      0.1561
     51  C         79.8210  -19.8010  -19.4130 C.2   118  ILE118      0.2260
     52  O         78.9920  -19.2160  -20.1010 O.2   118  ILE118     -0.2867
     53  CB        82.2780  -19.6060  -19.5800 C.3   118  ILE118      0.0252
     54  CG1       82.1270  -18.1400  -19.9490 C.3   118  ILE118      0.0019
     55  CG2       83.5630  -20.1450  -20.1760 C.3   118  ILE118      0.0019
     56  CD1       83.1010  -17.2840  -19.2110 C.3   118  ILE118      0.0001
     57  N         78.7560  -18.3640  -15.0410 N.3   120  PHE120     -0.1241
     58  CA        79.1450  -18.3250  -13.6180 C.3   120  PHE120      0.1605
     59  C         77.9240  -18.5030  -12.7370 C.2   120  PHE120      0.2264
     60  O         76.8640  -17.8710  -12.9860 O.2   120  PHE120     -0.2867
     61  CB        79.8340  -17.0310  -13.2260 C.3   120  PHE120      0.0534
     62  CG        81.2990  -17.0050  -13.5300 C.ar  120  PHE120     -0.0203
     63  CD1       81.7450  -16.6100  -14.7510 C.ar  120  PHE120     -0.0042
     64  CD2       82.2060  -17.3630  -12.5650 C.ar  120  PHE120     -0.0042
     65  CE1       83.1200  -16.5880  -15.0410 C.ar  120  PHE120     -0.0003
     66  CE2       83.5800  -17.2940  -12.8170 C.ar  120  PHE120     -0.0003
     67  CZ        84.0340  -16.9050  -14.0660 C.ar  120  PHE120     -0.0000
     68  N         82.2560  -18.2220   -6.0860 N.3   128  MET128     -0.1245
     69  CA        81.9420  -18.2660   -7.5270 C.3   128  MET128      0.1570
     70  C         82.4190  -19.5650   -8.1440 C.2   128  MET128      0.2261
     71  O         83.5250  -20.0830   -7.8100 O.2   128  MET128     -0.2867
     72  CB        82.6690  -17.1420   -8.2220 C.3   128  MET128      0.0387
     73  CG        82.2570  -15.7590   -7.7140 C.3   128  MET128      0.0595
     74  SD        80.4930  -15.4890   -7.8200 S.3   128  MET128     -0.1393
     75  CE        80.1450  -15.8160   -9.5350 C.3   128  MET128      0.0692
     76  N         82.8470  -21.0700  -11.9390 N.3   130  GLU130     -0.1245
     77  CA        82.8050  -20.9340  -13.3840 C.3   130  GLU130      0.1567
     78  C         82.3560  -22.2750  -13.9850 C.2   130  GLU130      0.2260
     79  O         82.8490  -23.3450  -13.5790 O.2   130  GLU130     -0.2867
     80  CB        84.1960  -20.6250  -13.9050 C.3   130  GLU130      0.0388
     81  CG        84.1650  -20.2630  -15.4120 C.3   130  GLU130      0.1160
     82  CD        85.4480  -19.9120  -16.0570 C.2   130  GLU130      0.3649
     83  OE1       86.5030  -20.1240  -15.4080 O.co2 130  GLU130     -0.2457
     84  OE2       85.3770  -19.5500  -17.2930 O.co2 130  GLU130     -0.2457
     85  N         91.0110  -21.0470   -8.9880 N.3   145  MET145     -0.1245
     86  CA        91.6260  -19.8200   -9.4910 C.3   145  MET145      0.1570
     87  C         91.8620  -18.8650   -8.3020 C.2   145  MET145      0.2261
     88  O         90.9620  -18.5920   -7.5190 O.2   145  MET145     -0.2867
     89  CB        90.7560  -19.1110  -10.5300 C.3   145  MET145      0.0387
     90  CG        91.4630  -17.9580  -11.2280 C.3   145  MET145      0.0595
     91  SD        91.5560  -16.4170  -10.3500 S.3   145  MET145     -0.1393
     92  CE        90.1680  -15.6110  -10.9480 C.3   145  MET145      0.0692
     93  N         94.0910  -15.1330   -7.2810 N.3   147  ARG147     -0.1245
     94  CA        94.8210  -13.9640   -7.7520 C.3   147  ARG147      0.1563
     95  C         96.1560  -13.8030   -7.0680 C.2   147  ARG147      0.2260
     96  O         96.3220  -14.0330   -5.8360 O.2   147  ARG147     -0.2867
     97  CB        93.9550  -12.7520   -7.5840 C.3   147  ARG147      0.0307
     98  CG        92.5940  -12.8130   -8.2400 C.3   147  ARG147      0.0489
     99  CD        91.7740  -11.5550   -8.0710 C.3   147  ARG147      0.2205
    100  NE        90.5520  -11.7350   -8.8420 N.pl3 147  ARG147     -0.0865
    101  CZ        89.4330  -12.2170   -8.3670 C.cat 147  ARG147      0.5346
    102  NH1       89.2970  -12.5120   -7.0840 N.pl3 147  ARG147      0.1354
    103  NH2       88.5110  -12.5760   -9.1950 N.pl3 147  ARG147      0.1354
    104  N         92.7150   -6.3670  -21.9290 N.3   175  TYR175     -0.1241
    105  CA        91.9340   -6.3340  -20.6970 C.3   175  TYR175      0.1605
    106  C         92.8060   -6.3210  -19.4490 C.2   175  TYR175      0.2264
    107  O         92.3080   -6.5650  -18.3710 O.2   175  TYR175     -0.2867
    108  CB        91.0240   -7.5610  -20.6650 C.3   175  TYR175      0.0534
    109  CG        89.9760   -7.4300  -21.7150 C.ar  175  TYR175     -0.0201
    110  CD1       88.8560   -6.5830  -21.5150 C.ar  175  TYR175     -0.0009
    111  CD2       90.1110   -8.0930  -22.9350 C.ar  175  TYR175     -0.0009
    112  CE1       87.8960   -6.4480  -22.4980 C.ar  175  TYR175      0.0417
    113  CE2       89.1610   -7.9600  -23.9370 C.ar  175  TYR175      0.0417
    114  CZ        88.0610   -7.1410  -23.7120 C.ar  175  TYR175      0.1957
    115  OH        87.1390   -7.0170  -24.7030 O.3   175  TYR175     -0.2866
    116  N         95.2810   -8.2360  -18.0490 N.3   177  TYR177     -0.1241
    117  CA        95.4930   -9.4230  -17.1850 C.3   177  TYR177      0.1605
    118  C         96.2890  -10.4710  -17.8850 C.2   177  TYR177      0.2264
    119  O         96.3880  -10.5060  -19.1120 O.2   177  TYR177     -0.2867
    120  CB        94.1240   -9.9650  -16.6810 C.3   177  TYR177      0.0534
    121  CG        93.3060  -10.7710  -17.6560 C.ar  177  TYR177     -0.0201
    122  CD1       93.5180  -12.1140  -17.8060 C.ar  177  TYR177     -0.0009
    123  CD2       92.3780  -10.1490  -18.4710 C.ar  177  TYR177     -0.0009
    124  CE1       92.7800  -12.8690  -18.7510 C.ar  177  TYR177      0.0417
    125  CE2       91.6520  -10.8610  -19.4040 C.ar  177  TYR177      0.0417
    126  CZ        91.8460  -12.2290  -19.5330 C.ar  177  TYR177      0.1957
    127  OH        91.1090  -12.9190  -20.4870 O.3   177  TYR177     -0.2866
    128  N         97.0240  -14.7740  -17.2370 N.3   179  ILE179     -0.1245
    129  CA        96.8010  -15.9910  -16.5130 C.3   179  ILE179      0.1561
    130  C         97.8210  -17.0770  -16.7760 C.2   179  ILE179      0.2260
    131  O         98.4400  -17.1610  -17.8370 O.2   179  ILE179     -0.2867
    132  CB        95.3730  -16.5300  -16.8220 C.3   179  ILE179      0.0252
    133  CG1       95.1600  -16.8410  -18.2860 C.3   179  ILE179      0.0019
    134  CG2       94.3200  -15.5840  -16.3180 C.3   179  ILE179      0.0019
    135  CD1       94.0270  -17.8300  -18.5090 C.3   179  ILE179      0.0001
    136  N         94.8640  -22.0530  -11.4580 N.3   194  GLU194     -0.1245
    137  CA        94.8840  -20.9410  -12.3550 C.3   194  GLU194      0.1567
    138  C         95.2480  -19.7350  -11.5090 C.2   194  GLU194      0.2260
    139  O         94.5570  -19.4170  -10.5220 O.2   194  GLU194     -0.2867
    140  CB        93.5240  -20.7490  -12.9760 C.3   194  GLU194      0.0388
    141  CG        93.5080  -19.5670  -13.8870 C.3   194  GLU194      0.1160
    142  CD        92.2260  -19.3220  -14.6700 C.2   194  GLU194      0.3649
    143  OE1       91.1280  -19.7600  -14.2920 O.co2 194  GLU194     -0.2457
    144  OE2       92.3650  -18.5200  -15.6410 O.co2 194  GLU194     -0.2457
    145  N         95.9150  -15.6300  -11.5470 N.3   196  THR196     -0.1218
    146  CA        95.4840  -14.4910  -12.3420 C.3   196  THR196      0.1862
    147  C         96.2670  -13.2810  -11.7850 C.2   196  THR196      0.2287
    148  O         96.2100  -12.9900  -10.5950 O.2   196  THR196     -0.2866
    149  CB        93.9680  -14.2370  -12.2710 C.3   196  THR196      0.1770
    150  OG1       93.2700  -15.3780  -12.8220 O.3   196  THR196     -0.2211
    151  CG2       93.5380  -12.9970  -13.0190 C.3   196  THR196      0.0375
    152  N         96.4000   -9.1850  -12.3960 N.3   198  ASN198     -0.1240
    153  CA        95.7940   -7.9800  -12.9220 C.3   198  ASN198      0.1653
    154  C         96.8990   -6.8950  -12.9380 C.2   198  ASN198      0.2266
    155  O         97.6220   -6.6920  -11.9380 O.2   198  ASN198     -0.2867
    156  CB        94.6350   -7.5680  -12.0600 C.3   198  ASN198      0.1155
    157  CG        93.4290   -8.4790  -12.2470 C.2   198  ASN198      0.2627
    158  OD1       92.8220   -8.5350  -13.3160 O.2   198  ASN198     -0.2716
    159  ND2       93.0770   -9.1990  -11.1940 N.am  198  ASN198     -0.0877
@<TRIPOS>BOND
     1    43    42    2
     2    42    41    1
     3    36    35    2
     4    41    40    1
     5    41    44    1
     6    35    40   am
     7    35    34    1
     8   115   114    1
     9    33    34    1
    10    38    37    1
    11    44    45    1
    12   113   114   ar
    13   113   111   ar
    14    34    37    1
    15   114   112   ar
    16    37    39    1
    17    45    46    1
    18   111   109   ar
    19   112   110   ar
    20    46    47    1
    21   104   105    1
    22   109   110   ar
    23   109   108    1
    24    49    50    1
    25    32    30    1
    26    47    48    1
    27    31    30    1
    28   105   108    1
    29   105   106    1
    30    30    29    2
    31   127   126    1
    32    55    53    1
    33    52    51    2
    34    50    53    1
    35    50    51    1
    36    54    53    1
    37    54    56    1
    38   126   125   ar
    39   126   124   ar
    40   106   107    2
    41   125   123   ar
    42    29    28    1
    43   119   118    2
    44   124   122   ar
    45   135   133    1
    46   123   121   ar
    47   133   132    1
    48    28    27    1
    49   116   117    1
    50   118   117    1
    51   131   130    2
    52   122   121   ar
    53   121   120    1
    54    84    82   ar
    55   128   129    1
    56   117   120    1
    57    27    26    1
    58   132   129    1
    59   132   134    1
    60   130   129    1
    61    24    25    2
    62    24    23    1
    63    82    81    1
    64    82    83   ar
    65    26    23    1
    66    23    22    1
    67   144   142   ar
    68    81    80    1
    69    65    63   ar
    70    65    67   ar
    71    57    58    1
    72    63    62   ar
    73   142   143   ar
    74   142   141    1
    75    22    17   am
    76    67    66   ar
    77    78    79    2
    78    78    77    1
    79    80    77    1
    80   141   140    1
    81    18    17    2
    82    58    61    1
    83    58    59    1
    84    17    16    1
    85    62    61    1
    86    62    64   ar
    87    77    76    1
    88   158   157    2
    89   151   149    1
    90    60    59    2
    91   140   137    1
    92   154   153    1
    93   154   155    2
    94   153   152    1
    95   153   156    1
    96   150   149    1
    97    66    64   ar
    98    13    14   ar
    99    13    11   ar
   100    14    12   ar
   101   137   138    1
   102   137   136    1
   103   146   149    1
   104   146   147    1
   105   146   145    1
   106   157   156    1
   107   157   159   am
   108    16    15    1
   109    16    19    1
   110   147   148    2
   111    11    10   ar
   112    20    19    1
   113   138   139    2
   114    12    10   ar
   115    90    89    1
   116    90    91    1
   117    19    21    1
   118    92    91    1
   119    10     9    1
   120    89    86    1
   121     9     6    1
   122    75    74    1
   123    86    85    1
   124    86    87    1
   125   103   101    1
   126   100   101    2
   127   100    99    1
   128     8     7    2
   129   101   102    1
   130     7     6    1
   131     6     5    1
   132    87    88    2
   133    98    99    1
   134    98    97    1
   135    72    73    1
   136    72    69    1
   137    70    71    2
   138    70    69    1
   139     5     3   am
   140    74    73    1
   141     3     4    2
   142     3     2    1
   143    94    97    1
   144    94    93    1
   145    94    95    1
   146     2     1    1
   147    69    68    1
   148    95    96    2
