@<TRIPOS>MOLECULE
tmp/5d85A00.pdb
 137 131 0 0 0
SMALL
GASTEIGER

@<TRIPOS>ATOM
      1  N        -20.3390   14.9340    2.7180 N.3    67  SER67      -0.1217
      2  CA       -21.4670   14.5090    3.5410 C.3    67  SER67       0.1889
      3  C        -21.7720   13.0110    3.3870 C.2    67  SER67       0.2288
      4  O        -22.6690   12.5000    4.0470 O.2    67  SER67      -0.2866
      5  CB       -22.7180   15.3550    3.2110 C.3    67  SER67       0.2089
      6  OG       -23.0840   15.3050    1.8450 O.3    67  SER67      -0.2183
      7  N        -18.6130   14.5390    9.1410 N.3    90  ASP90      -0.1239
      8  CA       -19.0980   15.1780   10.3690 C.3    90  ASP90       0.1674
      9  C        -20.2480   14.3600   10.9990 C.2    90  ASP90       0.2266
     10  O        -20.7310   13.3950   10.3950 O.2    90  ASP90      -0.2867
     11  CB       -19.5150   16.6380   10.0730 C.3    90  ASP90       0.1410
     12  CG       -20.7170   16.7310    9.1260 C.2    90  ASP90       0.3668
     13  OD1      -21.7440   16.0340    9.3310 O.co2  90  ASP90      -0.2456
     14  OD2      -20.6430   17.5190    8.1630 O.co2  90  ASP90      -0.2456
     15  N        -23.3480   14.5280   11.1630 N.3    92  LYS92      -0.1231
     16  CA       -24.6560   14.4600   10.5000 C.3    92  LYS92       0.1693
     17  C        -24.6940   13.3830    9.4080 C.2    92  LYS92       0.2591
     18  O        -25.7700   13.0790    8.8530 O.2    92  LYS92      -0.2718
     19  CB       -25.0340   15.8430    9.9190 C.3    92  LYS92       0.0285
     20  CG       -25.2220   16.9290   10.9960 C.3    92  LYS92       0.0035
     21  CD       -25.7290   18.2610   10.4050 C.3    92  LYS92       0.0206
     22  CE       -25.7740   19.3520   11.4710 C.3    92  LYS92       0.1093
     23  NZ       -26.0060   20.7040   10.8470 N.3    92  LYS92      -0.1314
     24  N        -23.5410   12.7970    9.0970 N.am   93  ILE93      -0.1980
     25  CA       -23.4930   11.7810    8.0410 C.3    93  ILE93       0.1595
     26  C        -24.4460   10.6280    8.3800 C.2    93  ILE93       0.2287
     27  O        -24.6590   10.3010    9.5450 O.2    93  ILE93      -0.2864
     28  CB       -22.0630   11.2330    7.8310 C.3    93  ILE93       0.0276
     29  CG1      -21.9970   10.2630    6.6380 C.3    93  ILE93       0.0022
     30  CG2      -21.5240   10.5680    9.1180 C.3    93  ILE93       0.0022
     31  CD1      -20.5640    9.9230    6.2240 C.3    93  ILE93       0.0001
     32  N        -23.5470   24.3020   11.8070 N.3   119  GLY119     -0.1210
     33  CA       -22.9210   23.7620   10.5950 C.3   119  GLY119      0.1956
     34  C        -21.4910   23.2620   10.8070 C.2   119  GLY119      0.2612
     35  O        -20.7270   23.8680   11.5490 O.2   119  GLY119     -0.2717
     36  N        -21.1020   22.1720   10.1460 N.am  120  TYR120     -0.1962
     37  CA       -19.7500   21.6160   10.3320 C.3   120  TYR120      0.1771
     38  C        -18.8010   21.8720    9.1470 C.2   120  TYR120      0.2619
     39  O        -17.6220   21.4470    9.1920 O.2   120  TYR120     -0.2715
     40  CB       -19.8010   20.0920   10.5590 C.3   120  TYR120      0.0574
     41  CG       -20.4200   19.6480   11.8600 C.ar  120  TYR120     -0.0198
     42  CD1      -19.6800   19.6420   13.0390 C.ar  120  TYR120     -0.0009
     43  CD2      -21.7490   19.2190   11.9080 C.ar  120  TYR120     -0.0009
     44  CE1      -20.2500   19.2270   14.2450 C.ar  120  TYR120      0.0417
     45  CE2      -22.3370   18.8020   13.1130 C.ar  120  TYR120      0.0417
     46  CZ       -21.5740   18.8020   14.2690 C.ar  120  TYR120      0.1957
     47  OH       -22.1440   18.4070   15.4570 O.3   120  TYR120     -0.2866
     48  N        -19.2740   22.5450    8.0970 N.am  121  LEU121     -0.1977
     49  CA       -18.4140   22.7410    6.9190 C.3   121  LEU121      0.1596
     50  C        -17.1110   23.5040    7.2230 C.2   121  LEU121      0.2287
     51  O        -16.0330   23.0870    6.7670 O.2   121  LEU121     -0.2864
     52  CB       -19.1610   23.4600    5.8020 C.3   121  LEU121      0.0297
     53  CG       -18.4420   23.2670    4.4610 C.3   121  LEU121      0.0022
     54  CD1      -18.4100   21.7660    4.0760 C.3   121  LEU121      0.0001
     55  CD2      -19.0830   24.0890    3.3380 C.3   121  LEU121      0.0001
     56  N        -14.7380   21.0620    8.8330 N.3   124  ARG124     -0.1245
     57  CA       -14.2630   20.0950    7.8520 C.3   124  ARG124      0.1563
     58  C        -13.1650   20.6780    6.9610 C.2   124  ARG124      0.2260
     59  O        -12.1620   20.0160    6.6930 O.2   124  ARG124     -0.2867
     60  CB       -15.4290   19.6170    6.9750 C.3   124  ARG124      0.0307
     61  CG       -16.3570   18.6050    7.6370 C.3   124  ARG124      0.0489
     62  CD       -17.0460   17.7800    6.5460 C.3   124  ARG124      0.2205
     63  NE       -18.4780   18.0190    6.4140 N.pl3 124  ARG124     -0.0865
     64  CZ       -19.1180   18.0910    5.2510 C.cat 124  ARG124      0.5346
     65  NH1      -18.4480   18.0260    4.1210 N.pl3 124  ARG124      0.1354
     66  NH2      -20.4250   18.2440    5.2160 N.pl3 124  ARG124      0.1354
     67  N        -16.3220   21.7670   -3.9390 N.3   144  TYR144     -0.1241
     68  CA       -17.0970   23.0330   -3.9660 C.3   144  TYR144      0.1605
     69  C        -16.4900   24.0450   -4.9300 C.2   144  TYR144      0.2264
     70  O        -17.1610   25.0140   -5.3090 O.2   144  TYR144     -0.2867
     71  CB       -17.2190   23.6680   -2.5520 C.3   144  TYR144      0.0534
     72  CG       -18.1420   22.8610   -1.6630 C.ar  144  TYR144     -0.0201
     73  CD1      -17.6980   21.6780   -1.0740 C.ar  144  TYR144     -0.0009
     74  CD2      -19.4850   23.2320   -1.4610 C.ar  144  TYR144     -0.0009
     75  CE1      -18.5390   20.9110   -0.2890 C.ar  144  TYR144      0.0417
     76  CE2      -20.3460   22.4600   -0.6630 C.ar  144  TYR144      0.0417
     77  CZ       -19.8610   21.2990   -0.0830 C.ar  144  TYR144      0.1957
     78  OH       -20.6920   20.5000    0.7090 O.3   144  TYR144     -0.2866
     79  N        -25.9500   21.1680   -3.2400 N.3   177  SER177     -0.1217
     80  CA       -24.9780   21.3550   -2.1590 C.3   177  SER177      0.1889
     81  C        -23.7110   22.0740   -2.6990 C.2   177  SER177      0.2288
     82  O        -23.4620   23.2410   -2.3560 O.2   177  SER177     -0.2866
     83  CB       -24.6100   20.0170   -1.5110 C.3   177  SER177      0.2089
     84  OG       -23.8090   20.2650   -0.3660 O.3   177  SER177     -0.2183
     85  N        -29.4350   22.4180   10.3310 N.3   216  ARG216     -0.1245
     86  CA       -30.1050   21.5180    9.4150 C.3   216  ARG216      0.1563
     87  C        -29.7090   20.0760    9.7470 C.2   216  ARG216      0.2260
     88  O        -28.5590   19.8250   10.0860 O.2   216  ARG216     -0.2867
     89  CB       -29.7190   21.8490    7.9720 C.3   216  ARG216      0.0307
     90  CG       -30.0340   23.2840    7.5740 C.3   216  ARG216      0.0489
     91  CD       -29.5740   23.5640    6.1730 C.3   216  ARG216      0.2205
     92  NE       -28.1780   23.9870    6.1410 N.pl3 216  ARG216     -0.0865
     93  CZ       -27.1590   23.2440    5.7270 C.cat 216  ARG216      0.5346
     94  NH1      -27.3530   21.9940    5.2850 N.pl3 216  ARG216      0.1354
     95  NH2      -25.9360   23.7680    5.7390 N.pl3 216  ARG216      0.1354
     96  N        -30.6280   16.9190    7.7040 N.3   218  LEU218     -0.1231
     97  CA       -30.3690   16.0170    6.5880 C.3   218  LEU218      0.1678
     98  C        -29.0810   16.3190    5.8720 C.2   218  LEU218      0.2434
     99  O        -28.8900   17.4410    5.3870 O.2   218  LEU218     -0.2733
    100  CB       -31.5020   16.0760    5.5670 C.3   218  LEU218      0.0284
    101  CG       -32.7870   15.3700    5.9410 C.3   218  LEU218      0.0019
    102  CD1      -33.8380   15.6050    4.8480 C.3   218  LEU218      0.0001
    103  CD2      -32.5090   13.8800    6.1340 C.3   218  LEU218      0.0001
    104  N        -28.2070   15.3080    5.7470 N.am  219  PRO219     -0.2718
    105  CA       -26.9590   15.5340    5.0160 C.3   219  PRO219      0.1535
    106  C        -27.2000   15.4910    3.5130 C.2   219  PRO219      0.2599
    107  O        -28.1110   14.7890    3.0510 O.2   219  PRO219     -0.2715
    108  CB       -26.0690   14.3800    5.4760 C.3   219  PRO219      0.0310
    109  CG       -27.0840   13.2250    5.7490 C.3   219  PRO219      0.0237
    110  CD       -28.3280   13.9350    6.2830 C.3   219  PRO219      0.0939
    111  N        -26.4120   16.2400    2.7530 N.am  220  GLY220     -0.1941
    112  CA       -26.4710   16.1490    1.3020 C.3   220  GLY220      0.2014
    113  C        -27.1800   17.2880    0.5780 C.2   220  GLY220      0.2639
    114  O        -26.9140   17.5300   -0.5890 O.2   220  GLY220     -0.2714
    115  N        -28.0930   17.9780    1.2440 N.am  221  ILE221     -0.1963
    116  CA       -28.7090   19.1650    0.6240 C.3   221  ILE221      0.1727
    117  C        -28.3900   20.3810    1.4980 C.2   221  ILE221      0.2617
    118  O        -28.4340   20.2910    2.7270 O.2   221  ILE221     -0.2715
    119  CB       -30.2620   18.9530    0.4170 C.3   221  ILE221      0.0290
    120  CG1      -30.9000   20.1600   -0.2730 C.3   221  ILE221      0.0022
    121  CG2      -30.9420   18.5990    1.7440 C.3   221  ILE221      0.0023
    122  CD1      -32.3360   19.9040   -0.7920 C.3   221  ILE221      0.0001
    123  N        -28.0270   21.5070    0.8690 N.am  222  GLY222     -0.1940
    124  CA       -27.7480   22.7370    1.6070 C.3   222  GLY222      0.2014
    125  C        -26.2650   22.8700    1.9170 C.2   222  GLY222      0.2639
    126  O        -25.5440   21.8830    1.8330 O.2   222  GLY222     -0.2714
    127  N        -25.8200   24.0700    2.2840 N.am  223  ALA223     -0.1963
    128  CA       -24.4270   24.2680    2.7390 C.3   223  ALA223      0.1728
    129  C        -24.3060   25.5320    3.6170 C.2   223  ALA223      0.2616
    130  O        -25.1570   26.4320    3.5350 O.2   223  ALA223     -0.2715
    131  CB       -23.5000   24.3570    1.5470 C.3   223  ALA223      0.0334
    132  N        -23.2640   25.5990    4.4510 N.am  224  SER224     -0.1950
    133  CA       -23.0300   26.7700    5.2860 C.3   224  SER224      0.1924
    134  C        -21.9560   27.7130    4.7180 C.2   224  SER224      0.2314
    135  O        -21.4750   28.5930    5.4170 O.2   224  SER224     -0.2863
    136  CB       -22.6490   26.3390    6.7100 C.3   224  SER224      0.2116
    137  OG       -21.5290   25.4740    6.6990 O.3   224  SER224     -0.2180
@<TRIPOS>BOND
     1    70    69    2
     2    69    68    1
     3    68    67    1
     4    68    71    1
     5    79    80    1
     6    81    82    2
     7    81    80    1
     8    71    72    1
     9    80    83    1
    10    72    74   ar
    11    72    73   ar
    12    83    84    1
    13    74    76   ar
    14    73    75   ar
    15   122   120    1
    16    76    77   ar
    17   114   113    2
    18    75    77   ar
    19   120   119    1
    20    77    78    1
    21   119   116    1
    22   119   121    1
    23   113   115   am
    24   113   112    1
    25   116   115    1
    26   116   117    1
    27   123   117   am
    28   123   124    1
    29   112   111    1
    30   117   118    2
    31   131   128    1
    32   124   125    1
    33   126   125    2
    34     6     5    1
    35   125   127   am
    36   127   128    1
    37     1     2    1
    38   128   129    1
    39   111   106   am
    40   107   106    2
    41     5     2    1
    42    55    53    1
    43     3     2    1
    44     3     4    2
    45   106   105    1
    46   130   129    2
    47   129   132   am
    48    54    53    1
    49    65    64    1
    50   132   133    1
    51    53    52    1
    52   134   133    1
    53   134   135    2
    54   102   101    1
    55   105   108    1
    56   105   104    1
    57    66    64    1
    58    64    63    2
    59    94    93    1
    60   133   136    1
    61    99    98    2
    62   108   109    1
    63   100   101    1
    64   100    97    1
    65    93    95    1
    66    93    92    2
    67   104    98   am
    68   104   110    1
    69   109   110    1
    70    52    49    1
    71    98    97    1
    72   101   103    1
    73    92    91    1
    74    91    90    1
    75    31    29    1
    76    63    62    1
    77    62    61    1
    78    97    96    1
    79    29    28    1
    80    59    58    2
    81   137   136    1
    82    51    50    2
    83    49    50    1
    84    49    48    1
    85    58    57    1
    86    60    61    1
    87    60    57    1
    88    90    89    1
    89    28    25    1
    90    28    30    1
    91    57    56    1
    92    89    86    1
    93    25    26    1
    94    25    24    1
    95    48    38   am
    96    14    12   ar
    97    26    27    2
    98    18    17    2
    99    24    17   am
   100    12    13   ar
   101    12    11    1
   102     7     8    1
   103    38    39    2
   104    38    37    1
   105    17    16    1
   106    86    87    1
   107    86    85    1
   108    87    88    2
   109    19    16    1
   110    19    20    1
   111    11     8    1
   112    36    37    1
   113    36    34   am
   114    37    40    1
   115     8     9    1
   116    10     9    2
   117    21    20    1
   118    21    22    1
   119    16    15    1
   120    40    41    1
   121    33    34    1
   122    33    32    1
   123    34    35    2
   124    23    22    1
   125    41    43   ar
   126    41    42   ar
   127    43    45   ar
   128    42    44   ar
   129    45    46   ar
   130    44    46   ar
   131    46    47    1
