@<TRIPOS>MOLECULE
tmp/5d86A00.pdb
 146 141 0 0 0
SMALL
GASTEIGER

@<TRIPOS>ATOM
      1  N         25.0570   -6.1230   -4.1340 N.3    38  SER38      -0.1202
      2  CA        25.5440   -7.4850   -4.1800 C.3    38  SER38       0.2020
      3  C         24.9720   -8.2250   -5.3460 C.2    38  SER38       0.2619
      4  O         24.0220   -7.7820   -5.9940 O.2    38  SER38      -0.2717
      5  CB        25.1900   -8.2410   -2.8940 C.3    38  SER38       0.2103
      6  OG        23.8430   -8.7990   -2.9740 O.3    38  SER38      -0.2182
      7  N         25.4740   -9.4400   -5.5560 N.am   39  MET39      -0.1965
      8  CA        25.0200  -10.3250   -6.5870 C.3    39  MET39       0.1736
      9  C         23.5270  -10.7070   -6.4200 C.2    39  MET39       0.2616
     10  O         22.8880  -11.1790   -7.3850 O.2    39  MET39      -0.2715
     11  CB        25.9190  -11.5820   -6.5570 C.3    39  MET39       0.0427
     12  CG        25.6950  -12.5710   -7.6370 C.3    39  MET39       0.0599
     13  SD        26.9710  -13.8830   -7.3820 S.3    39  MET39      -0.1393
     14  CE        26.6110  -14.2760   -5.6810 C.3    39  MET39       0.0692
     15  N         22.9820  -10.5190   -5.2050 N.am   40  LYS40      -0.1977
     16  CA        21.6090  -10.9780   -4.9900 C.3    40  LYS40       0.1596
     17  C         20.5710  -10.1200   -5.7060 C.2    40  LYS40       0.2287
     18  O         19.4130  -10.5400   -5.8240 O.2    40  LYS40      -0.2864
     19  CB        21.2870  -11.0610   -3.5050 C.3    40  LYS40       0.0298
     20  CG        22.0690  -12.1670   -2.7860 C.3    40  LYS40       0.0038
     21  CD        21.9000  -13.5390   -3.4260 C.3    40  LYS40       0.0206
     22  CE        22.3410  -14.6650   -2.5010 C.3    40  LYS40       0.1093
     23  NZ        23.7830  -14.4490   -2.1590 N.3    40  LYS40      -0.1314
     24  N         22.3290  -10.5120    2.3290 N.3    70  ASN70      -0.1240
     25  CA        22.2570   -9.9280    1.0250 C.3    70  ASN70       0.1653
     26  C         20.9520  -10.1700    0.2630 C.2    70  ASN70       0.2266
     27  O         20.4840   -9.2340   -0.3820 O.2    70  ASN70      -0.2867
     28  CB        23.4260  -10.4090    0.1740 C.3    70  ASN70       0.1155
     29  CG        24.7590   -9.8710    0.6640 C.2    70  ASN70       0.2627
     30  OD1       24.8400   -8.7980    1.3180 O.2    70  ASN70      -0.2716
     31  ND2       25.8160  -10.5440    0.3010 N.am   70  ASN70      -0.0877
     32  N         16.1030  -19.1980   -9.0220 N.3   150  ASN150     -0.1240
     33  CA        17.3920  -18.7760   -8.4680 C.3   150  ASN150      0.1653
     34  C         18.5160  -19.1280   -9.4690 C.2   150  ASN150      0.2266
     35  O         19.1930  -18.2410   -9.9850 O.2   150  ASN150     -0.2867
     36  CB        17.5650  -19.4470   -7.1110 C.3   150  ASN150      0.1155
     37  CG        18.9390  -19.2010   -6.4760 C.2   150  ASN150      0.2627
     38  OD1       19.8320  -18.6150   -7.1040 O.2   150  ASN150     -0.2716
     39  ND2       19.1000  -19.6540   -5.2200 N.am  150  ASN150     -0.0877
     40  N         20.9910  -16.7470  -12.6200 N.3   154  HIS154     -0.1241
     41  CA        22.4460  -16.6930  -12.7960 C.3   154  HIS154      0.1621
     42  C         22.8700  -17.2370  -14.1430 C.2   154  HIS154      0.2264
     43  O         23.8510  -16.7570  -14.7320 O.2   154  HIS154     -0.2867
     44  CB        23.1180  -17.4480  -11.6530 C.3   154  HIS154      0.0745
     45  CG        22.9160  -16.7790  -10.3370 C.ar  154  HIS154      0.0817
     46  ND1       23.3700  -15.4930  -10.0890 N.ar  154  HIS154     -0.2268
     47  CD2       22.2770  -17.1860   -9.2100 C.ar  154  HIS154      0.1154
     48  CE1       23.0780  -15.1670   -8.8480 C.ar  154  HIS154      0.1986
     49  NE2       22.3970  -16.1640   -8.2980 N.ar  154  HIS154     -0.2212
     50  N         31.8370  -19.4600   -5.0200 N.3   176  PRO176     -0.2102
     51  CA        31.3960  -19.8230   -3.6780 C.3   176  PRO176      0.1504
     52  C         29.9560  -20.3020   -3.6700 C.2   176  PRO176      0.2576
     53  O         29.2100  -19.9770   -4.6000 O.2   176  PRO176     -0.2718
     54  CB        31.5460  -18.4920   -2.9000 C.3   176  PRO176      0.0282
     55  CG        31.1450  -17.4360   -3.9270 C.3   176  PRO176      0.0208
     56  CD        31.6770  -18.0140   -5.2740 C.3   176  PRO176      0.0893
     57  N         29.5860  -21.0350   -2.6290 N.am  177  VAL177     -0.1966
     58  CA        28.2300  -21.5960   -2.5610 C.3   177  VAL177      0.1727
     59  C         27.5530  -21.3030   -1.2340 C.2   177  VAL177      0.2617
     60  O         28.1750  -21.2860   -0.1680 O.2   177  VAL177     -0.2715
     61  CB        28.2440  -23.1200   -2.7420 C.3   177  VAL177      0.0290
     62  CG1       28.6700  -23.4670   -4.1530 C.3   177  VAL177      0.0023
     63  CG2       29.1600  -23.8270   -1.7200 C.3   177  VAL177      0.0023
     64  N         26.2400  -21.0940   -1.3280 N.am  178  SER178     -0.1936
     65  CA        25.3440  -21.1690   -0.1790 C.3   178  SER178      0.2055
     66  C         24.0700  -21.8810   -0.6520 C.2   178  SER178      0.2644
     67  O         23.8060  -23.0150   -0.2390 O.2   178  SER178     -0.2714
     68  CB        25.0370  -19.7970    0.4310 C.3   178  SER178      0.2130
     69  OG        24.2310  -20.0230    1.6030 O.3   178  SER178     -0.2179
     70  N         23.2860  -21.2320   -1.5270 N.am  179  THR179     -0.1936
     71  CA        22.1650  -21.9710   -2.1310 C.3   179  THR179      0.2028
     72  C         22.5910  -22.8570   -3.2950 C.2   179  THR179      0.2643
     73  O         21.8680  -23.7500   -3.6840 O.2   179  THR179     -0.2714
     74  CB        21.0770  -21.0510   -2.6670 C.3   179  THR179      0.1808
     75  OG1       21.5600  -20.3110   -3.7940 O.3   179  THR179     -0.2208
     76  CG2       20.5880  -20.0960   -1.5940 C.3   179  THR179      0.0379
     77  N         23.7690  -22.5950   -3.8450 N.am  180  THR180     -0.1936
     78  CA        24.3580  -23.1210   -5.0920 C.3   180  THR180      0.2028
     79  C         23.6750  -22.6140   -6.3670 C.2   180  THR180      0.2643
     80  O         24.0330  -23.0300   -7.4830 O.2   180  THR180     -0.2714
     81  CB        24.4650  -24.6940   -5.1360 C.3   180  THR180      0.1808
     82  OG1       23.1940  -25.3150   -5.4070 O.3   180  THR180     -0.2208
     83  CG2       25.0940  -25.2370   -3.8520 C.3   180  THR180      0.0379
     84  N         22.7840  -21.6220   -6.2290 N.am  181  GLY181     -0.1939
     85  CA        22.1740  -21.0730   -7.4190 C.3   181  GLY181      0.2014
     86  C         23.2070  -20.4910   -8.3910 C.2   181  GLY181      0.2640
     87  O         23.1130  -20.6970   -9.6050 O.2   181  GLY181     -0.2714
     88  N         24.1680  -19.7450   -7.8530 N.am  182  SER182     -0.1935
     89  CA        25.1780  -19.1180   -8.6950 C.3   182  SER182      0.2055
     90  C         26.0120  -20.1520   -9.4390 C.2   182  SER182      0.2642
     91  O         26.1360  -20.1140  -10.6770 O.2   182  SER182     -0.2714
     92  CB        26.0870  -18.2050   -7.8430 C.3   182  SER182      0.2130
     93  OG        25.3260  -17.1380   -7.2920 O.3   182  SER182     -0.2179
     94  N         26.5830  -21.1120   -8.7130 N.am  183  ILE183     -0.1977
     95  CA        27.4750  -22.0250   -9.4160 C.3   183  ILE183      0.1596
     96  C         26.6550  -22.9260  -10.3660 C.2   183  ILE183      0.2287
     97  O         27.1360  -23.2500  -11.4670 O.2   183  ILE183     -0.2864
     98  CB        28.3280  -22.8510   -8.4290 C.3   183  ILE183      0.0276
     99  CG1       29.4930  -23.4620   -9.1860 C.3   183  ILE183      0.0022
    100  CG2       27.4940  -23.9070   -7.6470 C.3   183  ILE183      0.0022
    101  CD1       30.6120  -24.0280   -8.2130 C.3   183  ILE183      0.0001
    102  N         27.2820  -15.5270    4.2100 N.3   221  GLY221     -0.1210
    103  CA        27.3760  -15.4760    2.7790 C.3   221  GLY221      0.1956
    104  C         27.7550  -16.7910    2.1420 C.2   221  GLY221      0.2611
    105  O         27.2150  -17.1860    1.1320 O.2   221  GLY221     -0.2717
    106  N         28.7450  -17.4470    2.7180 N.am  222  ILE222     -0.1979
    107  CA        29.2040  -18.7230    2.1720 C.3   222  ILE222      0.1595
    108  C         28.9020  -19.8630    3.1650 C.2   222  ILE222      0.2287
    109  O         29.0420  -19.6990    4.3960 O.2   222  ILE222     -0.2864
    110  CB        30.7170  -18.6440    1.8330 C.3   222  ILE222      0.0276
    111  CG1       31.2200  -19.9540    1.2380 C.3   222  ILE222      0.0022
    112  CG2       31.5510  -18.2710    3.0740 C.3   222  ILE222      0.0022
    113  CD1       32.6490  -19.8370    0.6730 C.3   222  ILE222      0.0001
    114  N         33.0980  -14.1110    1.3250 N.3   265  SER265     -0.1217
    115  CA        33.1460  -15.2020    0.3540 C.3   265  SER265      0.1889
    116  C         34.0890  -14.9240   -0.8160 C.2   265  SER265      0.2288
    117  O         34.5930  -15.8420   -1.4210 O.2   265  SER265     -0.2866
    118  CB        31.7490  -15.5110   -0.1570 C.3   265  SER265      0.2089
    119  OG        31.2770  -14.4220   -0.9400 O.3   265  SER265     -0.2183
    120  N         31.0030  -11.6220   -4.9570 N.3   291  PRO291     -0.2102
    121  CA        29.5730  -11.3410   -4.7460 C.3   291  PRO291      0.1504
    122  C         29.2230  -10.0560   -4.0100 C.2   291  PRO291      0.2575
    123  O         28.1450   -9.5050   -4.2780 O.2   291  PRO291     -0.2718
    124  CB        29.0930  -12.5500   -3.9390 C.3   291  PRO291      0.0282
    125  CG        30.0080  -13.6500   -4.3850 C.3   291  PRO291      0.0208
    126  CD        31.3640  -12.9860   -4.5360 C.3   291  PRO291      0.0893
    127  N         30.0700   -9.5910   -3.0700 N.am  292  ASP292     -0.1974
    128  CA        29.6460   -8.4120   -2.2980 C.3   292  ASP292      0.1708
    129  C         30.8600   -7.6250   -1.8150 C.2   292  ASP292      0.2293
    130  O         32.0000   -8.0290   -2.0740 O.2   292  ASP292     -0.2864
    131  CB        28.6740   -8.7990   -1.1570 C.3   292  ASP292      0.1436
    132  CG        29.3090   -9.5360    0.0200 C.2   292  ASP292      0.3671
    133  OD1       30.4740   -9.9080   -0.0260 O.co2 292  ASP292     -0.2456
    134  OD2       28.5570   -9.7170    1.0140 O.co2 292  ASP292     -0.2456
    135  N         31.7600   -6.2120    6.3870 N.3   297  TYR297     -0.1241
    136  CA        32.6260   -7.1470    7.0800 C.3   297  TYR297      0.1605
    137  C         33.6930   -6.4450    7.9190 C.2   297  TYR297      0.2264
    138  O         34.7120   -7.0410    8.2150 O.2   297  TYR297     -0.2867
    139  CB        33.2810   -8.1220    6.0740 C.3   297  TYR297      0.0534
    140  CG        32.2720   -8.8950    5.2780 C.ar  297  TYR297     -0.0201
    141  CD1       31.6620   -8.3000    4.1640 C.ar  297  TYR297     -0.0009
    142  CD2       31.9150  -10.1920    5.6050 C.ar  297  TYR297     -0.0009
    143  CE1       30.7300   -8.9910    3.3940 C.ar  297  TYR297      0.0417
    144  CE2       31.0070  -10.8900    4.8470 C.ar  297  TYR297      0.0417
    145  CZ        30.3850  -10.2760    3.7610 C.ar  297  TYR297      0.1957
    146  OH        29.4480  -10.9740    3.0090 O.3   297  TYR297     -0.2866
@<TRIPOS>BOND
     1    43    42    2
     2    42    41    1
     3    41    40    1
     4    41    44    1
     5    44    45    1
     6    97    96    2
     7    91    90    2
     8    96    95    1
     9    45    46   ar
    10    45    47   ar
    11    46    48   ar
    12    35    34    2
    13    87    86    2
    14    34    33    1
    15    90    94   am
    16    90    89    1
    17    95    94    1
    18    95    98    1
    19    47    49   ar
    20    99    98    1
    21    99   101    1
    22    32    33    1
    23    48    49   ar
    24    89    88    1
    25    89    92    1
    26    33    36    1
    27    98   100    1
    28    86    88   am
    29    86    85    1
    30    92    93    1
    31    12    13    1
    32    12    11    1
    33    80    79    2
    34    85    84    1
    35    10     9    2
    36    13    14    1
    37    36    37    1
    38    38    37    2
    39     8    11    1
    40     8     9    1
    41     8     7    1
    42    37    39   am
    43     9    15   am
    44    79    84   am
    45    79    78    1
    46     4     3    2
    47    18    17    2
    48    17    16    1
    49     7     3   am
    50    82    81    1
    51     3     2    1
    52    56    50    1
    53    56    55    1
    54    15    16    1
    55    81    78    1
    56    81    83    1
    57    78    77    1
    58    50    51    1
    59    16    19    1
    60   120   121    1
    61   120   126    1
    62   121   122    1
    63   121   124    1
    64    53    52    2
    65   126   125    1
    66   125   124    1
    67   123   122    2
    68     2     1    1
    69     2     5    1
    70    62    61    1
    71   122   127   am
    72    55    54    1
    73    77    72   am
    74    75    74    1
    75    73    72    2
    76    51    52    1
    77    51    54    1
    78    52    57   am
    79    19    20    1
    80    21    20    1
    81    21    22    1
    82    72    71    1
    83   127   128    1
    84     6     5    1
    85    61    58    1
    86    61    63    1
    87    74    71    1
    88    74    76    1
    89    57    58    1
    90    58    59    1
    91    22    23    1
    92   128   129    1
    93   128   131    1
    94    71    70    1
    95   130   129    2
    96    70    66   am
    97   117   116    2
    98    64    59   am
    99    64    65    1
   100    59    60    2
   101   131   132    1
   102   119   118    1
   103   116   115    1
   104    66    67    2
   105    66    65    1
   106    27    26    2
   107    65    68    1
   108   118   115    1
   109   133   132   ar
   110   132   134   ar
   111    28    29    1
   112    28    25    1
   113    26    25    1
   114    31    29   am
   115   115   114    1
   116    68    69    1
   117    29    30    2
   118   113   111    1
   119    25    24    1
   120   105   104    2
   121   111   110    1
   122   110   107    1
   123   110   112    1
   124   104   106   am
   125   104   103    1
   126   107   106    1
   127   107   108    1
   128   103   102    1
   129   146   145    1
   130   108   109    2
   131   143   145   ar
   132   143   141   ar
   133   145   144   ar
   134   141   140   ar
   135   144   142   ar
   136   140   142   ar
   137   140   139    1
   138   139   136    1
   139   135   136    1
   140   136   137    1
   141   137   138    2
