@<TRIPOS>MOLECULE
tmp/5d8uA00.pdb
 144 139 0 0 0
SMALL
GASTEIGER

@<TRIPOS>ATOM
      1  N          2.1030  -62.8060  408.6640 N.3    23  ALA23      -0.1245
      2  CA         2.0970  -61.7940  409.7440 C.3    23  ALA23       0.1562
      3  C          2.7600  -60.4370  409.3370 C.2    23  ALA23       0.2260
      4  O          2.1960  -59.3530  409.5460 O.2    23  ALA23      -0.2867
      5  CB         2.7180  -62.3620  411.0200 C.3    23  ALA23       0.0290
      6  N          0.9020  -56.5770  408.6200 N.3    27  TYR27      -0.1241
      7  CA         1.1990  -55.3180  409.3480 C.3    27  TYR27       0.1605
      8  C          2.0860  -54.4630  408.4550 C.2    27  TYR27       0.2264
      9  O          2.9080  -53.7350  408.9590 O.2    27  TYR27      -0.2867
     10  CB         1.8400  -55.5300  410.7800 C.3    27  TYR27       0.0534
     11  CG         0.8820  -56.1620  411.8410 C.ar   27  TYR27      -0.0201
     12  CD1       -0.0780  -55.3870  412.5300 C.ar   27  TYR27      -0.0009
     13  CD2        0.9230  -57.5610  412.1390 C.ar   27  TYR27      -0.0009
     14  CE1       -0.9760  -55.9700  413.4450 C.ar   27  TYR27       0.0417
     15  CE2        0.0360  -58.1510  413.0580 C.ar   27  TYR27       0.0417
     16  CZ        -0.9180  -57.3650  413.7170 C.ar   27  TYR27       0.1957
     17  OH        -1.7920  -57.9640  414.6340 O.3    27  TYR27      -0.2866
     18  N         13.7930  -58.8370  411.2630 N.3    37  LYS37      -0.1245
     19  CA        12.4710  -58.9390  411.8010 C.3    37  LYS37       0.1561
     20  C         11.7940  -60.2830  411.3990 C.2    37  LYS37       0.2260
     21  O         11.0910  -60.9450  412.1670 O.2    37  LYS37      -0.2867
     22  CB        11.7580  -57.8070  411.1640 C.3    37  LYS37       0.0271
     23  CG        10.4730  -57.3870  411.7600 C.3    37  LYS37       0.0035
     24  CD        10.3900  -55.8480  411.7340 C.3    37  LYS37       0.0206
     25  CE         9.0200  -55.4240  412.2100 C.3    37  LYS37       0.1093
     26  NZ         8.4630  -56.2450  413.3280 N.3    37  LYS37      -0.1314
     27  N          9.8400  -66.3650  417.3090 N.3    44  HIS44      -0.1241
     28  CA         8.8100  -66.1510  418.3380 C.3    44  HIS44       0.1621
     29  C          7.6870  -67.1580  418.0590 C.2    44  HIS44       0.2264
     30  O          7.2630  -67.8760  418.9470 O.2    44  HIS44      -0.2867
     31  CB         8.3040  -64.6740  418.3380 C.3    44  HIS44       0.0745
     32  CG         7.1770  -64.4030  419.3190 C.ar   44  HIS44       0.0817
     33  ND1        5.8360  -64.5550  419.0210 N.ar   44  HIS44      -0.2268
     34  CD2        7.2170  -63.9200  420.5840 C.ar   44  HIS44       0.1154
     35  CE1        5.1030  -64.2610  420.0760 C.ar   44  HIS44       0.1986
     36  NE2        5.9320  -63.8400  421.0380 N.ar   44  HIS44      -0.2212
     37  N         -1.3170  -66.9030  418.8820 N.3    64  GLU64      -0.1245
     38  CA        -0.2910  -66.4390  417.9840 C.3    64  GLU64       0.1567
     39  C         -0.4140  -67.3920  416.7820 C.2    64  GLU64       0.2260
     40  O         -0.6860  -68.5940  416.9330 O.2    64  GLU64      -0.2867
     41  CB         1.1140  -66.5760  418.6150 C.3    64  GLU64       0.0388
     42  CG         2.4050  -65.9410  417.9850 C.3    64  GLU64       0.1160
     43  CD         2.2630  -64.4540  417.5980 C.2    64  GLU64       0.3649
     44  OE1        2.6340  -63.3200  418.2640 O.co2  64  GLU64      -0.2457
     45  OE2        1.7630  -64.4010  416.4900 O.co2  64  GLU64      -0.2457
     46  N         -3.9090  -55.8590  424.3730 N.3    89  PHE89      -0.1227
     47  CA        -3.0400  -56.3210  423.2910 C.3    89  PHE89       0.1736
     48  C         -3.1720  -57.7920  423.1670 C.2    89  PHE89       0.2595
     49  O         -3.3010  -58.4840  424.1720 O.2    89  PHE89      -0.2718
     50  CB        -1.6120  -55.9450  423.6190 C.3    89  PHE89       0.0547
     51  CG        -1.4300  -54.4670  423.7460 C.ar   89  PHE89      -0.0202
     52  CD1       -1.4530  -53.6550  422.5980 C.ar   89  PHE89      -0.0042
     53  CD2       -1.3330  -53.8670  425.0100 C.ar   89  PHE89      -0.0042
     54  CE1       -1.3230  -52.2880  422.7100 C.ar   89  PHE89      -0.0003
     55  CE2       -1.2180  -52.4900  425.1330 C.ar   89  PHE89      -0.0003
     56  CZ        -1.2070  -51.7020  423.9910 C.ar   89  PHE89      -0.0000
     57  N         -3.1710  -58.2700  421.9300 N.am   90  LEU90      -0.1966
     58  CA        -3.2050  -59.7180  421.6970 C.3    90  LEU90       0.1713
     59  C         -2.1210  -60.4820  422.5040 C.2    90  LEU90       0.2458
     60  O         -0.9520  -60.1360  422.4370 O.2    90  LEU90      -0.2730
     61  CB        -2.9990  -60.0450  420.1980 C.3    90  LEU90       0.0310
     62  CG        -4.2320  -60.1370  419.3190 C.3    90  LEU90       0.0022
     63  CD1       -3.8160  -60.4330  417.8890 C.3    90  LEU90       0.0001
     64  CD2       -5.2230  -61.1770  419.8420 C.3    90  LEU90       0.0001
     65  N         -2.5210  -61.5130  423.2720 N.am   91  PRO91      -0.2716
     66  CA        -1.6120  -62.5100  423.8800 C.3    91  PRO91       0.1536
     67  C         -1.2960  -63.6690  422.8830 C.2    91  PRO91       0.2598
     68  O         -1.8510  -63.6660  421.7500 O.2    91  PRO91      -0.2715
     69  CB        -2.4600  -63.0390  425.0540 C.3    91  PRO91       0.0310
     70  CG        -3.8610  -62.9940  424.5080 C.3    91  PRO91       0.0237
     71  CD        -3.9340  -61.8680  423.5060 C.3    91  PRO91       0.0939
     72  N         -0.3600  -64.5350  423.2690 N.am   92  ASP92      -0.1972
     73  CA         0.1020  -65.6770  422.4560 C.3    92  ASP92       0.1709
     74  C         -0.6370  -66.9430  422.7490 C.2    92  ASP92       0.2293
     75  O         -0.9040  -67.7190  421.8350 O.2    92  ASP92      -0.2864
     76  CB         1.5940  -65.8900  422.6530 C.3    92  ASP92       0.1436
     77  CG         2.3560  -64.7010  422.2970 C.2    92  ASP92       0.3671
     78  OD1        1.9980  -64.1110  421.2870 O.co2  92  ASP92      -0.2456
     79  OD2        3.2300  -64.2370  423.0400 O.co2  92  ASP92      -0.2456
     80  N          1.6670  -63.9580  427.3470 N.3   103  ASP103     -0.1225
     81  CA         2.5010  -63.4550  426.2840 C.3   103  ASP103      0.1805
     82  C          3.9560  -63.8810  426.4670 C.2   103  ASP103      0.2598
     83  O          4.6570  -63.4290  427.3970 O.2   103  ASP103     -0.2718
     84  CB         2.4670  -61.9520  426.3080 C.3   103  ASP103      0.1424
     85  CG         3.0260  -61.3560  425.0610 C.2   103  ASP103      0.3668
     86  OD1        3.9440  -61.9020  424.4690 O.co2 103  ASP103     -0.2456
     87  OD2        2.5100  -60.3350  424.6040 O.co2 103  ASP103     -0.2456
     88  N          4.4400  -64.6270  425.4990 N.am  104  ILE104     -0.1966
     89  CA         5.8060  -65.1390  425.4740 C.3   104  ILE104      0.1727
     90  C          6.6680  -64.0700  424.8110 C.2   104  ILE104      0.2617
     91  O          6.2560  -63.4740  423.8670 O.2   104  ILE104     -0.2715
     92  CB         6.0050  -66.4480  424.6400 C.3   104  ILE104      0.0290
     93  CG1        5.0150  -67.5700  424.9690 C.3   104  ILE104      0.0022
     94  CG2        7.3940  -66.9520  424.7270 C.3   104  ILE104      0.0023
     95  CD1        5.0060  -67.9320  426.3760 C.3   104  ILE104      0.0001
     96  N          7.8670  -63.8330  425.3550 N.am  105  GLY105     -0.1940
     97  CA         8.8280  -62.8280  424.8450 C.3   105  GLY105      0.2014
     98  C         10.0810  -63.5360  424.5040 C.2   105  GLY105      0.2638
     99  O         10.4470  -64.4570  425.1980 O.2   105  GLY105     -0.2714
    100  N         10.6910  -63.1990  423.3870 N.am  106  VAL106     -0.1977
    101  CA        12.0230  -63.7420  423.0690 C.3   106  VAL106      0.1596
    102  C         12.8640  -62.4540  422.9030 C.2   106  VAL106      0.2287
    103  O         12.4200  -61.5780  422.1860 O.2   106  VAL106     -0.2864
    104  CB        11.9910  -64.5950  421.7790 C.3   106  VAL106      0.0276
    105  CG1       13.4080  -64.9900  421.3310 C.3   106  VAL106      0.0022
    106  CG2       11.0360  -65.8140  421.9560 C.3   106  VAL106      0.0022
    107  N         13.8840  -56.2830  428.8370 N.3   114  TYR114     -0.1298
    108  CA        12.6830  -56.6100  428.0140 C.3   114  TYR114      0.1290
    109  C         11.4140  -56.8230  428.9310 C.3   114  TYR114      0.2013
    110  O         10.2430  -56.4160  428.5740 O.3   114  TYR114     -0.2188
    111  CB        12.9540  -57.7980  426.9290 C.3   114  TYR114      0.0480
    112  CG        11.8950  -58.0270  425.7690 C.ar  114  TYR114     -0.0204
    113  CD1       11.6160  -57.0440  424.8080 C.ar  114  TYR114     -0.0009
    114  CD2       11.2270  -59.2390  425.6210 C.ar  114  TYR114     -0.0009
    115  CE1       10.6690  -57.2500  423.8080 C.ar  114  TYR114      0.0417
    116  CE2       10.2910  -59.4680  424.5740 C.ar  114  TYR114      0.0417
    117  CZ        10.0100  -58.4670  423.6890 C.ar  114  TYR114      0.1957
    118  OH         9.0540  -58.6510  422.6900 O.3   114  TYR114     -0.2866
    119  N          7.6640  -54.7800  428.3590 N.3   118  LYS118     -0.1245
    120  CA         6.3720  -55.4780  428.0640 C.3   118  LYS118      0.1561
    121  C          5.3710  -55.2300  429.1910 C.2   118  LYS118      0.2260
    122  O          4.1840  -54.9860  428.9660 O.2   118  LYS118     -0.2867
    123  CB         6.5920  -56.9970  427.8550 C.3   118  LYS118      0.0271
    124  CG         5.4860  -57.7080  427.0530 C.3   118  LYS118      0.0035
    125  CD         5.9170  -59.0610  426.3840 C.3   118  LYS118      0.0206
    126  CE         6.3260  -58.9140  424.9080 C.3   118  LYS118      0.1093
    127  NZ         5.1870  -59.3700  424.1190 N.3   118  LYS118     -0.1314
    128  N          4.2170  -51.7110  428.7930 N.3   121  LYS121     -0.1231
    129  CA         3.5720  -51.5840  427.4720 C.3   121  LYS121      0.1693
    130  C          2.3120  -52.4010  427.4340 C.2   121  LYS121      0.2591
    131  O          1.4070  -52.0270  426.7080 O.2   121  LYS121     -0.2718
    132  CB         4.4710  -51.9640  426.2630 C.3   121  LYS121      0.0285
    133  CG         3.7070  -51.9110  424.9470 C.3   121  LYS121      0.0035
    134  CD         4.6210  -51.8830  423.7420 C.3   121  LYS121      0.0206
    135  CE         4.3110  -53.0330  422.8020 C.3   121  LYS121      0.1093
    136  NZ         2.8740  -53.0320  422.4820 N.3   121  LYS121     -0.1314
    137  N          2.2320  -53.5210  428.1730 N.am  122  ILE122     -0.1980
    138  CA         1.0090  -54.3650  428.1050 C.3   122  ILE122      0.1595
    139  C         -0.0570  -53.6410  428.9250 C.2   122  ILE122      0.2287
    140  O         -1.2320  -53.7260  428.5810 O.2   122  ILE122     -0.2864
    141  CB         1.1890  -55.8480  428.5370 C.3   122  ILE122      0.0276
    142  CG1        0.0430  -56.7180  428.0160 C.3   122  ILE122      0.0022
    143  CG2        1.5010  -55.9640  430.0300 C.3   122  ILE122      0.0022
    144  CD1        0.3490  -58.1770  428.0370 C.3   122  ILE122      0.0001
@<TRIPOS>BOND
     1     8     9    2
     2     8     7    1
     3     6     7    1
     4     1     2    1
     5     3     4    2
     6     3     2    1
     7     7    10    1
     8     2     5    1
     9    10    11    1
    10    22    23    1
    11    22    19    1
    12    18    19    1
    13    20    19    1
    14    20    21    2
    15    24    23    1
    16    24    25    1
    17    11    13   ar
    18    11    12   ar
    19    13    15   ar
    20    25    26    1
    21    12    14   ar
    22    15    16   ar
    23    14    16   ar
    24    16    17    1
    25    45    43   ar
    26    39    40    2
    27    39    38    1
    28    27    28    1
    29    43    42    1
    30    43    44   ar
    31    63    62    1
    32    38    41    1
    33    38    37    1
    34    42    41    1
    35    29    28    1
    36    29    30    2
    37    31    28    1
    38    31    32    1
    39    33    32   ar
    40    33    35   ar
    41    62    64    1
    42    62    61    1
    43    32    34   ar
    44    35    36   ar
    45    61    58    1
    46    34    36   ar
    47    78    77   ar
    48   105   104    1
    49    58    57    1
    50    58    59    1
    51    68    67    2
    52   104   106    1
    53   104   101    1
    54    75    74    2
    55    57    48   am
    56   103   102    2
    57    77    76    1
    58    77    79   ar
    59    60    59    2
    60    73    76    1
    61    73    74    1
    62    73    72    1
    63   136   135    1
    64    59    65   am
    65    52    54   ar
    66    52    51   ar
    67   118   117    1
    68    54    56   ar
    69   135   134    1
    70    67    72   am
    71    67    66    1
    72   102   101    1
    73   101   100    1
    74    48    47    1
    75    48    49    2
    76    65    71    1
    77    65    66    1
    78    47    50    1
    79    47    46    1
    80   100    98   am
    81    71    70    1
    82    50    51    1
    83   117   115   ar
    84   117   116   ar
    85   134   133    1
    86    51    53   ar
    87   115   113   ar
    88    91    90    2
    89    66    69    1
    90    56    55   ar
    91   127   126    1
    92    86    85   ar
    93    98    97    1
    94    98    99    2
    95    70    69    1
    96   116   114   ar
    97    87    85   ar
    98    92    94    1
    99    92    93    1
   100    92    89    1
   101   113   112   ar
   102    90    96   am
   103    90    89    1
   104    97    96    1
   105   126   125    1
   106   133   132    1
   107    93    95    1
   108    53    55   ar
   109    85    84    1
   110    89    88    1
   111    88    82   am
   112   114   112   ar
   113   112   111    1
   114   132   129    1
   115    81    84    1
   116    81    82    1
   117    81    80    1
   118   125   124    1
   119    82    83    2
   120   131   130    2
   121   111   108    1
   122   124   123    1
   123   130   129    1
   124   130   137   am
   125   129   128    1
   126   123   120    1
   127   108   107    1
   128   108   109    1
   129   142   144    1
   130   142   141    1
   131   120   119    1
   132   120   121    1
   133   138   137    1
   134   138   141    1
   135   138   139    1
   136   141   143    1
   137   110   109    1
   138   140   139    2
   139   122   121    2
