@<TRIPOS>MOLECULE
tmp/5d8zB00.pdb
 109 105 0 0 0
SMALL
GASTEIGER

@<TRIPOS>ATOM
      1  N        -21.5090  -49.4850   17.1410 N.3    17  SER17      -0.1217
      2  CA       -22.6290  -50.4060   17.3020 C.3    17  SER17       0.1889
      3  C        -22.3510  -51.8670   16.9560 C.2    17  SER17       0.2288
      4  O        -23.0440  -52.7710   17.4500 O.2    17  SER17      -0.2866
      5  CB       -23.7930  -49.9430   16.4140 C.3    17  SER17       0.2089
      6  OG       -24.6070  -49.0060   17.0910 O.3    17  SER17      -0.2183
      7  N        -21.6280  -53.7010   23.0540 N.3   101  TYR101     -0.1241
      8  CA       -22.8710  -54.0200   22.3190 C.3   101  TYR101      0.1605
      9  C        -23.0000  -55.5370   22.0400 C.2   101  TYR101      0.2264
     10  O        -23.4560  -55.9510   20.9910 O.2   101  TYR101     -0.2867
     11  CB       -22.9280  -53.1810   21.0250 C.3   101  TYR101      0.0534
     12  CG       -22.8200  -51.6790   21.2770 C.ar  101  TYR101     -0.0201
     13  CD1      -21.5980  -51.0240   21.2170 C.ar  101  TYR101     -0.0009
     14  CD2      -23.9390  -50.9320   21.5830 C.ar  101  TYR101     -0.0009
     15  CE1      -21.4890  -49.6640   21.4500 C.ar  101  TYR101      0.0417
     16  CE2      -23.8470  -49.5770   21.8280 C.ar  101  TYR101      0.0417
     17  CZ       -22.6150  -48.9490   21.7570 C.ar  101  TYR101      0.1957
     18  OH       -22.5330  -47.6130   22.0180 O.3   101  TYR101     -0.2866
     19  N        -25.4800  -52.4410   26.2190 N.3   143  GLU143     -0.1245
     20  CA       -26.4670  -52.4610   25.1260 C.3   143  GLU143      0.1567
     21  C        -26.4270  -53.6040   24.0870 C.2   143  GLU143      0.2260
     22  O        -26.2090  -53.3590   22.9150 O.2   143  GLU143     -0.2867
     23  CB       -26.4230  -51.1040   24.3980 C.3   143  GLU143      0.0388
     24  CG       -26.8180  -49.9340   25.2890 C.3   143  GLU143      0.1160
     25  CD       -26.9330  -48.5880   24.5550 C.2   143  GLU143      0.3649
     26  OE1      -26.2580  -48.3700   23.5300 O.co2 143  GLU143     -0.2457
     27  OE2      -27.6990  -47.7170   25.0230 O.co2 143  GLU143     -0.2457
     28  N        -32.4380  -55.4380   22.6650 N.3   180  ASN180     -0.1225
     29  CA       -32.9650  -54.1250   22.2370 C.3   180  ASN180      0.1785
     30  C        -32.3710  -52.9420   23.0150 C.2   180  ASN180      0.2597
     31  O        -33.1040  -52.1130   23.5950 O.2   180  ASN180     -0.2718
     32  CB       -34.4940  -54.0710   22.3140 C.3   180  ASN180      0.1169
     33  CG       -35.0590  -52.8600   21.5940 C.2   180  ASN180      0.2627
     34  OD1      -34.7770  -52.6510   20.4110 O.2   180  ASN180     -0.2716
     35  ND2      -35.8430  -52.0450   22.3010 N.am  180  ASN180     -0.0877
     36  N        -31.0390  -52.8970   23.0150 N.am  181  TRP181     -0.1976
     37  CA       -30.2860  -51.8120   23.6030 C.3   181  TRP181      0.1640
     38  C        -30.5340  -51.6730   25.0990 C.2   181  TRP181      0.2290
     39  O        -30.5120  -50.5520   25.6310 O.2   181  TRP181     -0.2864
     40  CB       -30.6000  -50.4870   22.8610 C.3   181  TRP181      0.0576
     41  CG       -30.4380  -50.6510   21.4050 C.ar  181  TRP181      0.0006
     42  CD1      -31.3830  -51.0770   20.5330 C.ar  181  TRP181      0.0946
     43  CD2      -29.2350  -50.4690   20.6450 C.ar  181  TRP181      0.0152
     44  NE1      -30.8590  -51.1540   19.2620 N.ar  181  TRP181     -0.2442
     45  CE2      -29.5420  -50.7840   19.2970 C.ar  181  TRP181      0.0810
     46  CE3      -27.9400  -50.0510   20.9630 C.ar  181  TRP181      0.0012
     47  CZ2      -28.5910  -50.7050   18.2560 C.ar  181  TRP181      0.0191
     48  CZ3      -26.9890  -49.9570   19.9220 C.ar  181  TRP181      0.0001
     49  CH2      -27.3240  -50.2940   18.5850 C.ar  181  TRP181      0.0015
     50  N        -31.4240  -49.1650   30.0160 N.3   214  HIS214     -0.1241
     51  CA       -31.2310  -47.8620   29.3950 C.3   214  HIS214      0.1621
     52  C        -32.5630  -47.3560   28.9410 C.2   214  HIS214      0.2264
     53  O        -33.4370  -48.1260   28.5930 O.2   214  HIS214     -0.2867
     54  CB       -30.2870  -48.0030   28.1880 C.3   214  HIS214      0.0745
     55  CG       -28.8770  -48.2940   28.5830 C.ar  214  HIS214      0.0817
     56  ND1      -27.8280  -48.2050   27.7060 N.ar  214  HIS214     -0.2268
     57  CD2      -28.3370  -48.6210   29.7810 C.ar  214  HIS214      0.1154
     58  CE1      -26.7040  -48.4930   28.3350 C.ar  214  HIS214      0.1986
     59  NE2      -26.9850  -48.7320   29.6010 N.ar  214  HIS214     -0.2212
     60  N        -33.8130  -43.4490   26.9880 N.3   216  TYR216     -0.1241
     61  CA       -33.6460  -42.0320   26.6660 C.3   216  TYR216      0.1605
     62  C        -35.0200  -41.3900   26.4210 C.2   216  TYR216      0.2264
     63  O        -36.0330  -42.0720   26.4840 O.2   216  TYR216     -0.2867
     64  CB       -32.7060  -41.8670   25.4680 C.3   216  TYR216      0.0534
     65  CG       -31.2360  -42.2250   25.7260 C.ar  216  TYR216     -0.0201
     66  CD1      -30.3420  -41.3020   26.2670 C.ar  216  TYR216     -0.0009
     67  CD2      -30.7320  -43.4890   25.3900 C.ar  216  TYR216     -0.0009
     68  CE1      -28.9930  -41.6340   26.4730 C.ar  216  TYR216      0.0417
     69  CE2      -29.3980  -43.8230   25.5920 C.ar  216  TYR216      0.0417
     70  CZ       -28.5340  -42.8990   26.1380 C.ar  216  TYR216      0.1957
     71  OH       -27.2160  -43.2570   26.3320 O.3   216  TYR216     -0.2866
     72  N        -37.2460  -41.5280   19.3330 N.3   220  ASP220     -0.1225
     73  CA       -36.8190  -42.8670   18.9500 C.3   220  ASP220      0.1805
     74  C        -35.9990  -43.5720   20.0410 C.2   220  ASP220      0.2598
     75  O        -35.5240  -44.6890   19.8250 O.2   220  ASP220     -0.2718
     76  CB       -36.1070  -42.8700   17.5740 C.3   220  ASP220      0.1424
     77  CG       -34.9220  -41.8950   17.4940 C.2   220  ASP220      0.3668
     78  OD1      -34.6130  -41.2490   18.5060 O.co2 220  ASP220     -0.2456
     79  OD2      -34.2890  -41.7710   16.4170 O.co2 220  ASP220     -0.2456
     80  N        -35.8810  -42.9550   21.2180 N.am  221  ASN221     -0.1960
     81  CA       -35.0750  -43.5120   22.3200 C.3   221  ASN221      0.1819
     82  C        -33.5790  -43.7360   21.9480 C.2   221  ASN221      0.2622
     83  O        -32.9580  -44.7350   22.3370 O.2   221  ASN221     -0.2715
     84  CB       -35.7080  -44.8130   22.8430 C.3   221  ASN221      0.1195
     85  CG       -35.0960  -45.2850   24.1730 C.2   221  ASN221      0.2630
     86  OD1      -35.0530  -44.5450   25.1560 O.2   221  ASN221     -0.2716
     87  ND2      -34.6200  -46.5230   24.2030 N.am  221  ASN221     -0.0877
     88  N        -33.0160  -42.7950   21.1910 N.am  222  SER222     -0.1950
     89  CA       -31.6710  -42.9320   20.6480 C.3   222  SER222      0.1924
     90  C        -30.7010  -41.9950   21.3340 C.2   222  SER222      0.2314
     91  O        -29.4970  -42.0850   21.1200 O.2   222  SER222     -0.2863
     92  CB       -31.6750  -42.6320   19.1420 C.3   222  SER222      0.2116
     93  OG       -31.9330  -41.2490   18.9010 O.3   222  SER222     -0.2180
     94  N        -30.1010  -38.9870   20.4710 N.3   224  THR224     -0.1218
     95  CA       -29.3770  -38.2740   19.4190 C.3   224  THR224      0.1862
     96  C        -29.9650  -36.8770   19.1790 C.2   224  THR224      0.2287
     97  O        -29.4480  -36.1370   18.3640 O.2   224  THR224     -0.2866
     98  CB       -29.3410  -39.0820   18.0950 C.3   224  THR224      0.1770
     99  OG1      -30.6640  -39.2950   17.6110 O.3   224  THR224     -0.2211
    100  CG2      -28.6690  -40.4350   18.2790 C.3   224  THR224      0.0375
    101  N        -28.0110  -45.6680   31.7430 N.3   255  GLU255     -0.1245
    102  CA       -27.8930  -44.5900   30.7760 C.3   255  GLU255      0.1567
    103  C        -29.2660  -44.0150   30.5850 C.2   255  GLU255      0.2260
    104  O        -30.1650  -44.7150   30.1330 O.2   255  GLU255     -0.2867
    105  CB       -27.3690  -45.0850   29.4270 C.3   255  GLU255      0.0388
    106  CG       -25.8710  -45.3530   29.3260 C.3   255  GLU255      0.1160
    107  CD       -25.4790  -45.7280   27.9000 C.2   255  GLU255      0.3649
    108  OE1      -26.2740  -45.4030   26.9990 O.co2 255  GLU255     -0.2457
    109  OE2      -24.4060  -46.3380   27.6490 O.co2 255  GLU255     -0.2457
@<TRIPOS>BOND
     1     5     6    1
     2     5     2    1
     3    79    77   ar
     4     3     2    1
     5     3     4    2
     6     1     2    1
     7    77    76    1
     8    77    78   ar
     9    76    73    1
    10    99    98    1
    11    98   100    1
    12    98    95    1
    13    47    49   ar
    14    47    45   ar
    15    97    96    2
    16    49    48   ar
    17    93    92    1
    18    73    72    1
    19    73    74    1
    20    92    89    1
    21    96    95    1
    22    44    45   ar
    23    44    42   ar
    24    45    43   ar
    25    95    94    1
    26    75    74    2
    27    48    46   ar
    28    74    80   am
    29    34    33    2
    30    42    41   ar
    31    43    46   ar
    32    43    41   ar
    33    89    88    1
    34    89    90    1
    35    10     9    2
    36    11    12    1
    37    11     8    1
    38    91    90    2
    39    88    82   am
    40    13    12   ar
    41    13    15   ar
    42    80    81    1
    43    12    14   ar
    44    41    40    1
    45    15    17   ar
    46    14    16   ar
    47    33    35   am
    48    33    32    1
    49    17    16   ar
    50    17    18    1
    51    82    81    1
    52    82    83    2
    53     9     8    1
    54    29    32    1
    55    29    28    1
    56    29    30    1
    57     8     7    1
    58    81    84    1
    59    84    85    1
    60    40    37    1
    61    22    21    2
    62    36    30   am
    63    36    37    1
    64    30    31    2
    65    26    25   ar
    66    37    38    1
    67    21    20    1
    68    85    87   am
    69    85    86    2
    70    23    20    1
    71    23    24    1
    72    25    27   ar
    73    25    24    1
    74    38    39    2
    75    20    19    1
    76    67    69   ar
    77    67    65   ar
    78    64    65    1
    79    64    61    1
    80    69    70   ar
    81    65    66   ar
    82    70    71    1
    83    70    68   ar
    84    66    68   ar
    85    62    63    2
    86    62    61    1
    87    61    60    1
    88   108   107   ar
    89   109   107   ar
    90    56    58   ar
    91    56    55   ar
    92   107   106    1
    93    54    55    1
    94    54    51    1
    95    58    59   ar
    96    55    57   ar
    97    53    52    2
    98    52    51    1
    99   106   105    1
   100    51    50    1
   101   105   102    1
   102    59    57   ar
   103   104   103    2
   104   103   102    1
   105   102   101    1
