@<TRIPOS>MOLECULE
tmp/5d91A14.pdb
 85 80 0 0 0
SMALL
GASTEIGER

@<TRIPOS>ATOM
      1  N        -40.5310   10.4520   61.2490 N.3   184  PHE184     -0.1241
      2  CA       -41.7200   10.9910   60.6050 C.3   184  PHE184      0.1605
      3  C        -41.3460   12.1890   59.7270 C.2   184  PHE184      0.2264
      4  O        -41.5850   12.1700   58.5110 O.2   184  PHE184     -0.2867
      5  CB       -42.8150   11.3760   61.6020 C.3   184  PHE184      0.0534
      6  CG       -43.9840   12.0560   60.9460 C.ar  184  PHE184     -0.0203
      7  CD1      -44.8480   11.3310   60.1430 C.ar  184  PHE184     -0.0042
      8  CD2      -44.2050   13.4210   61.1180 C.ar  184  PHE184     -0.0042
      9  CE1      -45.9050   11.9600   59.5030 C.ar  184  PHE184     -0.0003
     10  CE2      -45.2720   14.0610   60.5020 C.ar  184  PHE184     -0.0003
     11  CZ       -46.1250   13.3330   59.6910 C.ar  184  PHE184     -0.0000
     12  N        -39.1890   11.4590   56.7630 N.3   187  THR187     -0.1203
     13  CA       -39.9730   10.8480   55.7060 C.3   187  THR187      0.1994
     14  C        -40.8210   11.8590   54.9280 C.2   187  THR187      0.2617
     15  O        -40.9700   11.7240   53.7210 O.2   187  THR187     -0.2717
     16  CB       -40.8680    9.7380   56.2690 C.3   187  THR187      0.1784
     17  OG1      -40.0390    8.7520   56.8860 O.3   187  THR187     -0.2211
     18  CG2      -41.6810    9.0650   55.1660 C.3   187  THR187      0.0376
     19  N        -41.3990   12.8590   55.5910 N.am  188  VAL188     -0.1979
     20  CA       -42.2250   13.7640   54.8130 C.3   188  VAL188      0.1595
     21  C        -41.3020   14.6260   53.9790 C.2   188  VAL188      0.2287
     22  O        -41.6550   15.0040   52.8680 O.2   188  VAL188     -0.2864
     23  CB       -43.1680   14.6730   55.6610 C.3   188  VAL188      0.0276
     24  CG1      -43.8260   13.8680   56.7850 C.3   188  VAL188      0.0022
     25  CG2      -42.4450   15.8300   56.2310 C.3   188  VAL188      0.0022
     26  N        -40.4160   12.4320   51.0960 N.3   191  THR191     -0.1203
     27  CA       -41.6430   12.3260   50.2970 C.3   191  THR191      0.1994
     28  C        -41.9450   13.5860   49.4880 C.2   191  THR191      0.2617
     29  O        -42.2990   13.4960   48.3200 O.2   191  THR191     -0.2717
     30  CB       -42.8430   12.0000   51.1740 C.3   191  THR191      0.1784
     31  OG1      -42.5760   10.7850   51.8820 O.3   191  THR191     -0.2211
     32  CG2      -44.0750   11.7960   50.3180 C.3   191  THR191      0.0376
     33  N        -41.7770   14.7570   50.0890 N.am  192  VAL192     -0.1979
     34  CA       -42.0170   16.0000   49.3730 C.3   192  VAL192      0.1595
     35  C        -41.0720   16.1440   48.1760 C.2   192  VAL192      0.2287
     36  O        -41.5250   16.4690   47.0830 O.2   192  VAL192     -0.2864
     37  CB       -41.8720   17.2330   50.2930 C.3   192  VAL192      0.0276
     38  CG1      -41.6410   18.4920   49.4630 C.3   192  VAL192      0.0022
     39  CG2      -43.1290   17.4160   51.1220 C.3   192  VAL192      0.0022
     40  N        -41.3000   13.9610   44.5700 N.3   195  PHE195     -0.1241
     41  CA       -42.1290   14.3870   43.4450 C.3   195  PHE195      0.1605
     42  C        -41.4400   15.3960   42.5280 C.2   195  PHE195      0.2264
     43  O        -41.9570   15.7060   41.4620 O.2   195  PHE195     -0.2867
     44  CB       -43.4580   14.9740   43.9230 C.3   195  PHE195      0.0534
     45  CG       -44.3390   14.0000   44.6470 C.ar  195  PHE195     -0.0203
     46  CD1      -44.0210   13.5420   45.9000 C.ar  195  PHE195     -0.0042
     47  CD2      -45.5300   13.5800   44.0680 C.ar  195  PHE195     -0.0042
     48  CE1      -44.8470   12.6490   46.5580 C.ar  195  PHE195     -0.0003
     49  CE2      -46.3670   12.6950   44.7210 C.ar  195  PHE195     -0.0003
     50  CZ       -46.0240   12.2270   45.9700 C.ar  195  PHE195     -0.0000
     51  N        -40.5980    3.9110   52.9200 N.3   289  LEU289     -0.1231
     52  CA       -40.9740    5.2120   53.4350 C.3   289  LEU289      0.1693
     53  C        -42.2190    5.1490   54.3060 C.2   289  LEU289      0.2591
     54  O        -42.2650    5.7890   55.3720 O.2   289  LEU289     -0.2718
     55  CB       -41.2100    6.1720   52.2840 C.3   289  LEU289      0.0284
     56  CG       -39.9140    6.5930   51.6140 C.3   289  LEU289      0.0019
     57  CD1      -40.2500    7.4570   50.4100 C.3   289  LEU289      0.0001
     58  CD2      -39.0050    7.3240   52.6270 C.3   289  LEU289      0.0001
     59  N        -43.2270    4.3890   53.8590 N.am  290  VAL290     -0.1980
     60  CA       -44.4630    4.2700   54.6310 C.3   290  VAL290      0.1595
     61  C        -44.1910    3.6300   56.0100 C.2   290  VAL290      0.2287
     62  O        -44.6450    4.1340   57.0520 O.2   290  VAL290     -0.2864
     63  CB       -45.5480    3.4420   53.8480 C.3   290  VAL290      0.0276
     64  CG1      -46.7080    3.0280   54.7630 C.3   290  VAL290      0.0022
     65  CG2      -46.0860    4.2160   52.6380 C.3   290  VAL290      0.0022
     66  N        -42.1090    5.9670   58.2530 N.3   293  GLY293     -0.1210
     67  CA       -42.9340    7.0660   58.7220 C.3   293  GLY293      0.1956
     68  C        -43.8250    6.5920   59.8500 C.2   293  GLY293      0.2611
     69  O        -43.9360    7.2490   60.8940 O.2   293  GLY293     -0.2717
     70  N        -44.4380    5.4280   59.6570 N.am  294  LEU294     -0.1979
     71  CA       -45.2780    4.8220   60.6860 C.3   294  LEU294      0.1596
     72  C        -44.4960    4.6320   61.9920 C.2   294  LEU294      0.2287
     73  O        -44.9590    5.0340   63.0520 O.2   294  LEU294     -0.2864
     74  CB       -45.8290    3.4770   60.1800 C.3   294  LEU294      0.0297
     75  CG       -47.2500    3.3700   59.5770 C.3   294  LEU294      0.0022
     76  CD1      -47.5070    4.4460   58.5620 C.3   294  LEU294      0.0001
     77  CD2      -47.4110    2.0160   58.8890 C.3   294  LEU294      0.0001
     78  N        -44.1940    7.5680   63.9080 N.3   297  LEU297     -0.1245
     79  CA       -45.4520    7.9520   64.5770 C.3   297  LEU297      0.1561
     80  C        -45.7670    7.0880   65.8020 C.2   297  LEU297      0.2260
     81  O        -46.8500    7.2110   66.4010 O.2   297  LEU297     -0.2867
     82  CB       -46.6290    7.8600   63.5900 C.3   297  LEU297      0.0270
     83  CG       -46.6450    8.9700   62.5380 C.3   297  LEU297      0.0019
     84  CD1      -47.7970    8.7840   61.5380 C.3   297  LEU297      0.0001
     85  CD2      -46.7390   10.3320   63.2230 C.3   297  LEU297      0.0001
@<TRIPOS>BOND
     1    43    42    2
     2    42    41    1
     3    41    44    1
     4    41    40    1
     5    44    45    1
     6    47    45   ar
     7    47    49   ar
     8    45    46   ar
     9    49    50   ar
    10    46    48   ar
    11    50    48   ar
    12    36    35    2
    13    35    34    1
    14    29    28    2
    15    34    33    1
    16    34    37    1
    17    38    37    1
    18    28    33   am
    19    28    27    1
    20    37    39    1
    21    27    26    1
    22    27    30    1
    23    32    30    1
    24    57    56    1
    25    30    31    1
    26    56    55    1
    27    56    58    1
    28    55    52    1
    29    65    63    1
    30    22    21    2
    31    51    52    1
    32    52    53    1
    33    15    14    2
    34    63    60    1
    35    63    64    1
    36    59    53   am
    37    59    60    1
    38    21    20    1
    39    53    54    2
    40    60    61    1
    41    20    19    1
    42    20    23    1
    43    14    19   am
    44    14    13    1
    45    18    16    1
    46    23    25    1
    47    23    24    1
    48    13    16    1
    49    13    12    1
    50    61    62    2
    51    16    17    1
    52    66    67    1
    53     4     3    2
    54    76    75    1
    55    67    68    1
    56    77    75    1
    57     9    11   ar
    58     9     7   ar
    59    75    74    1
    60    70    68   am
    61    70    71    1
    62    11    10   ar
    63     3     2    1
    64    68    69    2
    65     7     6   ar
    66    74    71    1
    67    10     8   ar
    68     2     1    1
    69     2     5    1
    70    71    72    1
    71     6     8   ar
    72     6     5    1
    73    84    83    1
    74    72    73    2
    75    83    85    1
    76    83    82    1
    77    82    79    1
    78    78    79    1
    79    79    80    1
    80    80    81    2
