@<TRIPOS>MOLECULE
tmp/5d92A02.pdb
 84 79 0 0 0
SMALL
GASTEIGER

@<TRIPOS>ATOM
      1  N        -21.1790  -17.3630 -104.2680 N.3   152  PHE152     -0.1241
      2  CA       -20.6460  -16.0990 -103.7820 C.3   152  PHE152      0.1605
      3  C        -19.9100  -15.3130 -104.8560 C.2   152  PHE152      0.2264
      4  O        -19.4400  -14.2100 -104.5800 O.2   152  PHE152     -0.2867
      5  CB       -19.7080  -16.3060 -102.5910 C.3   152  PHE152      0.0534
      6  CG       -20.4110  -16.6140 -101.2980 C.ar  152  PHE152     -0.0203
      7  CD1      -19.6880  -16.7370 -100.1260 C.ar  152  PHE152     -0.0042
      8  CD2      -21.7880  -16.7490 -101.2440 C.ar  152  PHE152     -0.0042
      9  CE1      -20.3180  -17.0000  -98.9320 C.ar  152  PHE152     -0.0003
     10  CE2      -22.4240  -17.0240 -100.0450 C.ar  152  PHE152     -0.0003
     11  CZ       -21.6870  -17.1500  -98.8910 C.ar  152  PHE152     -0.0000
     12  N        -21.7410  -11.9110 -105.4540 N.3   155  ILE155     -0.1245
     13  CA       -21.5680  -11.0720 -104.2810 C.3   155  ILE155      0.1561
     14  C        -20.1900  -10.4410 -104.2270 C.2   155  ILE155      0.2260
     15  O        -20.0540   -9.2340 -104.0130 O.2   155  ILE155     -0.2867
     16  CB       -21.8060  -11.8840 -102.9920 C.3   155  ILE155      0.0252
     17  CG1      -23.2530  -12.3820 -102.9370 C.3   155  ILE155      0.0019
     18  CG2      -21.4510  -11.0620 -101.7650 C.3   155  ILE155      0.0019
     19  CD1      -23.6130  -13.0780 -101.6440 C.3   155  ILE155      0.0001
     20  N        -19.5540   -6.3930 -104.4640 N.3   159  LEU159     -0.1245
     21  CA       -18.8950   -5.6660 -103.3900 C.3   159  LEU159      0.1561
     22  C        -17.5510   -5.1260 -103.8410 C.2   159  LEU159      0.2260
     23  O        -17.1210   -4.0660 -103.3880 O.2   159  LEU159     -0.2867
     24  CB       -18.7230   -6.5540 -102.1580 C.3   159  LEU159      0.0270
     25  CG       -20.0140   -7.1600 -101.6090 C.3   159  LEU159      0.0019
     26  CD1      -19.7380   -7.9310 -100.3350 C.3   159  LEU159      0.0001
     27  CD2      -21.0530   -6.0780 -101.3710 C.3   159  LEU159      0.0001
     28  N        -18.1840   -4.6690  -94.0800 N.3   169  VAL169     -0.1245
     29  CA       -18.9730   -5.8910  -94.1310 C.3   169  VAL169      0.1561
     30  C        -19.1250   -6.5690  -92.7780 C.2   169  VAL169      0.2260
     31  O        -20.2310   -6.9540  -92.3930 O.2   169  VAL169     -0.2867
     32  CB       -18.3540   -6.9150  -95.0990 C.3   169  VAL169      0.0252
     33  CG1      -19.1670   -8.1930  -95.0960 C.3   169  VAL169      0.0019
     34  CG2      -18.2400   -6.3360  -96.5000 C.3   169  VAL169      0.0019
     35  N        -21.3700   -4.2640  -90.5150 N.3   172  VAL172     -0.1245
     36  CA       -22.7550   -4.2900  -90.9780 C.3   172  VAL172      0.1561
     37  C        -23.4320   -5.6190  -90.6610 C.2   172  VAL172      0.2260
     38  O        -24.5730   -5.6540  -90.1960 O.2   172  VAL172     -0.2867
     39  CB       -22.8400   -4.0250  -92.4960 C.3   172  VAL172      0.0252
     40  CG1      -24.1980   -4.4350  -93.0400 C.3   172  VAL172      0.0019
     41  CG2      -22.5730   -2.5600  -92.7910 C.3   172  VAL172      0.0019
     42  N        -29.6910  -14.2900  -92.1820 N.3   199  VAL199     -0.1231
     43  CA       -29.2880  -13.5180  -93.3530 C.3   199  VAL199      0.1692
     44  C        -27.9610  -12.7810  -93.1330 C.2   199  VAL199      0.2592
     45  O        -27.0660  -12.8390  -93.9760 O.2   199  VAL199     -0.2718
     46  CB       -30.3800  -12.4990  -93.7540 C.3   199  VAL199      0.0266
     47  CG1      -29.7900  -11.3630  -94.5760 C.3   199  VAL199      0.0020
     48  CG2      -31.4900  -13.1920  -94.5290 C.3   199  VAL199      0.0020
     49  N        -27.8320  -12.1040  -91.9940 N.am  200  PHE200     -0.1976
     50  CA       -26.6520  -11.2760  -91.7240 C.3   200  PHE200      0.1639
     51  C        -25.4380  -12.0220  -91.1530 C.2   200  PHE200      0.2290
     52  O        -24.3710  -11.4350  -90.9790 O.2   200  PHE200     -0.2864
     53  CB       -27.0260  -10.1370  -90.7740 C.3   200  PHE200      0.0560
     54  CG       -27.8100   -9.0330  -91.4270 C.ar  200  PHE200     -0.0200
     55  CD1      -27.1640   -7.9530  -92.0040 C.ar  200  PHE200     -0.0042
     56  CD2      -29.1930   -9.0700  -91.4520 C.ar  200  PHE200     -0.0042
     57  CE1      -27.8830   -6.9360  -92.5980 C.ar  200  PHE200     -0.0003
     58  CE2      -29.9160   -8.0550  -92.0440 C.ar  200  PHE200     -0.0003
     59  CZ       -29.2610   -6.9880  -92.6180 C.ar  200  PHE200     -0.0000
     60  N        -23.7620  -14.7140  -92.6630 N.3   202  PHE202     -0.1227
     61  CA       -22.7790  -15.0800  -93.6850 C.3   202  PHE202      0.1736
     62  C        -21.7580  -13.9780  -93.9810 C.2   202  PHE202      0.2596
     63  O        -20.7580  -14.1880  -94.6990 O.2   202  PHE202     -0.2718
     64  CB       -23.5140  -15.4410  -94.9760 C.3   202  PHE202      0.0547
     65  CG       -24.4150  -16.6360  -94.8500 C.ar  202  PHE202     -0.0202
     66  CD1      -24.0650  -17.7110  -94.0530 C.ar  202  PHE202     -0.0042
     67  CD2      -25.6300  -16.6690  -95.5120 C.ar  202  PHE202     -0.0042
     68  CE1      -24.9030  -18.8060  -93.9360 C.ar  202  PHE202     -0.0003
     69  CE2      -26.4710  -17.7590  -95.3970 C.ar  202  PHE202     -0.0003
     70  CZ       -26.1080  -18.8280  -94.6070 C.ar  202  PHE202     -0.0000
     71  N        -22.0040  -12.7990  -93.4240 N.am  203  SER203     -0.1952
     72  CA       -21.0510  -11.7130  -93.5420 C.3   203  SER203      0.1924
     73  C        -19.6580  -12.0420  -93.0130 C.2   203  SER203      0.2314
     74  O        -18.6990  -11.3940  -93.4090 O.2   203  SER203     -0.2863
     75  CB       -21.5810  -10.4780  -92.8140 C.3   203  SER203      0.2116
     76  OG       -22.9150  -10.1950  -93.1950 O.3   203  SER203     -0.2180
     77  N        -18.0590  -13.5160  -95.9020 N.3   206  ILE206     -0.1245
     78  CA       -17.8990  -12.4320  -96.8520 C.3   206  ILE206      0.1561
     79  C        -16.6750  -11.5910  -96.5240 C.2   206  ILE206      0.2260
     80  O        -15.8540  -11.3460  -97.3980 O.2   206  ILE206     -0.2867
     81  CB       -19.1400  -11.5360  -96.9110 C.3   206  ILE206      0.0252
     82  CG1      -20.3480  -12.3340  -97.4050 C.3   206  ILE206      0.0019
     83  CG2      -18.8810  -10.3460  -97.8150 C.3   206  ILE206      0.0019
     84  CD1      -20.1470  -12.9690  -98.7570 C.3   206  ILE206      0.0001
@<TRIPOS>BOND
     1    12    13    1
     2     3     4    2
     3     3     2    1
     4    20    21    1
     5    13    14    1
     6    13    16    1
     7     1     2    1
     8    14    15    2
     9    22    21    1
    10    22    23    2
    11     2     5    1
    12    21    24    1
    13    16    17    1
    14    16    18    1
    15    17    19    1
    16     5     6    1
    17    24    25    1
    18    25    27    1
    19    25    26    1
    20     6     8   ar
    21     6     7   ar
    22     8    10   ar
    23     7     9   ar
    24    10    11   ar
    25     9    11   ar
    26    84    82    1
    27    83    81    1
    28    82    81    1
    29    80    79    2
    30    81    78    1
    31    78    79    1
    32    78    77    1
    33    34    32    1
    34    67    69   ar
    35    67    65   ar
    36    69    70   ar
    37    32    33    1
    38    32    29    1
    39    64    65    1
    40    64    61    1
    41    65    66   ar
    42    63    62    2
    43    70    68   ar
    44    47    46    1
    45    48    46    1
    46    29    28    1
    47    29    30    1
    48    66    68   ar
    49    62    61    1
    50    62    71   am
    51    45    44    2
    52    46    43    1
    53    61    60    1
    54    72    71    1
    55    72    73    1
    56    72    75    1
    57    74    73    2
    58    43    44    1
    59    43    42    1
    60    76    75    1
    61    44    49   am
    62    40    39    1
    63    41    39    1
    64    30    31    2
    65    59    57   ar
    66    59    58   ar
    67    57    55   ar
    68    39    36    1
    69    58    56   ar
    70    55    54   ar
    71    49    50    1
    72    50    51    1
    73    50    53    1
    74    56    54   ar
    75    54    53    1
    76    51    52    2
    77    36    37    1
    78    36    35    1
    79    37    38    2
