@<TRIPOS>MOLECULE
tmp/5d92B02.pdb
 74 67 0 0 0
SMALL
GASTEIGER

@<TRIPOS>ATOM
      1  N         -2.2290  -14.5860  -43.4700 N.3   153  ILE153     -0.1245
      2  CA        -2.8440  -15.5990  -44.3150 C.3   153  ILE153      0.1561
      3  C         -1.8340  -16.3000  -45.2120 C.2   153  ILE153      0.2260
      4  O         -1.7910  -17.5330  -45.2760 O.2   153  ILE153     -0.2867
      5  CB        -3.9530  -14.9820  -45.1860 C.3   153  ILE153      0.0252
      6  CG1       -5.0850  -14.4510  -44.3040 C.3   153  ILE153      0.0019
      7  CG2       -4.4660  -15.9960  -46.1910 C.3   153  ILE153      0.0019
      8  CD1       -6.2800  -13.9430  -45.0760 C.3   153  ILE153      0.0001
      9  N         -0.8550  -20.2920  -44.8670 N.3   157  LEU157     -0.1245
     10  CA        -1.0390  -21.2150  -45.9760 C.3   157  LEU157      0.1561
     11  C          0.3040  -21.7350  -46.4600 C.2   157  LEU157      0.2260
     12  O          0.4070  -22.8740  -46.9160 O.2   157  LEU157     -0.2867
     13  CB        -1.8050  -20.5460  -47.1170 C.3   157  LEU157      0.0270
     14  CG        -3.1700  -19.9690  -46.7330 C.3   157  LEU157      0.0019
     15  CD1       -3.8940  -19.4200  -47.9540 C.3   157  LEU157      0.0001
     16  CD2       -4.0170  -21.0130  -46.0240 C.3   157  LEU157      0.0001
     17  N         -0.1120  -25.6640  -48.2760 N.3   162  VAL162     -0.1245
     18  CA        -1.1950  -25.4430  -49.2310 C.3   162  VAL162      0.1561
     19  C         -0.6960  -24.7940  -50.5200 C.2   162  VAL162      0.2260
     20  O          0.0440  -23.8120  -50.4810 O.2   162  VAL162     -0.2867
     21  CB        -2.3070  -24.5670  -48.6190 C.3   162  VAL162      0.0252
     22  CG1       -3.3790  -24.2630  -49.6510 C.3   162  VAL162      0.0019
     23  CG2       -2.9150  -25.2560  -47.4090 C.3   162  VAL162      0.0019
     24  N         -4.9240  -24.4740  -55.2640 N.3   166  ALA166     -0.1231
     25  CA        -5.9570  -24.8530  -54.3130 C.3   166  ALA166      0.1694
     26  C         -6.6780  -23.6170  -53.8010 C.2   166  ALA166      0.2591
     27  O         -7.9030  -23.5970  -53.7030 O.2   166  ALA166     -0.2718
     28  CB        -5.3590  -25.6400  -53.1610 C.3   166  ALA166      0.0304
     29  N         -5.9010  -22.5890  -53.4740 N.am  167  VAL167     -0.1980
     30  CA        -6.4550  -21.3300  -52.9950 C.3   167  VAL167      0.1595
     31  C         -7.3490  -20.6510  -54.0240 C.2   167  VAL167      0.2287
     32  O         -8.4550  -20.2090  -53.6990 O.2   167  VAL167     -0.2864
     33  CB        -5.3370  -20.3450  -52.6040 C.3   167  VAL167      0.0276
     34  CG1       -5.9310  -19.0270  -52.1480 C.3   167  VAL167      0.0022
     35  CG2       -4.4470  -20.9470  -51.5280 C.3   167  VAL167      0.0022
     36  N        -10.5990  -22.8140  -54.4460 N.3   170  VAL170     -0.1245
     37  CA       -11.4600  -22.6850  -53.2740 C.3   170  VAL170      0.1561
     38  C        -12.1330  -21.3160  -53.2180 C.2   170  VAL170      0.2260
     39  O        -13.3370  -21.2100  -52.9610 O.2   170  VAL170     -0.2867
     40  CB       -10.6680  -22.9250  -51.9700 C.3   170  VAL170      0.0252
     41  CG1      -11.4370  -22.4070  -50.7660 C.3   170  VAL170      0.0019
     42  CG2      -10.3580  -24.4030  -51.8080 C.3   170  VAL170      0.0019
     43  N        -15.6230  -12.1300  -49.0010 N.3   197  VAL197     -0.1231
     44  CA       -14.6300  -12.9280  -48.2910 C.3   197  VAL197      0.1692
     45  C        -13.7790  -13.7820  -49.2380 C.2   197  VAL197      0.2592
     46  O        -12.5520  -13.7910  -49.1370 O.2   197  VAL197     -0.2718
     47  CB       -15.2990  -13.8460  -47.2450 C.3   197  VAL197      0.0266
     48  CG1      -14.4050  -15.0240  -46.9050 C.3   197  VAL197      0.0020
     49  CG2      -15.6360  -13.0580  -45.9950 C.3   197  VAL197      0.0020
     50  N        -14.4240  -14.4790  -50.1690 N.am  198  PHE198     -0.1976
     51  CA       -13.6960  -15.4030  -51.0460 C.3   198  PHE198      0.1639
     52  C        -13.0480  -14.7680  -52.2840 C.2   198  PHE198      0.2290
     53  O        -12.3340  -15.4390  -53.0270 O.2   198  PHE198     -0.2864
     54  CB       -14.6310  -16.5240  -51.4970 C.3   198  PHE198      0.0560
     55  CG       -14.9120  -17.5470  -50.4340 C.ar  198  PHE198     -0.0200
     56  CD1      -14.1090  -18.6660  -50.3010 C.ar  198  PHE198     -0.0042
     57  CD2      -15.9860  -17.3960  -49.5760 C.ar  198  PHE198     -0.0042
     58  CE1      -14.3710  -19.6110  -49.3300 C.ar  198  PHE198     -0.0003
     59  CE2      -16.2510  -18.3380  -48.6040 C.ar  198  PHE198     -0.0003
     60  CZ       -15.4430  -19.4460  -48.4810 C.ar  198  PHE198     -0.0000
     61  N         -8.9100  -14.1410  -52.5710 N.3   201  SER201     -0.1217
     62  CA        -8.1000  -15.2740  -52.9660 C.3   201  SER201      0.1889
     63  C         -7.2650  -15.0310  -54.2200 C.2   201  SER201      0.2288
     64  O         -6.2790  -15.7270  -54.4210 O.2   201  SER201     -0.2866
     65  CB        -8.9900  -16.4960  -53.1850 C.3   201  SER201      0.2089
     66  OG        -9.8550  -16.6940  -52.0810 O.3   201  SER201     -0.2183
     67  N         -4.2200  -13.5530  -52.8230 N.3   204  ILE204     -0.1245
     68  CA        -3.6130  -14.6050  -52.0220 C.3   204  ILE204      0.1561
     69  C         -2.8410  -15.5660  -52.9070 C.2   204  ILE204      0.2260
     70  O         -1.6820  -15.8630  -52.6240 O.2   204  ILE204     -0.2867
     71  CB        -4.6480  -15.3660  -51.1860 C.3   204  ILE204      0.0252
     72  CG1       -5.2770  -14.4260  -50.1570 C.3   204  ILE204      0.0019
     73  CG2       -3.9900  -16.5340  -50.4760 C.3   204  ILE204      0.0019
     74  CD1       -6.2820  -15.0950  -49.2500 C.3   204  ILE204      0.0001
@<TRIPOS>BOND
     1    24    25    1
     2    36    37    1
     3    64    63    2
     4    25    26    1
     5    25    28    1
     6    63    62    1
     7    31    32    2
     8    31    30    1
     9    26    27    2
    10    26    29   am
    11    29    30    1
    12    37    38    1
    13    37    40    1
    14    38    39    2
    15    65    62    1
    16    65    66    1
    17    53    52    2
    18    30    33    1
    19    62    61    1
    20    69    70    2
    21    69    68    1
    22    67    68    1
    23    33    34    1
    24    33    35    1
    25    52    51    1
    26    68    71    1
    27    40    42    1
    28    40    41    1
    29    54    51    1
    30    54    55    1
    31    71    73    1
    32    71    72    1
    33    51    50    1
    34    19    20    2
    35    19    18    1
    36    55    56   ar
    37    55    57   ar
    38    56    58   ar
    39    50    45   am
    40    72    74    1
    41    22    21    1
    42    57    59   ar
    43    58    60   ar
    44    45    46    2
    45    45    44    1
    46    18    21    1
    47    18    17    1
    48    43    44    1
    49    21    23    1
    50    59    60   ar
    51    44    47    1
    52    15    14    1
    53    47    48    1
    54    47    49    1
    55    13    14    1
    56    13    10    1
    57    12    11    2
    58    14    16    1
    59    11    10    1
    60     7     5    1
    61    10     9    1
    62     4     3    2
    63     3     2    1
    64     5     2    1
    65     5     6    1
    66     8     6    1
    67     2     1    1
