@<TRIPOS>MOLECULE
tmp/5d95A00.pdb
 108 101 0 0 0
SMALL
GASTEIGER

@<TRIPOS>ATOM
      1  N         37.1250    8.9650   76.4750 N.3   118  SER118     -0.1202
      2  CA        37.5250    9.1080   75.0710 C.3   118  SER118      0.2020
      3  C         36.7280   10.2140   74.3810 C.2   118  SER118      0.2619
      4  O         35.6670   10.6130   74.8570 O.2   118  SER118     -0.2717
      5  CB        37.3440    7.7860   74.3140 C.3   118  SER118      0.2103
      6  OG        35.9780    7.4270   74.2330 O.3   118  SER118     -0.2182
      7  N         37.2270   10.7020   73.2490 N.am  119  GLY119     -0.1942
      8  CA        36.4740   11.6890   72.4910 C.3   119  GLY119      0.2014
      9  C         35.2320   11.0550   71.8920 C.2   119  GLY119      0.2639
     10  O         34.1950   11.7110   71.7550 O.2   119  GLY119     -0.2714
     11  N         35.3360    9.7720   71.5550 N.am  120  THR120     -0.1950
     12  CA        34.1850    9.0020   71.0780 C.3   120  THR120      0.1897
     13  C         33.0690    9.0030   72.1210 C.2   120  THR120      0.2313
     14  O         31.9100    9.2650   71.7980 O.2   120  THR120     -0.2863
     15  CB        34.5700    7.5420   70.7360 C.3   120  THR120      0.1794
     16  OG1       35.2320    7.5150   69.4660 O.3   120  THR120     -0.2208
     17  CG2       33.3200    6.6590   70.6510 C.3   120  THR120      0.0378
     18  N         31.4940   12.5630   72.4770 N.3   123  VAL123     -0.1245
     19  CA        30.5170   12.8480   71.4270 C.3   123  VAL123      0.1561
     20  C         29.2000   12.0750   71.6350 C.2   123  VAL123      0.2260
     21  O         28.1070   12.6370   71.5120 O.2   123  VAL123     -0.2867
     22  CB        31.0990   12.5300   70.0360 C.3   123  VAL123      0.0252
     23  CG1       30.0400   12.7200   68.9420 C.3   123  VAL123      0.0019
     24  CG2       32.2990   13.4160   69.7660 C.3   123  VAL123      0.0019
     25  N         34.6350   13.2080   60.5800 N.3   146  TYR146     -0.1227
     26  CA        34.8880   12.1310   61.5460 C.3   146  TYR146      0.1736
     27  C         34.6010   12.6060   62.9620 C.2   146  TYR146      0.2595
     28  O         34.9840   13.7220   63.3320 O.2   146  TYR146     -0.2718
     29  CB        36.3340   11.6430   61.4360 C.3   146  TYR146      0.0548
     30  CG        36.7140   10.5460   62.4140 C.ar  146  TYR146     -0.0200
     31  CD1       37.5500   10.8090   63.4950 C.ar  146  TYR146     -0.0009
     32  CD2       36.2500    9.2480   62.2480 C.ar  146  TYR146     -0.0009
     33  CE1       37.9080    9.8000   64.3940 C.ar  146  TYR146      0.0417
     34  CE2       36.6030    8.2300   63.1420 C.ar  146  TYR146      0.0417
     35  CZ        37.4290    8.5150   64.2110 C.ar  146  TYR146      0.1957
     36  OH        37.7740    7.5120   65.0910 O.3   146  TYR146     -0.2866
     37  N         33.9280   11.7630   63.7460 N.am  147  HIS147     -0.1961
     38  CA        33.5500   12.1040   65.1180 C.3   147  HIS147      0.1787
     39  C         33.7540   10.9270   66.0700 C.2   147  HIS147      0.2620
     40  O         33.2140   10.9240   67.1780 O.2   147  HIS147     -0.2715
     41  CB        32.0840   12.5430   65.1960 C.3   147  HIS147      0.0785
     42  CG        31.7640   13.7670   64.3940 C.ar  147  HIS147      0.0821
     43  ND1       32.2420   15.0200   64.7200 N.ar  147  HIS147     -0.2267
     44  CD2       30.9990   13.9320   63.2890 C.ar  147  HIS147      0.1154
     45  CE1       31.7950   15.9010   63.8400 C.ar  147  HIS147      0.1986
     46  NE2       31.0360   15.2670   62.9630 N.ar  147  HIS147     -0.2212
     47  N         34.5000    9.9200   65.6360 N.am  148  GLY148     -0.1954
     48  CA        34.6940    8.7350   66.4590 C.3   148  GLY148      0.1869
     49  C         33.8640    7.5500   66.0090 C.2   148  GLY148      0.2309
     50  O         33.3050    7.5570   64.9120 O.2   148  GLY148     -0.2863
     51  N         32.1350   19.8550   63.6980 N.3   214  ASP214     -0.1239
     52  CA        33.5420   20.1110   63.9330 C.3   214  ASP214      0.1674
     53  C         33.8860   21.4350   63.2480 C.2   214  ASP214      0.2266
     54  O         33.8190   21.5200   62.0260 O.2   214  ASP214     -0.2867
     55  CB        34.3700   18.9450   63.3620 C.3   214  ASP214      0.1410
     56  CG        35.8860   19.1470   63.4790 C.2   214  ASP214      0.3668
     57  OD1       36.3770   20.2740   63.7010 O.co2 214  ASP214     -0.2456
     58  OD2       36.6000   18.1390   63.3180 O.co2 214  ASP214     -0.2456
     59  N         39.4810   18.1060   59.9710 N.3   218  ARG218     -0.1245
     60  CA        40.6790   17.5610   59.3450 C.3   218  ARG218      0.1563
     61  C         40.2980   16.7920   58.0780 C.2   218  ARG218      0.2260
     62  O         40.9750   16.8970   57.0500 O.2   218  ARG218     -0.2867
     63  CB        41.4260   16.6620   60.3500 C.3   218  ARG218      0.0307
     64  CG        42.3770   15.6380   59.7370 C.3   218  ARG218      0.0489
     65  CD        42.7670   14.5460   60.7470 C.3   218  ARG218      0.2205
     66  NE        41.6360   13.6940   61.1140 N.pl3 218  ARG218     -0.0865
     67  CZ        41.1730   12.6980   60.3600 C.cat 218  ARG218      0.5346
     68  NH1       41.7590   12.4140   59.2020 N.pl3 218  ARG218      0.1354
     69  NH2       40.1250   11.9830   60.7650 N.pl3 218  ARG218      0.1354
     70  N         32.0960   19.7080   68.0670 N.3   247  ASP247     -0.1239
     71  CA        33.1210   18.6950   68.2860 C.3   247  ASP247      0.1674
     72  C         34.4900   19.3780   68.2230 C.2   247  ASP247      0.2266
     73  O         35.0280   19.6220   67.1350 O.2   247  ASP247     -0.2867
     74  CB        33.0120   17.5720   67.2450 C.3   247  ASP247      0.1410
     75  CG        34.0310   16.4660   67.4710 C.2   247  ASP247      0.3668
     76  OD1       34.9440   16.6520   68.2970 O.co2 247  ASP247     -0.2456
     77  OD2       33.9220   15.4020   66.8250 O.co2 247  ASP247     -0.2456
     78  N         37.2270   18.0870   69.7310 N.3   249  VAL249     -0.1231
     79  CA        38.1460   17.0780   70.2620 C.3   249  VAL249      0.1692
     80  C         39.5630   17.3500   69.7580 C.2   249  VAL249      0.2591
     81  O         40.5290   17.1850   70.5020 O.2   249  VAL249     -0.2718
     82  CB        37.6820   15.6550   69.8920 C.3   249  VAL249      0.0266
     83  CG1       38.7830   14.6440   70.1270 C.3   249  VAL249      0.0020
     84  CG2       36.4350   15.2900   70.7100 C.3   249  VAL249      0.0020
     85  N         39.6660   17.8260   68.5190 N.am  250  ILE250     -0.1980
     86  CA        40.9380   18.3090   67.9710 C.3   250  ILE250      0.1595
     87  C         41.0780   19.8330   68.0710 C.2   250  ILE250      0.2287
     88  O         42.1280   20.3510   68.4710 O.2   250  ILE250     -0.2864
     89  CB        41.1110   17.9100   66.4890 C.3   250  ILE250      0.0276
     90  CG1       41.5610   16.4530   66.3710 C.3   250  ILE250      0.0022
     91  CG2       42.1530   18.7930   65.7950 C.3   250  ILE250      0.0022
     92  CD1       42.0430   16.0780   64.9810 C.3   250  ILE250      0.0001
     93  N         41.5270   14.3300   73.6160 N.3   274  LYS274     -0.1245
     94  CA        42.9060   14.4480   73.1520 C.3   274  LYS274      0.1561
     95  C         43.8130   15.3090   74.0630 C.2   274  LYS274      0.2260
     96  O         44.3700   14.7680   75.0290 O.2   274  LYS274     -0.2867
     97  CB        42.9030   14.9660   71.7010 C.3   274  LYS274      0.0271
     98  CG        42.4750   13.8580   70.7380 C.3   274  LYS274      0.0035
     99  CD        42.6670   14.2450   69.2860 C.3   274  LYS274      0.0206
    100  CE        41.9740   13.2510   68.3890 C.3   274  LYS274      0.1093
    101  NZ        42.9240   12.2290   67.8860 N.3   274  LYS274     -0.1314
    102  N         40.9580   10.1120   77.7570 N.3   282  VAL282     -0.1245
    103  CA        40.1790   11.2400   78.2250 C.3   282  VAL282      0.1561
    104  C         39.1500   11.6580   77.1850 C.2   282  VAL282      0.2260
    105  O         39.3340   11.4540   75.9780 O.2   282  VAL282     -0.2867
    106  CB        41.1000   12.4380   78.5560 C.3   282  VAL282      0.0252
    107  CG1       41.6050   13.0870   77.2900 C.3   282  VAL282      0.0019
    108  CG2       40.4060   13.4530   79.4840 C.3   282  VAL282      0.0019
@<TRIPOS>BOND
     1    62    61    2
     2    61    60    1
     3    68    67    1
     4    60    59    1
     5    60    63    1
     6    64    63    1
     7    64    65    1
     8    67    69    1
     9    67    66    2
    10    25    26    1
    11    65    66    1
    12    29    26    1
    13    29    30    1
    14    26    27    1
    15    54    53    2
    16    32    30   ar
    17    32    34   ar
    18    30    31   ar
    19    27    28    2
    20    27    37   am
    21    46    44   ar
    22    46    45   ar
    23    34    35   ar
    24    53    52    1
    25    44    42   ar
    26    58    56   ar
    27    55    56    1
    28    55    52    1
    29    56    57   ar
    30    31    33   ar
    31    51    52    1
    32    37    38    1
    33    45    43   ar
    34    35    33   ar
    35    35    36    1
    36    42    43   ar
    37    42    41    1
    38    50    49    2
    39    92    90    1
    40    38    41    1
    41    38    39    1
    42    47    39   am
    43    47    48    1
    44    91    89    1
    45    49    48    1
    46    39    40    2
    47    90    89    1
    48    89    86    1
    49    77    75   ar
    50    73    72    2
    51    74    75    1
    52    74    71    1
    53    75    76   ar
    54   101   100    1
    55    86    87    1
    56    86    85    1
    57    70    71    1
    58    87    88    2
    59    72    71    1
    60   100    99    1
    61    85    80   am
    62    23    22    1
    63    99    98    1
    64    16    15    1
    65    78    79    1
    66    80    79    1
    67    80    81    2
    68    24    22    1
    69    82    83    1
    70    82    79    1
    71    82    84    1
    72    22    19    1
    73    17    15    1
    74    15    12    1
    75    98    97    1
    76    12    11    1
    77    12    13    1
    78    19    20    1
    79    19    18    1
    80    21    20    2
    81    11     9   am
    82    97    94    1
    83    10     9    2
    84    14    13    2
    85     9     8    1
    86     8     7    1
    87    94    93    1
    88    94    95    1
    89     7     3   am
    90    95    96    2
    91     6     5    1
    92     5     2    1
    93     3     4    2
    94     3     2    1
    95     2     1    1
    96   105   104    2
    97   104   103    1
    98   107   106    1
    99   102   103    1
   100   103   106    1
   101   106   108    1
