@<TRIPOS>MOLECULE
tmp/5d9fA00.pdb
 163 165 0 0 0
SMALL
GASTEIGER

@<TRIPOS>ATOM
      1  N        -27.7180   36.8150  -13.6770 N.3    89  TYR89      -0.1227
      2  CA       -26.3190   37.2490  -13.6660 C.3    89  TYR89       0.1736
      3  C        -26.0510   38.1620  -12.4770 C.2    89  TYR89       0.2595
      4  O        -26.7110   39.1880  -12.3280 O.2    89  TYR89      -0.2718
      5  CB       -25.9930   38.0210  -14.9390 C.3    89  TYR89       0.0548
      6  CG       -24.5610   38.5230  -15.0140 C.ar   89  TYR89      -0.0200
      7  CD1      -23.4900   37.6690  -14.7950 C.ar   89  TYR89      -0.0009
      8  CD2      -24.2850   39.8370  -15.3480 C.ar   89  TYR89      -0.0009
      9  CE1      -22.1800   38.1290  -14.8840 C.ar   89  TYR89       0.0417
     10  CE2      -22.9800   40.3030  -15.4380 C.ar   89  TYR89       0.0417
     11  CZ       -21.9340   39.4450  -15.1980 C.ar   89  TYR89       0.1957
     12  OH       -20.6370   39.9010  -15.2900 O.3    89  TYR89      -0.2866
     13  N        -25.0730   37.7980  -11.6460 N.am   90  LEU90      -0.1966
     14  CA       -24.7430   38.5750  -10.4480 C.3    90  LEU90       0.1728
     15  C        -23.7290   39.6560  -10.7990 C.2    90  LEU90       0.2617
     16  O        -22.6490   39.3520  -11.3030 O.2    90  LEU90      -0.2715
     17  CB       -24.1530   37.6760   -9.3650 C.3    90  LEU90       0.0311
     18  CG       -24.9990   36.7050   -8.5240 C.3    90  LEU90       0.0022
     19  CD1      -26.2620   37.3810   -8.0530 C.3    90  LEU90       0.0001
     20  CD2      -25.3290   35.4320   -9.2630 C.3    90  LEU90       0.0001
     21  N        -24.0700   40.9160  -10.5420 N.am   91  SER91      -0.1936
     22  CA       -23.1490   42.0170  -10.8240 C.3    91  SER91       0.2040
     23  C        -23.5360   43.2750  -10.0590 C.2    91  SER91       0.2485
     24  O        -24.6830   43.4180   -9.6590 O.2    91  SER91      -0.2729
     25  CB       -23.1220   42.3390  -12.3190 C.3    91  SER91       0.2129
     26  OG       -24.0300   43.3750  -12.6070 O.3    91  SER91      -0.2179
     27  N        -22.5850   44.2070   -9.8800 N.am   92  PRO92      -0.2715
     28  CA       -22.9220   45.4930   -9.2510 C.3    92  PRO92       0.1536
     29  C        -23.9480   46.3290  -10.0430 C.2    92  PRO92       0.2598
     30  O        -24.5480   47.2410   -9.4690 O.2    92  PRO92      -0.2715
     31  CB       -21.5750   46.2230   -9.2140 C.3    92  PRO92       0.0310
     32  CG       -20.5400   45.1430   -9.2440 C.3    92  PRO92       0.0237
     33  CD       -21.1380   44.0800  -10.1360 C.3    92  PRO92       0.0939
     34  N        -24.1540   46.0240  -11.3240 N.am   93  GLN93      -0.1978
     35  CA       -25.0950   46.7840  -12.1570 C.3    93  GLN93       0.1601
     36  C        -26.5040   46.2540  -12.0330 C.2    93  GLN93       0.2287
     37  O        -27.4220   46.7680  -12.6780 O.2    93  GLN93      -0.2864
     38  CB       -24.7140   46.7180  -13.6410 C.3    93  GLN93       0.0394
     39  CG       -23.6180   47.6680  -14.0520 C.3    93  GLN93       0.0908
     40  CD       -22.2600   47.1380  -13.6900 C.2    93  GLN93       0.2608
     41  OE1      -21.9640   45.9640  -13.9380 O.2    93  GLN93      -0.2717
     42  NE2      -21.4230   47.9860  -13.0760 N.am   93  GLN93      -0.0878
     43  N        -19.7110   35.7820  -12.9370 N.3   116  GLY116     -0.1210
     44  CA       -18.7170   36.4820  -13.7360 C.3   116  GLY116      0.1956
     45  C        -17.3340   36.4510  -13.1070 C.2   116  GLY116      0.2612
     46  O        -17.2090   36.4510  -11.8830 O.2   116  GLY116     -0.2717
     47  N        -16.2970   36.4080  -13.9380 N.am  117  ARG117     -0.1965
     48  CA       -14.9270   36.5930  -13.4600 C.3   117  ARG117      0.1729
     49  C        -14.2670   37.6430  -14.3470 C.2   117  ARG117      0.2616
     50  O        -14.8810   38.1030  -15.3070 O.2   117  ARG117     -0.2715
     51  CB       -14.1450   35.2700  -13.4630 C.3   117  ARG117      0.0348
     52  CG       -14.4410   34.3600  -12.2490 C.3   117  ARG117      0.0492
     53  CD       -13.5010   34.6380  -11.0770 C.3   117  ARG117      0.2205
     54  NE       -14.0780   34.1820   -9.8110 N.pl3 117  ARG117     -0.0865
     55  CZ       -13.4460   34.2020   -8.6440 C.cat 117  ARG117      0.5346
     56  NH1      -12.1970   34.6550   -8.5700 N.pl3 117  ARG117      0.1354
     57  NH2      -14.0630   33.7650   -7.5480 N.pl3 117  ARG117      0.1354
     58  N        -13.0410   38.0360  -14.0110 N.am  118  TYR118     -0.1960
     59  CA       -12.3290   39.0970  -14.7400 C.3   118  TYR118      0.1771
     60  C        -13.1280   40.4140  -14.7640 C.2   118  TYR118      0.2619
     61  O        -13.6220   40.8360  -13.7170 O.2   118  TYR118     -0.2715
     62  CB       -11.9380   38.6140  -16.1390 C.3   118  TYR118      0.0574
     63  CG       -11.4280   37.1860  -16.1630 C.ar  118  TYR118     -0.0198
     64  CD1      -10.2620   36.8350  -15.5110 C.ar  118  TYR118     -0.0009
     65  CD2      -12.1300   36.1870  -16.8230 C.ar  118  TYR118     -0.0009
     66  CE1       -9.8020   35.5300  -15.5240 C.ar  118  TYR118      0.0417
     67  CE2      -11.6760   34.8780  -16.8390 C.ar  118  TYR118      0.0417
     68  CZ       -10.5170   34.5560  -16.1920 C.ar  118  TYR118      0.1957
     69  OH       -10.0700   33.2550  -16.2100 O.3   118  TYR118     -0.2866
     70  N        -13.2630   41.0660  -15.9200 N.am  119  GLU119     -0.1963
     71  CA       -14.0480   42.3030  -15.9730 C.3   119  GLU119      0.1733
     72  C        -15.5150   42.0600  -16.3110 C.2   119  GLU119      0.2616
     73  O        -16.2740   43.0080  -16.5370 O.2   119  GLU119     -0.2715
     74  CB       -13.4670   43.3350  -16.9470 C.3   119  GLU119      0.0429
     75  CG       -12.0030   43.6570  -16.7390 C.3   119  GLU119      0.1163
     76  CD       -11.6790   44.0570  -15.3220 C.2   119  GLU119      0.3649
     77  OE1      -12.4590   44.8260  -14.7190 O.co2 119  GLU119     -0.2457
     78  OE2      -10.6400   43.5980  -14.8080 O.co2 119  GLU119     -0.2457
     79  N        -15.9150   40.7950  -16.3510 N.am  120  GLY120     -0.1955
     80  CA       -17.3180   40.4800  -16.5250 C.3   120  GLY120      0.1869
     81  C        -17.5910   39.7700  -17.8330 C.2   120  GLY120      0.2309
     82  O        -16.7130   39.0990  -18.3730 O.2   120  GLY120     -0.2863
     83  N        -28.7980   40.8140  -10.8140 N.3   134  TRP134     -0.1227
     84  CA       -28.9600   41.2010   -9.4100 C.3   134  TRP134      0.1737
     85  C        -27.6140   41.5060   -8.7910 C.2   134  TRP134      0.2596
     86  O        -26.6140   40.8870   -9.1550 O.2   134  TRP134     -0.2718
     87  CB       -29.5880   40.0620   -8.6150 C.3   134  TRP134      0.0564
     88  CG       -31.0170   39.8170   -8.9310 C.ar  134  TRP134      0.0003
     89  CD1      -31.5140   39.1570  -10.0160 C.ar  134  TRP134      0.0946
     90  CD2      -32.1480   40.2200   -8.1510 C.ar  134  TRP134      0.0152
     91  NE1      -32.8900   39.1280   -9.9590 N.ar  134  TRP134     -0.2442
     92  CE2      -33.3010   39.7780   -8.8230 C.ar  134  TRP134      0.0810
     93  CE3      -32.2970   40.9240   -6.9530 C.ar  134  TRP134      0.0012
     94  CZ2      -34.5910   40.0050   -8.3280 C.ar  134  TRP134      0.0191
     95  CZ3      -33.5630   41.1400   -6.4630 C.ar  134  TRP134      0.0001
     96  CH2      -34.6970   40.6850   -7.1490 C.ar  134  TRP134      0.0015
     97  N        -27.6020   42.4470   -7.8430 N.am  135  SER135     -0.1938
     98  CA       -26.4150   42.7580   -7.0520 C.3   135  SER135      0.2055
     99  C        -26.7050   42.4520   -5.6010 C.2   135  SER135      0.2643
    100  O        -27.8120   42.7160   -5.1180 O.2   135  SER135     -0.2714
    101  CB       -26.0820   44.2430   -7.1310 C.3   135  SER135      0.2130
    102  OG       -25.1190   44.5750   -6.1490 O.3   135  SER135     -0.2179
    103  N        -25.7080   41.9350   -4.8850 N.am  136  ILE136     -0.1963
    104  CA       -25.8730   41.7070   -3.4470 C.3   136  ILE136      0.1727
    105  C        -25.5190   42.9610   -2.6460 C.2   136  ILE136      0.2616
    106  O        -25.7090   43.0160   -1.4230 O.2   136  ILE136     -0.2715
    107  CB       -25.0690   40.4910   -2.9480 C.3   136  ILE136      0.0290
    108  CG1      -23.5700   40.6830   -3.1830 C.3   136  ILE136      0.0022
    109  CG2      -25.5570   39.2260   -3.6520 C.3   136  ILE136      0.0023
    110  CD1      -22.6910   39.8980   -2.2050 C.3   136  ILE136      0.0001
    111  N        -25.0230   43.9790   -3.3370 N.am  137  GLY137     -0.1955
    112  CA       -24.7130   45.2410   -2.6830 C.3   137  GLY137      0.1869
    113  C        -23.7740   46.1060   -3.4940 C.2   137  GLY137      0.2309
    114  O        -23.1540   45.6290   -4.4480 O.2   137  GLY137     -0.2863
    115  N        -20.7850   47.1380   -3.9780 N.3   139  TYR139     -0.1227
    116  CA       -19.3440   46.9510   -3.8510 C.3   139  TYR139      0.1736
    117  C        -18.8610   46.0070   -4.9500 C.2   139  TYR139      0.2595
    118  O        -19.6560   45.2600   -5.5150 O.2   139  TYR139     -0.2718
    119  CB       -18.9740   46.4090   -2.4600 C.3   139  TYR139      0.0548
    120  CG       -19.9660   45.4040   -1.8920 C.ar  139  TYR139     -0.0200
    121  CD1      -19.9520   44.0800   -2.3000 C.ar  139  TYR139     -0.0009
    122  CD2      -20.9120   45.7850   -0.9710 C.ar  139  TYR139     -0.0009
    123  CE1      -20.8520   43.1660   -1.7910 C.ar  139  TYR139      0.0417
    124  CE2      -21.8180   44.8780   -0.4540 C.ar  139  TYR139      0.0417
    125  CZ       -21.7820   43.5730   -0.8660 C.ar  139  TYR139      0.1957
    126  OH       -22.6850   42.6750   -0.3560 O.3   139  TYR139     -0.2866
    127  N        -17.5670   46.0500   -5.2640 N.am  140  VAL140     -0.1966
    128  CA       -17.0100   45.2420   -6.3470 C.3   140  VAL140      0.1727
    129  C        -16.1810   44.0870   -5.8100 C.2   140  VAL140      0.2616
    130  O        -15.3720   44.2700   -4.8890 O.2   140  VAL140     -0.2715
    131  CB       -16.1340   46.1000   -7.2960 C.3   140  VAL140      0.0290
    132  CG1      -15.5910   45.2480   -8.4510 C.3   140  VAL140      0.0023
    133  CG2      -16.9480   47.2800   -7.8410 C.3   140  VAL140      0.0023
    134  N        -16.3810   42.9040   -6.3940 N.am  141  LEU141     -0.1963
    135  CA       -15.7150   41.6780   -5.9630 C.3   141  LEU141      0.1728
    136  C        -14.9470   41.0660   -7.1290 C.2   141  LEU141      0.2617
    137  O        -15.1550   41.4500   -8.2770 O.2   141  LEU141     -0.2715
    138  CB       -16.7420   40.6690   -5.4480 C.3   141  LEU141      0.0311
    139  CG       -17.5960   41.1400   -4.2690 C.3   141  LEU141      0.0022
    140  CD1      -18.6070   40.0650   -3.8980 C.3   141  LEU141      0.0001
    141  CD2      -16.7100   41.4800   -3.0880 C.3   141  LEU141      0.0001
    142  N        -14.0740   40.1040   -6.8410 N.am  142  THR142     -0.1937
    143  CA       -13.2500   39.4900   -7.8820 C.3   142  THR142      0.2028
    144  C        -14.0190   38.4530   -8.6900 C.2   142  THR142      0.2643
    145  O        -13.5720   38.0290   -9.7550 O.2   142  THR142     -0.2714
    146  CB       -12.0360   38.7830   -7.2860 C.3   142  THR142      0.1808
    147  OG1      -12.4850   37.6960   -6.4690 O.3   142  THR142     -0.2208
    148  CG2      -11.1910   39.7550   -6.4640 C.3   142  THR142      0.0379
    149  N        -15.1680   38.0260   -8.1730 N.am  143  GLY143     -0.1939
    150  CA       -15.9970   37.0850   -8.9100 C.3   143  GLY143      0.2014
    151  C        -17.4330   37.0720   -8.4270 C.2   143  GLY143      0.2639
    152  O        -17.7260   37.5660   -7.3260 O.2   143  GLY143     -0.2714
    153  N        -18.3220   36.5070   -9.2410 N.am  144  GLY144     -0.1954
    154  CA       -19.7260   36.3980   -8.8810 C.3   144  GLY144      0.1869
    155  C        -20.0750   35.1990   -8.0090 C.2   144  GLY144      0.2309
    156  O        -21.2340   35.0310   -7.6220 O.2   144  GLY144     -0.2863
    157  N        -21.3520   36.3070   -4.4300 N.3   147  PRO147     -0.2116
    158  CA       -22.7470   36.7500   -4.5540 C.3   147  PRO147      0.1372
    159  C        -23.7120   35.6260   -4.8940 C.2   147  PRO147      0.2244
    160  O        -24.8270   35.6410   -4.3790 O.2   147  PRO147     -0.2868
    161  CB       -22.6920   37.7590   -5.6960 C.3   147  PRO147      0.0268
    162  CG       -21.3190   38.3380   -5.6170 C.3   147  PRO147      0.0207
    163  CD       -20.4400   37.1720   -5.2080 C.3   147  PRO147      0.0892
@<TRIPOS>BOND
     1    82    81    2
     2    81    80    1
     3    74    75    1
     4    74    71    1
     5    67    65   ar
     6    67    68   ar
     7    65    63   ar
     8    75    76    1
     9    73    72    2
    10    80    79    1
    11    79    72   am
    12    72    71    1
    13    69    68    1
    14    68    66   ar
    15    63    62    1
    16    63    64   ar
    17    62    59    1
    18    71    70    1
    19    70    60   am
    20    66    64   ar
    21    10     8   ar
    22    10    11   ar
    23     8     6   ar
    24    76    78   ar
    25    76    77   ar
    26    50    49    2
    27    12    11    1
    28    11     9   ar
    29     6     5    1
    30     6     7   ar
    31     5     2    1
    32     9     7   ar
    33    60    59    1
    34    60    61    2
    35    59    58    1
    36    49    58   am
    37    49    48    1
    38    39    40    1
    39    39    38    1
    40    47    48    1
    41    47    45   am
    42    41    40    2
    43    44    45    1
    44    44    43    1
    45    40    42   am
    46     1     2    1
    47     2     3    1
    48    38    35    1
    49    51    48    1
    50    51    52    1
    51    45    46    2
    52    37    36    2
    53    26    25    1
    54     3     4    2
    55     3    13   am
    56    25    22    1
    57    52    53    1
    58    35    36    1
    59    35    34    1
    60    13    14    1
    61    34    29   am
    62    16    15    2
    63    53    54    1
    64    22    21    1
    65    22    23    1
    66    83    84    1
    67    15    21   am
    68    15    14    1
    69    14    17    1
    70    33    27    1
    71    33    32    1
    72    23    27   am
    73    23    24    2
    74    29    30    2
    75    29    28    1
    76    89    91   ar
    77    89    88   ar
    78    91    92   ar
    79    27    28    1
    80    54    55    2
    81   145   144    2
    82    84    85    1
    83    84    87    1
    84    17    18    1
    85    20    18    1
    86    28    31    1
    87    32    31    1
    88   153   154    1
    89   153   151   am
    90    86    85    2
    91    88    87    1
    92    88    90   ar
    93   150   151    1
    94   150   149    1
    95   154   155    1
    96    92    94   ar
    97    92    90   ar
    98    85    97   am
    99   144   149   am
   100   144   143    1
   101    55    56    1
   102    55    57    1
   103    18    19    1
   104   132   131    1
   105   151   152    2
   106    94    96   ar
   107   137   136    2
   108    90    93   ar
   109   155   156    2
   110   143   146    1
   111   143   142    1
   112    97    98    1
   113   133   131    1
   114   131   128    1
   115   146   147    1
   116   146   148    1
   117    96    95   ar
   118   101    98    1
   119   101   102    1
   120   136   142   am
   121   136   135    1
   122    98    99    1
   123    93    95   ar
   124   134   135    1
   125   134   129   am
   126   128   129    1
   127   128   127    1
   128   135   138    1
   129   129   130    2
   130   161   162    1
   131   161   158    1
   132   162   163    1
   133    99   100    2
   134    99   103   am
   135   118   117    2
   136   138   139    1
   137   127   117   am
   138   163   157    1
   139   117   116    1
   140   159   158    1
   141   159   160    2
   142   103   104    1
   143   158   157    1
   144   114   113    2
   145   139   140    1
   146   139   141    1
   147   115   116    1
   148   116   119    1
   149   109   107    1
   150   113   112    1
   151   104   107    1
   152   104   105    1
   153   111   112    1
   154   111   105   am
   155   108   107    1
   156   108   110    1
   157   105   106    2
   158   119   120    1
   159   121   120   ar
   160   121   123   ar
   161   120   122   ar
   162   123   125   ar
   163   122   124   ar
   164   125   124   ar
   165   125   126    1
