@<TRIPOS>MOLECULE
tmp/5d9kB00.pdb
 170 161 0 0 0
SMALL
GASTEIGER

@<TRIPOS>ATOM
      1  N        -15.3910    6.5220   65.8620 N.3    11  LYS11      -0.1245
      2  CA       -16.2230    6.3790   67.0510 C.3    11  LYS11       0.1561
      3  C        -15.8220    7.4840   68.0360 C.2    11  LYS11       0.2260
      4  O        -14.7620    8.0970   67.8780 O.2    11  LYS11      -0.2867
      5  CB       -16.0790    4.9690   67.6890 C.3    11  LYS11       0.0271
      6  CG       -14.7160    4.6640   68.3380 C.3    11  LYS11       0.0035
      7  CD       -14.7080    3.3730   69.1780 C.3    11  LYS11       0.0206
      8  CE       -13.3960    3.2020   69.9220 C.3    11  LYS11       0.1093
      9  NZ       -13.3270    1.9460   70.7280 N.3    11  LYS11      -0.1314
     10  N        -14.7080    8.3010   71.7140 N.3    13  LEU13      -0.1231
     11  CA       -13.9970    7.6300   72.8170 C.3    13  LEU13       0.1693
     12  C        -14.5490    7.9990   74.2060 C.2    13  LEU13       0.2593
     13  O        -14.6310    7.1350   75.0880 O.2    13  LEU13      -0.2718
     14  CB       -12.4760    7.9050   72.7620 C.3    13  LEU13       0.0284
     15  CG       -11.6900    7.3970   71.5570 C.3    13  LEU13       0.0019
     16  CD1      -10.3100    8.0740   71.4860 C.3    13  LEU13       0.0001
     17  CD2      -11.5300    5.8910   71.5970 C.3    13  LEU13       0.0001
     18  N        -14.8850    9.2730   74.3860 N.am   14  GLY14      -0.1942
     19  CA       -15.3730    9.8080   75.6480 C.3    14  GLY14       0.2014
     20  C        -15.8080   11.2570   75.5940 C.2    14  GLY14       0.2638
     21  O        -15.6960   11.9120   74.5650 O.2    14  GLY14      -0.2714
     22  N        -16.3210   11.7670   76.7200 N.am   15  GLN15      -0.1977
     23  CA       -16.8730   13.1140   76.8540 C.3    15  GLN15       0.1601
     24  C        -16.8820   13.4780   78.3240 C.2    15  GLN15       0.2287
     25  O        -17.1220   12.6130   79.1680 O.2    15  GLN15      -0.2864
     26  CB       -18.3110   13.1230   76.3170 C.3    15  GLN15       0.0394
     27  CG       -18.9120   14.4950   76.0410 C.3    15  GLN15       0.0908
     28  CD       -20.3420   14.3800   75.5770 C.2    15  GLN15       0.2608
     29  OE1      -20.8230   13.3130   75.2090 O.2    15  GLN15      -0.2717
     30  NE2      -21.0580   15.4820   75.5770 N.am   15  GLN15      -0.0878
     31  N        -13.7370   18.6400   79.7380 N.3    18  PHE18      -0.1241
     32  CA       -12.8300   19.0610   78.6670 C.3    18  PHE18       0.1605
     33  C        -13.6820   19.3900   77.4120 C.2    18  PHE18       0.2264
     34  O        -13.9060   20.5630   77.0880 O.2    18  PHE18      -0.2867
     35  CB       -11.7760   17.9650   78.3750 C.3    18  PHE18       0.0534
     36  CG       -12.2560   16.5260   78.4450 C.ar   18  PHE18      -0.0203
     37  CD1      -12.4260   15.8860   79.6760 C.ar   18  PHE18      -0.0042
     38  CD2      -12.5240   15.8060   77.2800 C.ar   18  PHE18      -0.0042
     39  CE1      -12.8960   14.5740   79.7420 C.ar   18  PHE18      -0.0003
     40  CE2      -12.9810   14.4880   77.3470 C.ar   18  PHE18      -0.0003
     41  CZ       -13.1680   13.8830   78.5790 C.ar   18  PHE18      -0.0000
     42  N        -14.0040   13.6150   72.8920 N.3    21  VAL21      -0.1245
     43  CA       -12.8450   12.9500   72.2900 C.3    21  VAL21       0.1561
     44  C        -13.3230   11.8630   71.3290 C.2    21  VAL21       0.2260
     45  O        -14.1120   10.9970   71.7010 O.2    21  VAL21      -0.2867
     46  CB       -11.8480   12.4120   73.3600 C.3    21  VAL21       0.0252
     47  CG1      -10.6600   11.6970   72.7190 C.3    21  VAL21       0.0019
     48  CG2      -11.3600   13.5400   74.2700 C.3    21  VAL21       0.0019
     49  N         -6.4940   10.4840   68.4080 N.3    37  ALA37      -0.1245
     50  CA        -7.5700   10.9350   69.2900 C.3    37  ALA37       0.1562
     51  C         -7.7770   12.4340   68.9370 C.2    37  ALA37       0.2260
     52  O         -6.7930   13.1800   68.8220 O.2    37  ALA37      -0.2867
     53  CB        -7.1690   10.7770   70.7510 C.3    37  ALA37       0.0290
     54  N         -9.5470   15.7810   70.2550 N.3    39  LYS39      -0.1245
     55  CA       -10.1700   16.4390   71.4070 C.3    39  LYS39       0.1561
     56  C        -10.8070   17.7200   70.8890 C.2    39  LYS39       0.2260
     57  O        -10.1180   18.5940   70.3770 O.2    39  LYS39      -0.2867
     58  CB        -9.1290   16.7280   72.5060 C.3    39  LYS39       0.0271
     59  CG        -9.7030   16.8250   73.9210 C.3    39  LYS39       0.0035
     60  CD        -8.8730   17.7520   74.8140 C.3    39  LYS39       0.0206
     61  CE        -8.0180   17.0490   75.8310 C.3    39  LYS39       0.1093
     62  NZ        -7.7390   17.9300   77.0030 N.3    39  LYS39      -0.1314
     63  N          2.1960   12.3770   75.8470 N.3    70  VAL70      -0.1245
     64  CA         1.4430   12.4290   74.5960 C.3    70  VAL70       0.1561
     65  C          1.9360   13.5160   73.6730 C.2    70  VAL70       0.2260
     66  O          2.2150   14.6450   74.1020 O.2    70  VAL70      -0.2867
     67  CB        -0.0940   12.4870   74.7100 C.3    70  VAL70       0.0252
     68  CG1       -0.6630   11.1290   75.0590 C.3    70  VAL70       0.0019
     69  CG2       -0.5540   13.5790   75.6830 C.3    70  VAL70       0.0019
     70  N         -4.1630   14.2820   68.9650 N.3    86  LEU86      -0.1231
     71  CA        -3.2050   13.6530   69.8570 C.3    86  LEU86       0.1693
     72  C         -3.0510   12.1620   69.5630 C.2    86  LEU86       0.2592
     73  O         -3.8240   11.5930   68.7950 O.2    86  LEU86      -0.2718
     74  CB        -3.7220   13.8390   71.2980 C.3    86  LEU86       0.0284
     75  CG        -3.8620   15.2870   71.8030 C.3    86  LEU86       0.0019
     76  CD1       -5.1560   15.4680   72.5880 C.3    86  LEU86       0.0001
     77  CD2       -2.6860   15.6800   72.6670 C.3    86  LEU86       0.0001
     78  N         -2.0760   11.5180   70.2090 N.am   87  ASP87      -0.1960
     79  CA        -1.8600   10.0780   70.1000 C.3    87  ASP87       0.1840
     80  C         -3.1130    9.2570   70.5180 C.2    87  ASP87       0.2622
     81  O         -3.8060    9.6150   71.4850 O.2    87  ASP87      -0.2715
     82  CB        -0.6880    9.6440   71.0040 C.3    87  ASP87       0.1450
     83  CG         0.7150    9.9880   70.5450 C.2    87  ASP87       0.3671
     84  OD1        0.9610    9.9830   69.3030 O.co2  87  ASP87      -0.2456
     85  OD2        1.6060   10.1540   71.4270 O.co2  87  ASP87      -0.2456
     86  N         -3.3600    8.1360   69.8050 N.am   88  PHE88      -0.1960
     87  CA        -4.3860    7.1620   70.1570 C.3    88  PHE88       0.1771
     88  C         -3.6510    6.0060   70.8640 C.2    88  PHE88       0.2619
     89  O         -2.6990    5.4400   70.3060 O.2    88  PHE88      -0.2715
     90  CB        -5.1880    6.7020   68.9100 C.3    88  PHE88       0.0574
     91  CG        -6.0850    5.5100   69.1400 C.ar   88  PHE88      -0.0200
     92  CD1       -7.1130    5.5600   70.0850 C.ar   88  PHE88      -0.0042
     93  CD2       -5.9020    4.3340   68.4200 C.ar   88  PHE88      -0.0042
     94  CE1       -7.9380    4.4470   70.3090 C.ar   88  PHE88      -0.0003
     95  CE2       -6.7300    3.2220   68.6460 C.ar   88  PHE88      -0.0003
     96  CZ        -7.7360    3.2850   69.5930 C.ar   88  PHE88      -0.0000
     97  N         -4.0300    5.7240   72.1210 N.am   89  LEU89      -0.1963
     98  CA        -3.3870    4.7170   72.9840 C.3    89  LEU89       0.1728
     99  C         -4.2830    3.4990   73.1700 C.2    89  LEU89       0.2616
    100  O         -5.3050    3.5810   73.8500 O.2    89  LEU89      -0.2715
    101  CB        -3.0070    5.3480   74.3520 C.3    89  LEU89       0.0311
    102  CG        -1.8600    6.4060   74.4560 C.3    89  LEU89       0.0022
    103  CD1       -0.5790    5.9260   73.8150 C.3    89  LEU89       0.0001
    104  CD2       -2.2500    7.7580   73.9170 C.3    89  LEU89       0.0001
    105  N         -3.9180    2.3750   72.5440 N.am   90  ARG90      -0.1977
    106  CA        -4.6970    1.1250   72.5770 C.3    90  ARG90       0.1597
    107  C         -4.5750    0.3770   73.9090 C.2    90  ARG90       0.2287
    108  O         -5.5760   -0.1070   74.4340 O.2    90  ARG90      -0.2864
    109  CB        -4.2930    0.1870   71.4280 C.3    90  ARG90       0.0334
    110  CG        -4.5430    0.7410   70.0520 C.3    90  ARG90       0.0492
    111  CD        -3.3900    0.4150   69.1290 C.3    90  ARG90       0.2205
    112  NE        -3.5570    1.0350   67.8080 N.pl3  90  ARG90      -0.0865
    113  CZ        -3.0930    2.2370   67.4710 C.cat  90  ARG90       0.5346
    114  NH1       -2.4270    2.9750   68.3550 N.pl3  90  ARG90       0.1354
    115  NH2       -3.2940    2.7120   66.2480 N.pl3  90  ARG90       0.1354
    116  N         -4.5650    0.7990   77.0550 N.3    92  GLY92      -0.1210
    117  CA        -5.4370    1.0220   78.2020 C.3    92  GLY92       0.1956
    118  C         -4.9240    2.1060   79.1210 C.2    92  GLY92       0.2611
    119  O         -4.3170    3.0780   78.6580 O.2    92  GLY92      -0.2717
    120  N         -5.1740    1.9530   80.4290 N.am   93  ASP93      -0.1973
    121  CA        -4.7230    2.9000   81.4570 C.3    93  ASP93       0.1709
    122  C         -4.2940    2.1950   82.7460 C.2    93  ASP93       0.2293
    123  O         -4.6300    1.0200   82.9180 O.2    93  ASP93      -0.2864
    124  CB        -5.7610    4.0190   81.7220 C.3    93  ASP93       0.1436
    125  CG        -7.2050    3.5890   81.9050 C.2    93  ASP93       0.3671
    126  OD1       -7.7650    2.9520   80.9700 O.co2  93  ASP93      -0.2456
    127  OD2       -7.8190    3.9920   82.9230 O.co2  93  ASP93      -0.2456
    128  N         -5.7430    7.5930   86.1930 N.3   136  GLU136     -0.1245
    129  CA        -6.6630    7.8170   85.0600 C.3   136  GLU136      0.1567
    130  C         -5.9150    8.5160   83.9130 C.2   136  GLU136      0.2260
    131  O         -6.2030    8.2720   82.7440 O.2   136  GLU136     -0.2867
    132  CB        -7.8660    8.6960   85.4820 C.3   136  GLU136      0.0388
    133  CG        -8.9160    8.0140   86.3490 C.3   136  GLU136      0.1160
    134  CD        -8.7920    8.1580   87.8580 C.2   136  GLU136      0.3649
    135  OE1       -7.6940    7.8710   88.3960 O.co2 136  GLU136     -0.2457
    136  OE2       -9.8130    8.4950   88.5090 O.co2 136  GLU136     -0.2457
    137  N         -1.8980    6.6690   80.5770 N.3   139  LEU139     -0.1245
    138  CA        -2.3400    5.6980   79.5820 C.3   139  LEU139      0.1561
    139  C         -1.1960    4.7790   79.1960 C.2   139  LEU139      0.2260
    140  O         -0.0370    5.1080   79.4600 O.2   139  LEU139     -0.2867
    141  CB        -2.9150    6.3890   78.3250 C.3   139  LEU139      0.0270
    142  CG        -4.1390    7.3200   78.4640 C.3   139  LEU139      0.0019
    143  CD1       -4.6460    7.7630   77.0910 C.3   139  LEU139      0.0001
    144  CD2       -5.2620    6.7030   79.3190 C.3   139  LEU139      0.0001
    145  N         -1.0240   11.8740   80.0330 N.3   149  THR149     -0.1203
    146  CA        -2.0100   12.7090   79.3110 C.3   149  THR149      0.1994
    147  C         -1.7310   14.2100   79.5010 C.2   149  THR149      0.2618
    148  O         -0.8150   14.5860   80.2250 O.2   149  THR149     -0.2717
    149  CB        -3.4520   12.3140   79.6690 C.3   149  THR149      0.1784
    150  OG1       -3.6900   12.5770   81.0430 O.3   149  THR149     -0.2211
    151  CG2       -3.7840   10.8630   79.3310 C.3   149  THR149      0.0376
    152  N         -2.4950   15.0670   78.8460 N.am  150  ASP150     -0.1959
    153  CA        -2.2460   16.5100   78.9230 C.3   150  ASP150      0.1840
    154  C         -3.1660   17.2330   79.8910 C.2   150  ASP150      0.2622
    155  O         -3.0310   18.4440   80.0880 O.2   150  ASP150     -0.2715
    156  CB        -2.3780   17.1410   77.5250 C.3   150  ASP150      0.1450
    157  CG        -3.7790   17.0340   76.9760 C.2   150  ASP150      0.3671
    158  OD1       -4.2880   15.9020   76.8930 O.co2 150  ASP150     -0.2456
    159  OD2       -4.3940   18.0980   76.6900 O.co2 150  ASP150     -0.2456
    160  N         -4.1280   16.5030   80.4440 N.am  151  PHE151     -0.1974
    161  CA        -5.1530   17.0290   81.3320 C.3   151  PHE151      0.1639
    162  C         -4.5880   17.8320   82.4920 C.2   151  PHE151      0.2290
    163  O         -5.0330   18.9520   82.6990 O.2   151  PHE151     -0.2864
    164  CB        -6.0910   15.9140   81.7960 C.3   151  PHE151      0.0560
    165  CG        -6.9590   15.3800   80.6800 C.ar  151  PHE151     -0.0200
    166  CD1       -8.1080   16.0600   80.2820 C.ar  151  PHE151     -0.0042
    167  CD2       -6.6480   14.1810   80.0490 C.ar  151  PHE151     -0.0042
    168  CE1       -8.9300   15.5480   79.2700 C.ar  151  PHE151     -0.0003
    169  CE2       -7.4730   13.6670   79.0450 C.ar  151  PHE151     -0.0003
    170  CZ        -8.6060   14.3580   78.6590 C.ar  151  PHE151     -0.0000
@<TRIPOS>BOND
     1     1     2    1
     2   115   113    1
     3     2     5    1
     4     2     3    1
     5   113   112    2
     6   113   114    1
     7     5     6    1
     8   112   111    1
     9     4     3    2
    10     6     7    1
    11    49    50    1
    12    93    95   ar
    13    93    91   ar
    14    95    96   ar
    15    73    72    2
    16    52    51    2
    17    90    91    1
    18    90    87    1
    19    51    50    1
    20    70    71    1
    21   111   110    1
    22    91    92   ar
    23     7     8    1
    24    50    53    1
    25    84    83   ar
    26    72    71    1
    27    72    78   am
    28    96    94   ar
    29    86    87    1
    30    86    80   am
    31    71    74    1
    32     8     9    1
    33   110   109    1
    34    92    94   ar
    35    79    78    1
    36    79    80    1
    37    79    82    1
    38    87    88    1
    39    54    55    1
    40    89    88    2
    41    57    56    2
    42    80    81    2
    43    83    82    1
    44    83    85   ar
    45    88    97   am
    46    56    55    1
    47    74    75    1
    48    44    45    2
    49    44    43    1
    50    55    58    1
    51   109   106    1
    52    16    15    1
    53    15    17    1
    54    15    14    1
    55    10    11    1
    56    75    76    1
    57    75    77    1
    58    97    98    1
    59    43    42    1
    60    43    46    1
    61    58    59    1
    62   105   106    1
    63   105    99   am
    64   106   107    1
    65    47    46    1
    66    14    11    1
    67    11    12    1
    68    98    99    1
    69    98   101    1
    70    99   100    2
    71    46    48    1
    72    65    66    2
    73    65    64    1
    74   103   102    1
    75   107   108    2
    76   104   102    1
    77    59    60    1
    78    12    18   am
    79    12    13    2
    80   101   102    1
    81    18    19    1
    82    21    20    2
    83    64    67    1
    84    64    63    1
    85    67    68    1
    86    67    69    1
    87    60    61    1
    88    29    28    2
    89    30    28   am
    90    28    27    1
    91    20    19    1
    92    20    22   am
    93    61    62    1
    94    27    26    1
    95    26    23    1
    96   159   157   ar
    97    22    23    1
    98    23    24    1
    99   158   157   ar
   100   157   156    1
   101   116   117    1
   102    34    33    2
   103   143   142    1
   104    38    40   ar
   105    38    36   ar
   106    40    41   ar
   107    33    32    1
   108   156   153    1
   109   117   118    1
   110    24    25    2
   111   141   142    1
   112   141   138    1
   113    35    36    1
   114    35    32    1
   115    36    37   ar
   116   142   144    1
   117    41    39   ar
   118   119   118    2
   119   170   169   ar
   120   170   168   ar
   121    32    31    1
   122   152   153    1
   123   152   147   am
   124   153   154    1
   125   169   167   ar
   126   118   120   am
   127   139   140    2
   128   139   138    1
   129   168   166   ar
   130   146   147    1
   131   146   149    1
   132   146   145    1
   133   151   149    1
   134   147   148    2
   135   138   137    1
   136   149   150    1
   137    37    39   ar
   138   154   155    2
   139   154   160   am
   140   167   165   ar
   141   166   165   ar
   142   120   121    1
   143   160   161    1
   144   165   164    1
   145   126   125   ar
   146   161   164    1
   147   161   162    1
   148   121   124    1
   149   121   122    1
   150   124   125    1
   151   125   127   ar
   152   162   163    2
   153   131   130    2
   154   122   123    2
   155   130   129    1
   156   129   132    1
   157   129   128    1
   158   132   133    1
   159   133   134    1
   160   134   135   ar
   161   134   136   ar
