@<TRIPOS>MOLECULE
tmp/5d9lA00.pdb
 129 123 0 0 0
SMALL
GASTEIGER

@<TRIPOS>ATOM
      1  N         -8.7780   11.5530   30.7950 N.3    26  LEU26      -0.1231
      2  CA        -8.1330   12.3880   29.7590 C.3    26  LEU26       0.1696
      3  C         -8.5870   11.9690   28.3630 C.2    26  LEU26       0.2632
      4  O         -8.6070   12.7930   27.4440 O.2    26  LEU26      -0.2714
      5  CB        -6.5950   12.3350   29.8330 C.3    26  LEU26       0.0284
      6  CG        -5.9330   12.8520   31.1080 C.3    26  LEU26       0.0019
      7  CD1       -4.5050   12.4440   31.1440 C.3    26  LEU26       0.0001
      8  CD2       -6.0510   14.3930   31.2440 C.3    26  LEU26       0.0001
      9  N         -8.9170   10.6880   28.2090 N.am   27  GLY27      -0.1718
     10  CA        -9.3850   10.1790   26.9320 C.2    27  GLY27       0.1480
     11  C         -9.8030    8.7310   26.9360 C.2    27  GLY27       0.2820
     12  O         -9.5450    7.9980   27.8910 O.2    27  GLY27      -0.2669
     13  N        -10.4550    8.3260   25.8440 N.am   28  GLN28      -0.1943
     14  CA       -10.9040    6.9670   25.5800 C.3    28  GLN28       0.1604
     15  C        -10.7310    6.7240   24.0760 C.2    28  GLN28       0.2287
     16  O        -11.0250    7.6000   23.2590 O.2    28  GLN28      -0.2864
     17  CB       -12.4000    6.7870   25.9230 C.3    28  GLN28       0.0394
     18  CG       -12.7740    6.7860   27.3960 C.3    28  GLN28       0.0908
     19  CD       -14.2800    6.6740   27.5880 C.2    28  GLN28       0.2608
     20  OE1      -14.9740    7.6560   27.8250 O.2    28  GLN28      -0.2717
     21  NE2      -14.8270    5.4760   27.5000 N.am   28  GLN28      -0.0878
     22  N         -7.7160    1.6550   22.1200 N.3    31  PHE31      -0.1241
     23  CA        -6.6580    1.2640   23.0580 C.3    31  PHE31       0.1605
     24  C         -7.2110    0.9210   24.4530 C.2    31  PHE31       0.2264
     25  O         -6.9520   -0.1710   24.9660 O.2    31  PHE31      -0.2867
     26  CB        -5.5830    2.3660   23.1610 C.3    31  PHE31       0.0534
     27  CG        -6.0550    3.7510   23.5490 C.ar   31  PHE31      -0.0203
     28  CD1       -6.0620    4.1550   24.8830 C.ar   31  PHE31      -0.0042
     29  CD2       -6.4290    4.6750   22.5800 C.ar   31  PHE31      -0.0042
     30  CE1       -6.5150    5.4300   25.2430 C.ar   31  PHE31      -0.0003
     31  CE2       -6.8210    5.9690   22.9390 C.ar   31  PHE31      -0.0003
     32  CZ        -6.8630    6.3380   24.2670 C.ar   31  PHE31      -0.0000
     33  N         -7.7240    6.4960   29.4150 N.3    34  VAL34      -0.1245
     34  CA        -6.6470    7.2000   30.1020 C.3    34  VAL34       0.1561
     35  C         -7.2030    8.1400   31.1710 C.2    34  VAL34       0.2260
     36  O         -8.0420    8.9750   30.8810 O.2    34  VAL34      -0.2867
     37  CB        -5.7020    7.9360   29.1100 C.3    34  VAL34       0.0252
     38  CG1       -4.6150    8.7080   29.8580 C.3    34  VAL34       0.0019
     39  CG2       -5.0800    6.9570   28.1170 C.3    34  VAL34       0.0019
     40  N         -0.3060    9.7180   33.9700 N.3    50  ALA50      -0.1245
     41  CA        -1.3900    9.2760   33.0830 C.3    50  ALA50       0.1562
     42  C         -1.5860    7.8010   33.4090 C.2    50  ALA50       0.2260
     43  O         -0.6020    7.0620   33.4510 O.2    50  ALA50      -0.2867
     44  CB        -0.9960    9.4410   31.6150 C.3    50  ALA50       0.0290
     45  N         -3.3020    4.4410   32.1090 N.3    52  LYS52      -0.1245
     46  CA        -4.0170    3.8270   30.9860 C.3    52  LYS52       0.1561
     47  C         -4.5890    2.5070   31.5010 C.2    52  LYS52       0.2260
     48  O         -3.8910    1.7360   32.1570 O.2    52  LYS52      -0.2867
     49  CB        -3.0830    3.5920   29.7870 C.3    52  LYS52       0.0271
     50  CG        -3.8050    2.9920   28.5610 C.3    52  LYS52       0.0035
     51  CD        -2.8830    2.0830   27.7660 C.3    52  LYS52       0.0206
     52  CE        -1.9340    2.8570   26.9000 C.3    52  LYS52       0.1093
     53  NZ        -0.9680    2.0050   26.1770 N.3    52  LYS52      -0.1314
     54  N          7.8500    7.8280   26.5310 N.3    83  VAL83      -0.1245
     55  CA         7.0780    7.7010   27.7850 C.3    83  VAL83       0.1561
     56  C          7.7010    6.5640   28.6090 C.2    83  VAL83       0.2260
     57  O          8.1700    5.5750   28.0400 O.2    83  VAL83      -0.2867
     58  CB         5.5270    7.4690   27.5660 C.3    83  VAL83       0.0252
     59  CG1        4.8560    8.6410   26.8660 C.3    83  VAL83       0.0019
     60  CG2        5.2440    6.1640   26.8240 C.3    83  VAL83       0.0019
     61  N          1.9230    5.8880   33.4120 N.3    99  LEU99      -0.1231
     62  CA         2.9120    6.4690   32.5210 C.3    99  LEU99       0.1693
     63  C          3.0460    7.9590   32.7550 C.2    99  LEU99       0.2592
     64  O          2.3090    8.5210   33.5770 O.2    99  LEU99      -0.2718
     65  CB         2.5040    6.1660   31.0910 C.3    99  LEU99       0.0284
     66  CG         2.4090    4.6560   30.7670 C.3    99  LEU99       0.0019
     67  CD1        1.1020    4.3290   30.1000 C.3    99  LEU99       0.0001
     68  CD2        3.5940    4.1950   29.9380 C.3    99  LEU99       0.0001
     69  N          3.9900    8.6040   32.0440 N.am  100  ASP100     -0.1960
     70  CA         4.1920   10.0400   32.2030 C.3   100  ASP100      0.1840
     71  C          2.9280   10.8110   31.8140 C.2   100  ASP100      0.2622
     72  O          2.1680   10.3560   30.9490 O.2   100  ASP100     -0.2715
     73  CB         5.3720   10.5140   31.3410 C.3   100  ASP100      0.1450
     74  CG         6.7070    9.8860   31.7070 C.2   100  ASP100      0.3671
     75  OD1        7.1360   10.0390   32.8680 O.co2 100  ASP100     -0.2456
     76  OD2        7.3470    9.2990   30.8190 O.co2 100  ASP100     -0.2456
     77  N          2.6900   11.9620   32.4830 N.am  101  PHE101     -0.1960
     78  CA         1.5870   12.8500   32.1130 C.3   101  PHE101      0.1771
     79  C          2.2130   14.0170   31.3390 C.2   101  PHE101      0.2619
     80  O          3.1320   14.6660   31.8360 O.2   101  PHE101     -0.2715
     81  CB         0.7670   13.3240   33.3210 C.3   101  PHE101      0.0574
     82  CG        -0.1960   14.4600   33.0340 C.ar  101  PHE101     -0.0200
     83  CD1       -1.1540   14.3510   32.0250 C.ar  101  PHE101     -0.0042
     84  CD2       -0.1820   15.6170   33.8090 C.ar  101  PHE101     -0.0042
     85  CE1       -2.0450   15.4030   31.7670 C.ar  101  PHE101     -0.0003
     86  CE2       -1.1080   16.6460   33.5830 C.ar  101  PHE101     -0.0003
     87  CZ        -2.0230   16.5380   32.5560 C.ar  101  PHE101     -0.0000
     88  N          1.7600   14.2200   30.0920 N.am  102  LEU102     -0.1977
     89  CA         2.2300   15.2680   29.1730 C.3   102  LEU102      0.1596
     90  C          1.1110   16.2880   29.0170 C.2   102  LEU102      0.2287
     91  O         -0.0100   15.9160   28.6640 O.2   102  LEU102     -0.2864
     92  CB         2.6140   14.6530   27.7970 C.3   102  LEU102      0.0297
     93  CG         3.8690   13.7310   27.6950 C.3   102  LEU102      0.0022
     94  CD1        5.1730   14.5000   27.8980 C.3   102  LEU102      0.0001
     95  CD2        3.7820   12.4870   28.5700 C.3   102  LEU102      0.0001
     96  N          3.6610   13.0230   21.7500 N.3   152  LEU152     -0.1245
     97  CA         3.1120   13.9620   22.7220 C.3   152  LEU152      0.1561
     98  C          4.1200   15.0580   23.0000 C.2   152  LEU152      0.2260
     99  O          5.3130   14.8530   22.7990 O.2   152  LEU152     -0.2867
    100  CB         2.8130   13.2250   24.0420 C.3   152  LEU152      0.0270
    101  CG         1.7830   12.0280   24.0400 C.3   152  LEU152      0.0019
    102  CD1        1.5090   11.5530   25.4530 C.3   152  LEU152      0.0001
    103  CD2        0.4250   12.3820   23.3610 C.3   152  LEU152      0.0001
    104  N          4.7630    7.9980   22.3590 N.3   162  THR162     -0.1203
    105  CA         3.8890    7.1450   23.1790 C.3   162  THR162      0.1994
    106  C          4.3000    5.6780   23.0090 C.2   162  THR162      0.2618
    107  O          5.0450    5.3450   22.0890 O.2   162  THR162     -0.2717
    108  CB         2.3900    7.3100   22.8210 C.3   162  THR162      0.1784
    109  OG1        2.1460    6.8460   21.4930 O.3   162  THR162     -0.2211
    110  CG2        1.8940    8.7250   22.9670 C.3   162  THR162      0.0376
    111  N          3.7820    4.7990   23.8660 N.am  163  ASP163     -0.1959
    112  CA         4.0440    3.3570   23.8090 C.3   163  ASP163      0.1840
    113  C          3.0310    2.6340   22.8770 C.2   163  ASP163      0.2622
    114  O          3.1920    1.4340   22.6550 O.2   163  ASP163     -0.2715
    115  CB         3.9120    2.7690   25.2240 C.3   163  ASP163      0.1450
    116  CG         2.5410    3.0270   25.8280 C.2   163  ASP163      0.3671
    117  OD1        2.1350    4.2010   25.8840 O.co2 163  ASP163     -0.2456
    118  OD2        1.8400    2.0470   26.1550 O.co2 163  ASP163     -0.2456
    119  N          1.9950    3.3430   22.3670 N.am  164  PHE164     -0.1974
    120  CA         0.8970    2.7640   21.5600 C.3   164  PHE164      0.1639
    121  C          1.3380    1.8840   20.3730 C.2   164  PHE164      0.2290
    122  O          0.8050    0.7930   20.2030 O.2   164  PHE164     -0.2864
    123  CB        -0.1050    3.8430   21.0680 C.3   164  PHE164      0.0560
    124  CG        -0.9350    4.4290   22.1840 C.ar  164  PHE164     -0.0200
    125  CD1       -1.8100    3.6390   22.9090 C.ar  164  PHE164     -0.0042
    126  CD2       -0.8190    5.7680   22.5290 C.ar  164  PHE164     -0.0042
    127  CE1       -2.5580    4.1830   23.9580 C.ar  164  PHE164     -0.0003
    128  CE2       -1.5310    6.2970   23.6070 C.ar  164  PHE164     -0.0003
    129  CZ        -2.4020    5.5010   24.3090 C.ar  164  PHE164     -0.0000
@<TRIPOS>BOND
     1   122   121    2
     2   121   120    1
     3   123   120    1
     4   123   124    1
     5   109   108    1
     6   120   119    1
     7    96    97    1
     8   107   106    2
     9    22    23    1
    10   124   126   ar
    11   124   125   ar
    12   104   105    1
    13   119   113   am
    14   126   128   ar
    15    29    31   ar
    16    29    27   ar
    17   114   113    2
    18    97    98    1
    19    97   100    1
    20    99    98    2
    21   108   110    1
    22   108   105    1
    23   113   112    1
    24   125   127   ar
    25    31    32   ar
    26   106   105    1
    27   106   111   am
    28    23    26    1
    29    23    24    1
    30    26    27    1
    31    16    15    2
    32   103   101    1
    33    27    28   ar
    34   128   129   ar
    35   112   111    1
    36   112   115    1
    37   127   129   ar
    38   101   100    1
    39   101   102    1
    40    15    14    1
    41    32    30   ar
    42    24    25    2
    43    28    30   ar
    44   115   116    1
    45    14    13    1
    46    14    17    1
    47   116   117   ar
    48   116   118   ar
    49    13    11   am
    50    17    18    1
    51    53    52    1
    52    54    55    1
    53    60    58    1
    54    59    58    1
    55    52    51    1
    56    10    11    1
    57    10     9    2
    58    11    12    2
    59    18    19    1
    60     4     3    2
    61    21    19   am
    62    58    55    1
    63    19    20    2
    64    93    92    1
    65    93    94    1
    66    93    95    1
    67    51    50    1
    68    55    56    1
    69    92    89    1
    70    57    56    2
    71    39    37    1
    72     9     3    1
    73     3     2    1
    74    50    49    1
    75    91    90    2
    76    90    89    1
    77    37    38    1
    78    37    34    1
    79    89    88    1
    80    33    34    1
    81     2     5    1
    82     2     1    1
    83    49    46    1
    84     5     6    1
    85    68    66    1
    86    88    79   am
    87    67    66    1
    88    34    35    1
    89    66    65    1
    90    76    74   ar
    91    36    35    2
    92    72    71    2
    93    46    47    1
    94    46    45    1
    95    65    62    1
    96     6     7    1
    97     6     8    1
    98    79    80    2
    99    79    78    1
   100    73    74    1
   101    73    70    1
   102    47    48    2
   103    44    41    1
   104    74    75   ar
   105    85    83   ar
   106    85    87   ar
   107    71    70    1
   108    71    77   am
   109    83    82   ar
   110    69    70    1
   111    69    63   am
   112    78    77    1
   113    78    81    1
   114    62    63    1
   115    62    61    1
   116    87    86   ar
   117    63    64    2
   118    82    81    1
   119    82    84   ar
   120    41    42    1
   121    41    40    1
   122    42    43    2
   123    86    84   ar
