@<TRIPOS>MOLECULE
tmp/5d9nA02.pdb
 99 99 0 0 0
SMALL
GASTEIGER

@<TRIPOS>ATOM
      1  N          2.4400  117.9430  154.1220 N.3   158  GLU158     -0.1245
      2  CA         1.7550  117.6770  155.4040 C.3   158  GLU158      0.1567
      3  C          1.6900  118.9550  156.2280 C.2   158  GLU158      0.2260
      4  O          2.4820  119.1760  157.1570 O.2   158  GLU158     -0.2867
      5  CB         2.4520  116.5610  156.1740 C.3   158  GLU158      0.0388
      6  CG         2.2360  115.1890  155.4930 C.3   158  GLU158      0.1160
      7  CD         2.7780  114.0230  156.2590 C.2   158  GLU158      0.3649
      8  OE1        3.6320  114.2500  157.1290 O.co2 158  GLU158     -0.2457
      9  OE2        2.3390  112.8720  155.9830 O.co2 158  GLU158     -0.2457
     10  N         -0.3360  116.8540  164.8690 N.3   166  TRP166     -0.1227
     11  CA        -0.6950  115.8260  163.9100 C.3   166  TRP166      0.1737
     12  C         -2.1760  115.5580  164.1030 C.2   166  TRP166      0.2595
     13  O         -2.7550  115.9810  165.1040 O.2   166  TRP166     -0.2718
     14  CB         0.1650  114.5780  164.1040 C.3   166  TRP166      0.0564
     15  CG         1.6040  114.8680  163.7660 C.ar  166  TRP166      0.0003
     16  CD1        2.6450  115.1750  164.6350 C.ar  166  TRP166      0.0946
     17  CD2        2.1480  114.9310  162.4500 C.ar  166  TRP166      0.0152
     18  NE1        3.7970  115.4310  163.9010 N.ar  166  TRP166     -0.2442
     19  CE2        3.5180  115.2510  162.5680 C.ar  166  TRP166      0.0810
     20  CE3        1.6140  114.7070  161.1790 C.ar  166  TRP166      0.0012
     21  CZ2        4.3490  115.3840  161.4570 C.ar  166  TRP166      0.0191
     22  CZ3        2.4460  114.8340  160.0790 C.ar  166  TRP166      0.0001
     23  CH2        3.7920  115.1650  160.2240 C.ar  166  TRP166      0.0015
     24  N         -2.7900  114.9250  163.1170 N.am  167  ASP167     -0.1974
     25  CA        -4.2180  114.5320  163.1840 C.3   167  ASP167      0.1709
     26  C         -5.2360  115.6940  162.9910 C.2   167  ASP167      0.2293
     27  O         -6.0510  115.6060  162.0720 O.2   167  ASP167     -0.2864
     28  CB        -4.5240  113.7880  164.4820 C.3   167  ASP167      0.1436
     29  CG        -5.7210  112.8360  164.3370 C.2   167  ASP167      0.3671
     30  OD1       -5.8240  112.1270  163.2930 O.co2 167  ASP167     -0.2456
     31  OD2       -6.5800  112.8290  165.2500 O.co2 167  ASP167     -0.2456
     32  N         -2.5020  117.8990  157.4950 N.3   207  ALA207     -0.1231
     33  CA        -1.5940  116.8270  157.9260 C.3   207  ALA207      0.1694
     34  C         -1.5840  115.6240  156.9850 C.2   207  ALA207      0.2592
     35  O         -0.9910  114.5920  157.3110 O.2   207  ALA207     -0.2718
     36  CB        -1.9630  116.3570  159.3770 C.3   207  ALA207      0.0304
     37  N         -2.2140  115.7620  155.8070 N.am  208  ALA208     -0.1966
     38  CA        -2.5230  114.6090  154.9700 C.3   208  ALA208      0.1728
     39  C         -3.2910  113.5520  155.7650 C.2   208  ALA208      0.2616
     40  O         -3.2000  112.3450  155.4760 O.2   208  ALA208     -0.2715
     41  CB        -1.2420  113.9990  154.3360 C.3   208  ALA208      0.0334
     42  N         -4.0980  114.0070  156.7230 N.am  209  ALA209     -0.1963
     43  CA        -4.8420  113.0820  157.5650 C.3   209  ALA209      0.1728
     44  C         -6.2580  112.9070  157.0250 C.2   209  ALA209      0.2616
     45  O         -6.6410  113.5280  156.0090 O.2   209  ALA209     -0.2715
     46  CB        -4.8490  113.5820  159.0450 C.3   209  ALA209      0.0334
     47  N         -7.0370  112.0380  157.6780 N.am  210  LYS210     -0.1977
     48  CA        -8.3150  111.6220  157.0970 C.3   210  LYS210      0.1596
     49  C         -9.4430  111.4330  158.1080 C.2   210  LYS210      0.2287
     50  O        -10.4050  110.7290  157.8160 O.2   210  LYS210     -0.2864
     51  CB        -8.1410  110.3500  156.2830 C.3   210  LYS210      0.0298
     52  CG        -7.3450  109.3430  156.9650 C.3   210  LYS210      0.0038
     53  CD        -6.2170  108.9600  156.0810 C.3   210  LYS210      0.0206
     54  CE        -5.3570  107.9420  156.7380 C.3   210  LYS210      0.1093
     55  NZ        -4.4080  108.4070  157.7950 N.3   210  LYS210     -0.1314
     56  N         -2.3910  110.6510  153.4220 N.3   234  HIS234     -0.1241
     57  CA        -1.3210  109.6520  153.6820 C.3   234  HIS234      0.1621
     58  C         -1.8540  108.6260  154.6800 C.2   234  HIS234      0.2264
     59  O         -2.6270  109.0110  155.5400 O.2   234  HIS234     -0.2867
     60  CB        -0.0670  110.3480  154.2440 C.3   234  HIS234      0.0745
     61  CG         0.5570  111.2940  153.2710 C.ar  234  HIS234      0.0817
     62  ND1        1.5150  112.2240  153.6250 N.ar  234  HIS234     -0.2268
     63  CD2        0.3640  111.4400  151.9350 C.ar  234  HIS234      0.1154
     64  CE1        1.8920  112.9030  152.5490 C.ar  234  HIS234      0.1986
     65  NE2        1.2040  112.4530  151.5080 N.ar  234  HIS234     -0.2212
     66  N         -0.5390  105.4350  157.1770 N.3   236  TYR236     -0.1227
     67  CA         0.3210  104.4080  157.7530 C.3   236  TYR236      0.1736
     68  C         -0.4550  103.7180  158.8790 C.2   236  TYR236      0.2595
     69  O          0.1190  103.3330  159.9000 O.2   236  TYR236     -0.2718
     70  CB         1.6060  105.0290  158.3010 C.3   236  TYR236      0.0548
     71  CG         2.4950  105.7170  157.2660 C.ar  236  TYR236     -0.0200
     72  CD1        2.1150  106.9230  156.6660 C.ar  236  TYR236     -0.0009
     73  CD2        3.7220  105.1570  156.8940 C.ar  236  TYR236     -0.0009
     74  CE1        2.9660  107.5870  155.7360 C.ar  236  TYR236      0.0417
     75  CE2        4.5600  105.8040  155.9650 C.ar  236  TYR236      0.0417
     76  CZ         4.1680  107.0070  155.4090 C.ar  236  TYR236      0.1957
     77  OH         5.0240  107.6490  154.5520 O.3   236  TYR236     -0.2866
     78  N         -1.7770  103.6050  158.6830 N.am  237  ASP237     -0.1974
     79  CA        -2.7100  103.0870  159.6950 C.3   237  ASP237      0.1709
     80  C         -2.8010  101.5810  159.6840 C.2   237  ASP237      0.2293
     81  O         -2.5890  100.9930  158.6480 O.2   237  ASP237     -0.2864
     82  CB        -4.1070  103.6480  159.4350 C.3   237  ASP237      0.1436
     83  CG        -4.1100  105.1500  159.2720 C.2   237  ASP237      0.3671
     84  OD1       -4.0730  105.6250  158.1320 O.co2 237  ASP237     -0.2456
     85  OD2       -4.1590  105.8460  160.2990 O.co2 237  ASP237     -0.2456
     86  N         -1.8750  103.2200  163.2170 N.3   239  TRP239     -0.1241
     87  CA        -0.6270  103.8250  163.6250 C.3   239  TRP239      0.1605
     88  C          0.1990  102.8480  164.4700 C.2   239  TRP239      0.2264
     89  O         -0.3220  102.2510  165.4250 O.2   239  TRP239     -0.2867
     90  CB        -0.8840  105.1020  164.4360 C.3   239  TRP239      0.0550
     91  CG         0.4160  105.6810  164.8920 C.ar  239  TRP239      0.0003
     92  CD1        0.8780  105.7240  166.1710 C.ar  239  TRP239      0.0946
     93  CD2        1.4660  106.2150  164.0660 C.ar  239  TRP239      0.0152
     94  NE1        2.1500  106.2800  166.1970 N.ar  239  TRP239     -0.2442
     95  CE2        2.5260  106.5990  164.9220 C.ar  239  TRP239      0.0810
     96  CE3        1.6100  106.4210  162.6880 C.ar  239  TRP239      0.0012
     97  CZ2        3.7230  107.1690  164.4380 C.ar  239  TRP239      0.0191
     98  CZ3        2.7940  106.9890  162.2210 C.ar  239  TRP239      0.0001
     99  CH2        3.8310  107.3570  163.1120 C.ar  239  TRP239      0.0015
@<TRIPOS>BOND
     1    65    63   ar
     2    65    64   ar
     3    63    61   ar
     4    64    62   ar
     5    61    62   ar
     6    61    60    1
     7    56    57    1
     8    57    60    1
     9    57    58    1
    10     1     2    1
    11    41    38    1
    12    77    76    1
    13    58    59    2
    14    38    39    1
    15    38    37    1
    16     2     5    1
    17     2     3    1
    18    76    74   ar
    19    76    75   ar
    20    40    39    2
    21     6     5    1
    22     6     7    1
    23    74    72   ar
    24    39    42   am
    25    37    34   am
    26    75    73   ar
    27     9     7   ar
    28    45    44    2
    29    53    54    1
    30    53    52    1
    31     3     4    2
    32     7     8   ar
    33    51    52    1
    34    51    48    1
    35    72    71   ar
    36    42    43    1
    37    54    55    1
    38    73    71   ar
    39    34    35    2
    40    34    33    1
    41    44    43    1
    42    44    47   am
    43    48    47    1
    44    48    49    1
    45    66    67    1
    46    71    70    1
    47    32    33    1
    48    43    46    1
    49    67    70    1
    50    67    68    1
    51    50    49    2
    52    33    36    1
    53    84    83   ar
    54    81    80    2
    55    78    68   am
    56    78    79    1
    57    68    69    2
    58    83    82    1
    59    83    85   ar
    60    82    79    1
    61    80    79    1
    62    22    23   ar
    63    22    20   ar
    64    23    21   ar
    65    20    17   ar
    66    21    19   ar
    67    27    26    2
    68    98    96   ar
    69    98    99   ar
    70    17    19   ar
    71    17    15   ar
    72    19    18   ar
    73    96    93   ar
    74    26    25    1
    75    99    97   ar
    76    24    25    1
    77    24    12   am
    78    25    28    1
    79    86    87    1
    80    30    29   ar
    81    87    90    1
    82    87    88    1
    83    15    14    1
    84    15    16   ar
    85    18    16   ar
    86    11    12    1
    87    11    14    1
    88    11    10    1
    89    93    91   ar
    90    93    95   ar
    91    12    13    2
    92    29    28    1
    93    29    31   ar
    94    90    91    1
    95    97    95   ar
    96    88    89    2
    97    91    92   ar
    98    95    94   ar
    99    92    94   ar
