@<TRIPOS>MOLECULE
tmp/5d9pB00.pdb
 132 130 0 0 0
SMALL
GASTEIGER

@<TRIPOS>ATOM
      1  N          2.3420   -6.7660  -52.8280 N.3    22  ASN22      -0.1240
      2  CA         2.4350   -5.8210  -53.9470 C.3    22  ASN22       0.1653
      3  C          3.8610   -5.7010  -54.4850 C.2    22  ASN22       0.2266
      4  O          4.2720   -4.6370  -54.9320 O.2    22  ASN22      -0.2867
      5  CB         1.9150   -4.4280  -53.5410 C.3    22  ASN22       0.1155
      6  CG         0.3930   -4.3640  -53.4490 C.2    22  ASN22       0.2627
      7  OD1       -0.2890   -5.3710  -53.5880 O.2    22  ASN22      -0.2716
      8  ND2       -0.1380   -3.1670  -53.2140 N.am   22  ASN22      -0.0877
      9  N          0.1420  -16.2420  -57.0680 N.3   106  HIS106     -0.1226
     10  CA        -0.7390  -15.2540  -56.4540 C.3   106  HIS106      0.1752
     11  C         -1.8290  -14.7280  -57.4010 C.2   106  HIS106      0.2596
     12  O         -2.8980  -15.3190  -57.4920 O.2   106  HIS106     -0.2718
     13  CB         0.0990  -14.1020  -55.8940 C.3   106  HIS106      0.0759
     14  CG        -0.5600  -13.3730  -54.7730 C.ar  106  HIS106      0.0818
     15  ND1       -0.6210  -13.8800  -53.4870 N.ar  106  HIS106     -0.2268
     16  CD2       -1.1680  -12.1630  -54.7300 C.ar  106  HIS106      0.1154
     17  CE1       -1.2600  -13.0220  -52.7120 C.ar  106  HIS106      0.1986
     18  NE2       -1.6110  -11.9780  -53.4430 N.ar  106  HIS106     -0.2212
     19  N         -1.5760  -13.6330  -58.1140 N.am  107  HIS107     -0.1975
     20  CA        -2.6630  -13.0270  -58.8890 C.3   107  HIS107      0.1656
     21  C         -2.9010  -13.7400  -60.2230 C.2   107  HIS107      0.2291
     22  O         -3.6840  -13.2810  -61.0680 O.2   107  HIS107     -0.2864
     23  CB        -2.4020  -11.5360  -59.0750 C.3   107  HIS107      0.0771
     24  CG        -2.6370  -10.7390  -57.8290 C.ar  107  HIS107      0.0820
     25  ND1       -3.6960  -10.9830  -56.9840 N.ar  107  HIS107     -0.2267
     26  CD2       -1.9460   -9.7110  -57.2750 C.ar  107  HIS107      0.1154
     27  CE1       -3.6510  -10.1440  -55.9640 C.ar  107  HIS107      0.1986
     28  NE2       -2.6030   -9.3570  -56.1180 N.ar  107  HIS107     -0.2212
     29  N         -3.1820  -18.7870  -54.4230 N.3   155  ASN155     -0.1225
     30  CA        -3.5920  -17.8140  -53.4200 C.3   155  ASN155      0.1785
     31  C         -5.1000  -17.7820  -53.1620 C.2   155  ASN155      0.2597
     32  O         -5.5650  -18.2170  -52.1070 O.2   155  ASN155     -0.2718
     33  CB        -3.1180  -16.4150  -53.8400 C.3   155  ASN155      0.1169
     34  CG        -3.5950  -15.3300  -52.9000 C.2   155  ASN155      0.2627
     35  OD1       -3.4940  -15.4580  -51.6780 O.2   155  ASN155     -0.2716
     36  ND2       -4.1340  -14.2540  -53.4650 N.am  155  ASN155     -0.0877
     37  N         -5.8530  -17.2860  -54.1460 N.am  156  GLU156     -0.1979
     38  CA        -7.2320  -16.8470  -53.9430 C.3   156  GLU156      0.1602
     39  C         -8.1310  -17.3620  -55.0680 C.2   156  GLU156      0.2287
     40  O         -8.6400  -16.5950  -55.8840 O.2   156  GLU156     -0.2864
     41  CB        -7.2780  -15.3070  -53.8700 C.3   156  GLU156      0.0415
     42  CG        -8.5890  -14.7120  -53.3600 C.3   156  GLU156      0.1163
     43  CD        -8.4970  -14.1930  -51.9310 C.2   156  GLU156      0.3649
     44  OE1       -7.6070  -14.6560  -51.1880 O.co2 156  GLU156     -0.2457
     45  OE2       -9.3090  -13.3090  -51.5630 O.co2 156  GLU156     -0.2457
     46  N        -17.0000  -14.4430  -54.1030 N.3   164  TRP164     -0.1241
     47  CA       -16.0620  -14.3270  -52.9860 C.3   164  TRP164      0.1605
     48  C        -16.4210  -15.1770  -51.7620 C.2   164  TRP164      0.2264
     49  O        -15.6190  -15.3210  -50.8490 O.2   164  TRP164     -0.2867
     50  CB       -15.9230  -12.8600  -52.5730 C.3   164  TRP164      0.0550
     51  CG       -15.1820  -12.0590  -53.6030 C.ar  164  TRP164      0.0003
     52  CD1      -15.7270  -11.2860  -54.5950 C.ar  164  TRP164      0.0946
     53  CD2      -13.7620  -11.9870  -53.7740 C.ar  164  TRP164      0.0152
     54  NE1      -14.7320  -10.7280  -55.3610 N.ar  164  TRP164     -0.2442
     55  CE2      -13.5170  -11.1400  -54.8790 C.ar  164  TRP164      0.0810
     56  CE3      -12.6730  -12.5510  -53.0980 C.ar  164  TRP164      0.0012
     57  CZ2      -12.2300  -10.8420  -55.3190 C.ar  164  TRP164      0.0191
     58  CZ3      -11.4000  -12.2530  -53.5350 C.ar  164  TRP164      0.0001
     59  CH2      -11.1890  -11.4100  -54.6380 C.ar  164  TRP164      0.0015
     60  N        -11.3140  -19.1580  -52.2180 N.3   205  ALA205     -0.1231
     61  CA       -11.2420  -17.7120  -51.9510 C.3   205  ALA205      0.1694
     62  C        -10.4190  -17.3610  -50.7040 C.2   205  ALA205      0.2591
     63  O        -10.4610  -16.2230  -50.2320 O.2   205  ALA205     -0.2718
     64  CB       -12.6520  -17.1300  -51.8200 C.3   205  ALA205      0.0304
     65  N         -9.6810  -18.3360  -50.1760 N.am  206  ALA206     -0.1980
     66  CA        -9.0150  -18.1980  -48.8760 C.3   206  ALA206      0.1597
     67  C        -10.0370  -17.8170  -47.8070 C.2   206  ALA206      0.2287
     68  O         -9.7180  -17.1310  -46.8300 O.2   206  ALA206     -0.2864
     69  CB        -7.8960  -17.1570  -48.9520 C.3   206  ALA206      0.0319
     70  N         -7.3480  -16.6310  -45.1970 N.3   232  HIS232     -0.1241
     71  CA        -7.0600  -15.2350  -44.8790 C.3   232  HIS232      0.1621
     72  C         -8.1080  -14.6820  -43.9280 C.2   232  HIS232      0.2264
     73  O         -9.2090  -15.2150  -43.8180 O.2   232  HIS232     -0.2867
     74  CB        -7.0210  -14.3960  -46.1570 C.3   232  HIS232      0.0745
     75  CG        -5.9630  -14.8370  -47.1220 C.ar  232  HIS232      0.0817
     76  ND1       -5.9270  -14.4060  -48.4360 N.ar  232  HIS232     -0.2268
     77  CD2       -4.9040  -15.6670  -46.9690 C.ar  232  HIS232      0.1154
     78  CE1       -4.8870  -14.9550  -49.0480 C.ar  232  HIS232      0.1986
     79  NE2       -4.2520  -15.7200  -48.1780 N.ar  232  HIS232     -0.2212
     80  N         -9.4440  -10.8410  -42.9330 N.3   234  TYR234     -0.1241
     81  CA        -9.5700   -9.4010  -42.7520 C.3   234  TYR234      0.1605
     82  C        -10.8420   -9.1790  -41.9370 C.2   234  TYR234      0.2264
     83  O        -11.7770   -8.4890  -42.3590 O.2   234  TYR234     -0.2867
     84  CB        -9.6000   -8.6710  -44.0880 C.3   234  TYR234      0.0534
     85  CG        -8.2960   -8.8150  -44.8510 C.ar  234  TYR234     -0.0201
     86  CD1       -8.0820   -9.8970  -45.6840 C.ar  234  TYR234     -0.0009
     87  CD2       -7.2750   -7.8710  -44.7130 C.ar  234  TYR234     -0.0009
     88  CE1       -6.8980  -10.0390  -46.3770 C.ar  234  TYR234      0.0417
     89  CE2       -6.0720   -8.0050  -45.4060 C.ar  234  TYR234      0.0417
     90  CZ        -5.8930   -9.0960  -46.2270 C.ar  234  TYR234      0.1957
     91  OH        -4.7300   -9.2390  -46.9380 O.3   234  TYR234     -0.2866
     92  N         -2.8740  -14.2090  -44.5240 N.3   274  GLU274     -0.1245
     93  CA        -3.0080  -12.7540  -44.6350 C.3   274  GLU274      0.1567
     94  C         -3.9990  -12.2530  -43.6080 C.2   274  GLU274      0.2260
     95  O         -5.0530  -12.8620  -43.4290 O.2   274  GLU274     -0.2867
     96  CB        -3.5210  -12.3330  -46.0090 C.3   274  GLU274      0.0388
     97  CG        -2.5720  -12.5500  -47.1690 C.3   274  GLU274      0.1160
     98  CD        -3.1770  -12.1050  -48.4960 C.2   274  GLU274      0.3649
     99  OE1       -4.0560  -11.2100  -48.4900 O.co2 274  GLU274     -0.2457
    100  OE2       -2.7400  -12.6240  -49.5510 O.co2 274  GLU274     -0.2457
    101  N         -7.5360   -3.9860  -44.1840 N.3   278  HIS278     -0.1241
    102  CA        -8.1170   -3.7840  -45.4980 C.3   278  HIS278      0.1621
    103  C         -9.5910   -4.1590  -45.5620 C.2   278  HIS278      0.2264
    104  O         -9.9640   -5.2840  -45.2610 O.2   278  HIS278     -0.2867
    105  CB        -7.3250   -4.5820  -46.5360 C.3   278  HIS278      0.0745
    106  CG        -5.8810   -4.2130  -46.5730 C.ar  278  HIS278      0.0817
    107  ND1       -5.0420   -4.4200  -45.5020 N.ar  278  HIS278     -0.2268
    108  CD2       -5.1350   -3.6210  -47.5330 C.ar  278  HIS278      0.1154
    109  CE1       -3.8350   -3.9740  -45.7990 C.ar  278  HIS278      0.1986
    110  NE2       -3.8650   -3.4870  -47.0270 N.ar  278  HIS278     -0.2212
    111  N        -10.7600   -1.5620  -50.4490 N.3   282  ASP282     -0.1239
    112  CA        -9.4190   -1.8100  -49.8910 C.3   282  ASP282      0.1674
    113  C         -8.8430   -0.6690  -49.0400 C.2   282  ASP282      0.2266
    114  O         -7.6150   -0.5190  -48.9130 O.2   282  ASP282     -0.2867
    115  CB        -8.4350   -2.1480  -51.0190 C.3   282  ASP282      0.1410
    116  CG        -7.3490   -3.1120  -50.5700 C.2   282  ASP282      0.3668
    117  OD1       -7.6790   -4.0730  -49.8450 O.co2 282  ASP282     -0.2456
    118  OD2       -6.1710   -2.9070  -50.9270 O.co2 282  ASP282     -0.2456
    119  N         -0.5890   -8.5290  -43.6780 N.3   318  TRP318     -0.1241
    120  CA        -0.5940   -8.0040  -45.0460 C.3   318  TRP318      0.1605
    121  C         -0.0440   -6.5760  -45.1400 C.2   318  TRP318      0.2264
    122  O         -0.7800   -5.6090  -44.9220 O.2   318  TRP318     -0.2867
    123  CB        -2.0070   -8.0110  -45.6500 C.3   318  TRP318      0.0550
    124  CG        -1.9580   -7.6210  -47.1100 C.ar  318  TRP318      0.0003
    125  CD1       -2.4180   -6.4620  -47.6810 C.ar  318  TRP318      0.0946
    126  CD2       -1.3810   -8.3900  -48.1670 C.ar  318  TRP318      0.0152
    127  NE1       -2.1750   -6.4790  -49.0360 N.ar  318  TRP318     -0.2442
    128  CE2       -1.5460   -7.6540  -49.3620 C.ar  318  TRP318      0.0810
    129  CE3       -0.7620   -9.6490  -48.2260 C.ar  318  TRP318      0.0012
    130  CZ2       -1.0750   -8.1140  -50.6070 C.ar  318  TRP318      0.0191
    131  CZ3       -0.3010  -10.1170  -49.4640 C.ar  318  TRP318      0.0001
    132  CH2       -0.4740   -9.3440  -50.6430 C.ar  318  TRP318      0.0015
@<TRIPOS>BOND
     1    22    21    2
     2    21    20    1
     3    23    20    1
     4    23    24    1
     5    20    19    1
     6    19    11   am
     7    24    26   ar
     8    24    25   ar
     9    12    11    2
    10    11    10    1
    11    26    28   ar
    12     9    10    1
    13    25    27   ar
    14    10    13    1
    15    28    27   ar
    16    13    14    1
    17    40    39    2
    18    54    55   ar
    19    54    52   ar
    20    57    55   ar
    21    57    59   ar
    22    39    38    1
    23     4     3    2
    24    55    53   ar
    25    14    16   ar
    26    14    15   ar
    27    16    18   ar
    28    59    58   ar
    29    52    51   ar
    30     3     2    1
    31    29    30    1
    32    37    38    1
    33    37    31   am
    34    46    47    1
    35     2     5    1
    36     2     1    1
    37    38    41    1
    38    41    42    1
    39    33    30    1
    40    33    34    1
    41    53    51   ar
    42    53    56   ar
    43    51    50    1
    44     7     6    2
    45     5     6    1
    46    58    56   ar
    47    15    17   ar
    48    36    34   am
    49     6     8   am
    50    18    17   ar
    51    30    31    1
    52    42    43    1
    53    31    32    2
    54    47    50    1
    55    47    48    1
    56    34    35    2
    57    60    61    1
    58    61    64    1
    59    61    62    1
    60    43    45   ar
    61    43    44   ar
    62    48    49    2
    63   115   116    1
    64   115   112    1
    65   118   116   ar
    66    62    63    2
    67    62    65   am
    68   132   130   ar
    69   132   131   ar
    70   130   128   ar
    71   116   117   ar
    72   111   112    1
    73    65    66    1
    74   112   113    1
    75   100    98   ar
    76   131   129   ar
    77   128   127   ar
    78   128   126   ar
    79    78    76   ar
    80    78    79   ar
    81   113   114    2
    82   127   125   ar
    83    69    66    1
    84    66    67    1
    85    98    99   ar
    86    98    97    1
    87    76    75   ar
    88   129   126   ar
    89    79    77   ar
    90   126   124   ar
    91    67    68    2
    92   125   124   ar
    93   108   110   ar
    94   108   106   ar
    95    97    96    1
    96    75    77   ar
    97    75    74    1
    98   124   123    1
    99   110   109   ar
   100    91    90    1
   101   106   105    1
   102   106   107   ar
   103   105   102    1
   104    88    90   ar
   105    88    86   ar
   106    90    89   ar
   107    74    71    1
   108    96    93    1
   109   109   107   ar
   110    86    85   ar
   111   123   120    1
   112   103   102    1
   113   103   104    2
   114   102   101    1
   115    89    87   ar
   116    70    71    1
   117   121   120    1
   118   121   122    2
   119   120   119    1
   120    71    72    1
   121    85    87   ar
   122    85    84    1
   123    93    92    1
   124    93    94    1
   125    84    81    1
   126    72    73    2
   127    94    95    2
   128    80    81    1
   129    81    82    1
   130    83    82    2
