@<TRIPOS>MOLECULE
tmp/5d9uA01.pdb
 86 80 0 0 0
SMALL
GASTEIGER

@<TRIPOS>ATOM
      1  N         17.9850   12.5040   16.9640 N.3    40  CYS40      -0.1221
      2  CA        19.2130   11.7650   17.1990 C.3    40  CYS40       0.1808
      3  C         20.3930   12.6550   16.8510 C.2    40  CYS40       0.2601
      4  O         20.2670   13.6260   16.0910 O.2    40  CYS40      -0.2717
      5  CB        19.2640   10.4870   16.3510 C.3    40  CYS40       0.0970
      6  SG        19.1400   10.8220   14.5630 S.3    40  CYS40      -0.0800
      7  N         21.5540   12.2960   17.3900 N.am   41  ALA41      -0.1965
      8  CA        22.7770   13.0020   17.0280 C.3    41  ALA41       0.1728
      9  C         23.9420   12.0240   17.0080 C.2    41  ALA41       0.2616
     10  O         24.0780   11.2040   17.9190 O.2    41  ALA41      -0.2715
     11  CB        23.0850   14.1430   17.9980 C.3    41  ALA41       0.0334
     12  N         24.7870   12.1310   15.9790 N.am   42  ASP42      -0.1971
     13  CA        26.0080   11.3360   15.8670 C.3    42  ASP42       0.1709
     14  C         27.1680   12.2470   15.5170 C.2    42  ASP42       0.2293
     15  O         27.0120   13.1800   14.7180 O.2    42  ASP42      -0.2864
     16  CB        25.9020   10.2640   14.7820 C.3    42  ASP42       0.1436
     17  CG        25.3980    8.9340   15.3070 C.2    42  ASP42       0.3671
     18  OD1       25.4580    8.6390   16.5160 O.co2  42  ASP42      -0.2456
     19  OD2       24.9520    8.1610   14.4660 O.co2  42  ASP42      -0.2456
     20  N         19.8500    6.9200   11.3190 N.3    70  ASP70      -0.1239
     21  CA        19.2220    6.6560   12.6140 C.3    70  ASP70       0.1674
     22  C         17.7620    7.0920   12.6650 C.2    70  ASP70       0.2266
     23  O         16.9930    6.5630   13.4790 O.2    70  ASP70      -0.2867
     24  CB        19.9970    7.3430   13.7280 C.3    70  ASP70       0.1410
     25  CG        21.1070    6.4870   14.2170 C.2    70  ASP70       0.3668
     26  OD1       20.8700    5.2750   14.3500 O.co2  70  ASP70      -0.2456
     27  OD2       22.2040    7.0080   14.4160 O.co2  70  ASP70      -0.2456
     28  N         13.9640   -1.1430   18.7190 N.3   142  ARG142     -0.1245
     29  CA        14.9000   -2.2670   18.7420 C.3   142  ARG142      0.1563
     30  C         14.2980   -3.4820   19.4380 C.2   142  ARG142      0.2260
     31  O         14.7140   -4.6130   19.1770 O.2   142  ARG142     -0.2867
     32  CB        16.1940   -1.8500   19.4260 C.3   142  ARG142      0.0307
     33  CG        17.0420   -0.9040   18.5810 C.3   142  ARG142      0.0489
     34  CD        18.3260   -0.5650   19.2690 C.3   142  ARG142      0.2205
     35  NE        19.0860    0.4360   18.5170 N.pl3 142  ARG142     -0.0865
     36  CZ        20.3050    0.8170   18.8640 C.cat 142  ARG142      0.5346
     37  NH1       20.8720    0.2680   19.9420 N.pl3 142  ARG142      0.1354
     38  NH2       20.9590    1.7170   18.1330 N.pl3 142  ARG142      0.1354
     39  N         17.1070   -1.8220   13.2770 N.3   196  ILE196     -0.1231
     40  CA        18.2810   -1.0320   13.6500 C.3   196  ILE196      0.1692
     41  C         19.0530   -0.7200   12.3690 C.2   196  ILE196      0.2592
     42  O         18.9500   -1.4400   11.3760 O.2   196  ILE196     -0.2718
     43  CB        19.1540   -1.8000   14.6840 C.3   196  ILE196      0.0266
     44  CG1       20.2580   -0.9000   15.2680 C.3   196  ILE196      0.0019
     45  CG2       19.7410   -3.0680   14.0600 C.3   196  ILE196      0.0020
     46  CD1       20.9650   -1.5110   16.4800 C.3   196  ILE196      0.0001
     47  N         19.8270    0.3730   12.3710 N.am  197  ASP197     -0.1974
     48  CA        20.7300    0.5840   11.2340 C.3   197  ASP197      0.1709
     49  C         22.1180    0.0350   11.5540 C.2   197  ASP197      0.2293
     50  O         22.5650    0.0400   12.7060 O.2   197  ASP197     -0.2864
     51  CB        20.8400    2.0620   10.8030 C.3   197  ASP197      0.1436
     52  CG        21.4710    2.9370   11.8440 C.2   197  ASP197      0.3671
     53  OD1       21.2170    2.6910   13.0360 O.co2 197  ASP197     -0.2456
     54  OD2       22.2130    3.8830   11.4760 O.co2 197  ASP197     -0.2456
     55  N         25.4670    0.4120   11.7040 N.3   199  SER199     -0.1202
     56  CA        26.6010    1.3230   11.7390 C.3   199  SER199      0.2020
     57  C         27.8550    0.6600   12.2930 C.2   199  SER199      0.2618
     58  O         28.9560    0.9550   11.8180 O.2   199  SER199     -0.2717
     59  CB        26.2600    2.5850   12.5530 C.3   199  SER199      0.2103
     60  OG        25.7760    2.2960   13.8440 O.3   199  SER199     -0.2182
     61  N         27.7020   -0.2720   13.2390 N.am  200  ASP200     -0.1973
     62  CA        28.8340   -0.9200   13.8920 C.3   200  ASP200      0.1709
     63  C         29.2320   -2.2510   13.2730 C.2   200  ASP200      0.2293
     64  O         30.3730   -2.6870   13.4730 O.2   200  ASP200     -0.2864
     65  CB        28.5230   -1.1530   15.3710 C.3   200  ASP200      0.1436
     66  CG        28.3540    0.1490   16.1270 C.2   200  ASP200      0.3671
     67  OD1       28.8030    1.1680   15.5970 O.co2 200  ASP200     -0.2456
     68  OD2       27.7980    0.1430   17.2370 O.co2 200  ASP200     -0.2456
     69  N         25.0690   -5.0990   15.6780 N.3   205  ASP205     -0.1239
     70  CA        23.8390   -4.3240   15.6350 C.3   205  ASP205      0.1674
     71  C         22.6150   -5.2320   15.7520 C.2   205  ASP205      0.2266
     72  O         21.6940   -4.9340   16.5170 O.2   205  ASP205     -0.2867
     73  CB        23.8340   -3.4590   14.3820 C.3   205  ASP205      0.1410
     74  CG        24.8490   -2.3160   14.4810 C.2   205  ASP205      0.3668
     75  OD1       25.0530   -1.8200   15.6000 O.co2 205  ASP205     -0.2456
     76  OD2       25.4560   -1.9250   13.4700 O.co2 205  ASP205     -0.2456
     77  N         22.0250   -5.8740   19.3480 N.3   208  HIS208     -0.1241
     78  CA        21.2490   -4.9120   20.1350 C.3   208  HIS208      0.1621
     79  C         19.7580   -5.2500   20.1040 C.2   208  HIS208      0.2264
     80  O         19.0640   -5.1820   21.1350 O.2   208  HIS208     -0.2867
     81  CB        21.4900   -3.4770   19.6190 C.3   208  HIS208      0.0745
     82  CG        22.9170   -3.0310   19.7110 C.ar  208  HIS208      0.0817
     83  ND1       23.6830   -3.2170   20.8420 N.ar  208  HIS208     -0.2268
     84  CD2       23.7080   -2.3770   18.8240 C.ar  208  HIS208      0.1154
     85  CE1       24.8960   -2.7320   20.6360 C.ar  208  HIS208      0.1986
     86  NE2       24.9350   -2.2070   19.4220 N.ar  208  HIS208     -0.2212
@<TRIPOS>BOND
     1    51    48    1
     2    51    52    1
     3    48    49    1
     4    48    47    1
     5    20    21    1
     6    42    41    2
     7    54    52   ar
     8    49    50    2
     9    55    56    1
    10    56    57    1
    11    56    59    1
    12    58    57    2
    13    52    53   ar
    14    57    61   am
    15    41    47   am
    16    41    40    1
    17    59    60    1
    18    21    22    1
    19    21    24    1
    20    22    23    2
    21    61    62    1
    22    63    64    2
    23    63    62    1
    24    39    40    1
    25    76    74   ar
    26    40    43    1
    27    24    25    1
    28    62    65    1
    29    45    43    1
    30    25    26   ar
    31    25    27   ar
    32    73    74    1
    33    73    70    1
    34    19    17   ar
    35    74    75   ar
    36     6     5    1
    37    43    44    1
    38    15    14    2
    39    16    17    1
    40    16    13    1
    41    44    46    1
    42    17    18   ar
    43    65    66    1
    44    14    13    1
    45    67    66   ar
    46    70    69    1
    47    70    71    1
    48    71    72    2
    49    13    12    1
    50    12     9   am
    51     4     3    2
    52    66    68   ar
    53     5     2    1
    54     3     2    1
    55     3     7   am
    56     1     2    1
    57     9     8    1
    58     9    10    2
    59     8     7    1
    60     8    11    1
    61    38    36    1
    62    35    36    2
    63    35    34    1
    64    33    34    1
    65    33    32    1
    66    28    29    1
    67    29    32    1
    68    29    30    1
    69    84    86   ar
    70    84    82   ar
    71    36    37    1
    72    31    30    2
    73    77    78    1
    74    86    85   ar
    75    81    82    1
    76    81    78    1
    77    82    83   ar
    78    79    78    1
    79    79    80    2
    80    85    83   ar
