@<TRIPOS>MOLECULE
tmp/5d9uA00.pdb
 132 127 0 0 0
SMALL
GASTEIGER

@<TRIPOS>ATOM
      1  N         34.0110   33.5750   12.0600 N.3     2  GLU2       -0.1231
      2  CA        32.8640   32.7140   12.3550 C.3     2  GLU2        0.1699
      3  C         31.5840   33.1880   11.6720 C.2     2  GLU2        0.2592
      4  O         30.8720   32.3970   11.0430 O.2     2  GLU2       -0.2718
      5  CB        32.6500   32.6460   13.8680 C.3     2  GLU2        0.0402
      6  CG        31.3920   31.8620   14.2890 C.3     2  GLU2        0.1161
      7  CD        30.9500   32.1890   15.7030 C.2     2  GLU2        0.3649
      8  OE1       31.7020   32.8940   16.4160 O.co2   2  GLU2       -0.2457
      9  OE2       29.8510   31.7490   16.1000 O.co2   2  GLU2       -0.2457
     10  N         31.2470   34.4710   11.8200 N.am    3  PHE3       -0.1976
     11  CA        29.9590   34.9440   11.3190 C.3     3  PHE3        0.1639
     12  C         29.9120   34.9450    9.7950 C.2     3  PHE3        0.2290
     13  O         28.8430   34.7310    9.2060 O.2     3  PHE3       -0.2864
     14  CB        29.6640   36.3330   11.8840 C.3     3  PHE3        0.0560
     15  CG        29.5720   36.3600   13.3840 C.ar    3  PHE3       -0.0200
     16  CD1       28.9900   35.3040   14.0750 C.ar    3  PHE3       -0.0042
     17  CD2       30.0800   37.4310   14.1060 C.ar    3  PHE3       -0.0042
     18  CE1       28.9100   35.3220   15.4600 C.ar    3  PHE3       -0.0003
     19  CE2       30.0030   37.4540   15.4900 C.ar    3  PHE3       -0.0003
     20  CZ        29.4170   36.4010   16.1680 C.ar    3  PHE3       -0.0000
     21  N         29.2000   31.1030    8.5710 N.3     6  ILE6       -0.1245
     22  CA        27.7980   30.7070    8.5930 C.3     6  ILE6        0.1561
     23  C         27.0550   31.3330    7.4170 C.2     6  ILE6        0.2260
     24  O         26.3560   30.6470    6.6580 O.2     6  ILE6       -0.2867
     25  CB        27.1660   31.1040    9.9400 C.3     6  ILE6        0.0252
     26  CG1       27.9690   30.4970   11.1020 C.3     6  ILE6        0.0019
     27  CG2       25.6950   30.7160    9.9760 C.3     6  ILE6        0.0019
     28  CD1       27.6950   31.1450   12.4390 C.3     6  ILE6        0.0001
     29  N         26.4520   28.2070    5.0890 N.3    10  PHE10      -0.1241
     30  CA        25.4610   27.3830    5.7680 C.3    10  PHE10       0.1605
     31  C         24.1250   28.0900    5.9150 C.2    10  PHE10       0.2264
     32  O         23.3670   27.7740    6.8280 O.2    10  PHE10      -0.2867
     33  CB        25.9690   26.9500    7.1450 C.3    10  PHE10       0.0534
     34  CG        27.2680   26.2030    7.1010 C.ar   10  PHE10      -0.0203
     35  CD1       27.3480   24.9750    6.4670 C.ar   10  PHE10      -0.0042
     36  CD2       28.4080   26.7250    7.6940 C.ar   10  PHE10      -0.0042
     37  CE1       28.5350   24.2770    6.4170 C.ar   10  PHE10      -0.0003
     38  CE2       29.6130   26.0300    7.6460 C.ar   10  PHE10      -0.0003
     39  CZ        29.6700   24.8000    7.0060 C.ar   10  PHE10      -0.0000
     40  N         14.3360   29.6380   10.7410 N.3    21  GLY21      -0.1210
     41  CA        15.5950   28.9710   10.4780 C.3    21  GLY21       0.1956
     42  C         16.7650   29.7310   11.0650 C.2    21  GLY21       0.2612
     43  O         16.6200   30.4760   12.0420 O.2    21  GLY21      -0.2717
     44  N         17.9290   29.5640   10.4290 N.am   22  ILE22      -0.1965
     45  CA        19.1820   30.1310   10.9170 C.3    22  ILE22       0.1727
     46  C         19.0830   31.6390   11.1400 C.2    22  ILE22       0.2617
     47  O         18.5590   32.3850   10.2980 O.2    22  ILE22      -0.2715
     48  CB        20.2920   29.7850    9.9090 C.3    22  ILE22       0.0290
     49  CG1       20.5560   28.2790    9.9510 C.3    22  ILE22       0.0022
     50  CG2       21.5540   30.6020   10.1650 C.3    22  ILE22       0.0023
     51  CD1       21.0850   27.7040    8.6680 C.3    22  ILE22       0.0001
     52  N         19.6090   32.0950   12.2840 N.am   23  GLY23      -0.1940
     53  CA        19.8040   33.5170   12.5300 C.3    23  GLY23       0.2014
     54  C         19.4140   33.9900   13.9200 C.2    23  GLY23       0.2639
     55  O         19.7040   35.1280   14.2960 O.2    23  GLY23      -0.2714
     56  N         18.7240   33.1470   14.6800 N.am   24  ASP24      -0.1957
     57  CA        18.3000   33.4730   16.0350 C.3    24  ASP24       0.1840
     58  C         18.9780   32.5080   17.0030 C.2    24  ASP24       0.2622
     59  O         19.7470   31.6290   16.6000 O.2    24  ASP24      -0.2715
     60  CB        16.7720   33.4060   16.1680 C.3    24  ASP24       0.1450
     61  CG        16.2050   34.5330   17.0400 C.2    24  ASP24       0.3671
     62  OD1       16.4740   34.5220   18.2600 O.co2  24  ASP24      -0.2456
     63  OD2       15.5000   35.4360   16.5110 O.co2  24  ASP24      -0.2456
     64  N         18.6470   32.6410   18.2920 N.am   25  ASP25      -0.1957
     65  CA        19.2610   31.7770   19.3030 C.3    25  ASP25       0.1840
     66  C         18.8500   30.3210   19.1450 C.2    25  ASP25       0.2622
     67  O         19.6690   29.4290   19.3940 O.2    25  ASP25      -0.2715
     68  CB        18.9320   32.3150   20.6960 C.3    25  ASP25       0.1450
     69  CG        19.3740   33.7520   20.8450 C.2    25  ASP25       0.3671
     70  OD1       20.5730   33.9780   21.1340 O.co2  25  ASP25      -0.2456
     71  OD2       18.5370   34.6480   20.6030 O.co2  25  ASP25      -0.2456
     72  N         17.6070   30.0600   18.7200 N.am   26  SER26      -0.1950
     73  CA        17.1510   28.7120   18.3770 C.3    26  SER26       0.1924
     74  C         16.3410   28.7400   17.0790 C.2    26  SER26       0.2314
     75  O         15.8410   29.7900   16.6560 O.2    26  SER26      -0.2863
     76  CB        16.2870   28.0990   19.4940 C.3    26  SER26       0.2116
     77  OG        16.9260   28.1420   20.7600 O.3    26  SER26      -0.2180
     78  N         23.7400   21.5000   12.4850 N.3    83  LEU83      -0.1245
     79  CA        25.1350   21.2020   12.1500 C.3    83  LEU83       0.1561
     80  C         26.0680   21.9040   13.1390 C.2    83  LEU83       0.2260
     81  O         26.1470   23.1400   13.1600 O.2    83  LEU83      -0.2867
     82  CB        25.4500   21.6370   10.7120 C.3    83  LEU83       0.0270
     83  CG        26.9260   21.5830   10.2960 C.3    83  LEU83       0.0019
     84  CD1       27.4560   20.1610   10.4040 C.3    83  LEU83       0.0001
     85  CD2       27.1190   22.1510    8.8770 C.3    83  LEU83       0.0001
     86  N         30.0250   22.1960   14.0030 N.3    85  ILE85      -0.1245
     87  CA        31.3380   21.8580   13.4680 C.3    85  ILE85       0.1561
     88  C         32.4070   22.5970   14.2610 C.2    85  ILE85       0.2260
     89  O         32.2990   23.8040   14.4980 O.2    85  ILE85      -0.2867
     90  CB        31.4440   22.1670   11.9570 C.3    85  ILE85       0.0252
     91  CG1       32.8490   21.8400   11.4400 C.3    85  ILE85       0.0019
     92  CG2       31.0780   23.6270   11.6580 C.3    85  ILE85       0.0019
     93  CD1       32.9220   21.6230    9.9300 C.3    85  ILE85       0.0001
     94  N         18.5230   22.3320    6.5610 N.3   113  LEU113     -0.1231
     95  CA        19.5170   22.6770    7.5710 C.3   113  LEU113      0.1693
     96  C         19.0360   23.9510    8.2570 C.2   113  LEU113      0.2592
     97  O         18.9890   25.0170    7.6360 O.2   113  LEU113     -0.2718
     98  CB        20.9020   22.8510    6.9480 C.3   113  LEU113      0.0284
     99  CG        22.0190   23.4570    7.8110 C.3   113  LEU113      0.0019
    100  CD1       22.2990   22.5810    9.0500 C.3   113  LEU113      0.0001
    101  CD2       23.2820   23.6400    6.9840 C.3   113  LEU113      0.0001
    102  N         18.6600   23.8440    9.5290 N.am  114  ILE114     -0.1966
    103  CA        17.9300   24.9260   10.1880 C.3   114  ILE114      0.1727
    104  C         18.7230   25.6020   11.2940 C.2   114  ILE114      0.2617
    105  O         18.2200   26.5760   11.8860 O.2   114  ILE114     -0.2715
    106  CB        16.5690   24.4440   10.7230 C.3   114  ILE114      0.0290
    107  CG1       16.7500   23.5140   11.9260 C.3   114  ILE114      0.0022
    108  CG2       15.7930   23.7350    9.6160 C.3   114  ILE114      0.0023
    109  CD1       15.4260   23.0140   12.4790 C.3   114  ILE114      0.0001
    110  N         19.9440   25.1590   11.5760 N.am  115  GLY115     -0.1940
    111  CA        20.7340   25.7950   12.6130 C.3   115  GLY115      0.2014
    112  C         21.9660   24.9750   12.9460 C.2   115  GLY115      0.2639
    113  O         22.2700   23.9790   12.2890 O.2   115  GLY115     -0.2714
    114  N         22.6780   25.4260   13.9630 N.am  116  GLY116     -0.1939
    115  CA        23.8580   24.7030   14.3970 C.3   116  GLY116      0.2014
    116  C         24.8190   25.6270   15.1340 C.2   116  GLY116      0.2639
    117  O         24.3980   26.5700   15.7970 O.2   116  GLY116     -0.2714
    118  N         26.1090   25.3260   15.0060 N.am  117  ASP117     -0.1957
    119  CA        27.1300   26.0390   15.7590 C.3   117  ASP117      0.1840
    120  C         28.4760   25.8250   15.0790 C.2   117  ASP117      0.2622
    121  O         28.8020   24.7130   14.6540 O.2   117  ASP117     -0.2715
    122  CB        27.1850   25.5770   17.2300 C.3   117  ASP117      0.1450
    123  CG        27.9440   26.5570   18.1350 C.2   117  ASP117      0.3671
    124  OD1       27.7000   27.7830   18.0570 O.co2 117  ASP117     -0.2456
    125  OD2       28.7940   26.1100   18.9340 O.co2 117  ASP117     -0.2456
    126  N         29.2460   26.9020   14.9790 N.am  118  THR118     -0.1951
    127  CA        30.5590   26.8970   14.3480 C.3   118  THR118      0.1897
    128  C         31.5780   27.3550   15.3810 C.2   118  THR118      0.2313
    129  O         31.4430   28.4560   15.9250 O.2   118  THR118     -0.2863
    130  CB        30.5640   27.8430   13.1410 C.3   118  THR118      0.1794
    131  OG1       29.4830   27.4910   12.2670 O.3   118  THR118     -0.2208
    132  CG2       31.8760   27.7680   12.3950 C.3   118  THR118      0.0378
@<TRIPOS>BOND
     1    29    30    1
     2    30    31    1
     3    30    33    1
     4    31    32    2
     5    37    35   ar
     6    37    39   ar
     7    35    34   ar
     8    94    95    1
     9    24    23    2
    10    98    95    1
    11    98    99    1
    12   101    99    1
    13    39    38   ar
    14    34    33    1
    15    34    36   ar
    16    23    22    1
    17    95    96    1
    18    97    96    2
    19    38    36   ar
    20    99   100    1
    21    96   102   am
    22    21    22    1
    23    22    25    1
    24    51    49    1
    25    85    83    1
    26    13    12    2
    27   102   103    1
    28   108   106    1
    29    12    11    1
    30    48    49    1
    31    48    50    1
    32    48    45    1
    33    93    91    1
    34    25    27    1
    35    25    26    1
    36   103   106    1
    37   103   104    1
    38    83    84    1
    39    83    82    1
    40    47    46    2
    41    44    45    1
    42    44    42   am
    43    41    40    1
    44    41    42    1
    45    82    79    1
    46   106   107    1
    47    45    46    1
    48     4     3    2
    49    42    43    2
    50    26    28    1
    51    46    52   am
    52   104   110   am
    53   104   105    2
    54    11    10    1
    55    11    14    1
    56    91    90    1
    57   110   111    1
    58    92    90    1
    59     3    10   am
    60     3     2    1
    61    14    15    1
    62   107   109    1
    63    90    87    1
    64     1     2    1
    65    79    78    1
    66    79    80    1
    67   131   130    1
    68    52    53    1
    69   113   112    2
    70     2     5    1
    71   132   130    1
    72    53    54    1
    73   111   112    1
    74   112   114   am
    75    80    81    2
    76   130   127    1
    77    15    16   ar
    78    15    17   ar
    79    87    86    1
    80    87    88    1
    81     5     6    1
    82    54    55    2
    83    54    56   am
    84   114   115    1
    85    16    18   ar
    86    17    19   ar
    87    88    89    2
    88     6     7    1
    89   127   126    1
    90   127   128    1
    91   115   116    1
    92   121   120    2
    93    56    57    1
    94   126   120   am
    95   118   116   am
    96   118   119    1
    97   120   119    1
    98   116   117    2
    99   128   129    2
   100    18    20   ar
   101    19    20   ar
   102     7     9   ar
   103     7     8   ar
   104   119   122    1
   105    57    60    1
   106    57    58    1
   107    60    61    1
   108    63    61   ar
   109    59    58    2
   110    75    74    2
   111    58    64   am
   112    61    62   ar
   113    74    73    1
   114   122   123    1
   115   124   123   ar
   116   123   125   ar
   117    64    65    1
   118    73    72    1
   119    73    76    1
   120    72    66   am
   121    66    65    1
   122    66    67    2
   123    65    68    1
   124    76    77    1
   125    71    69   ar
   126    68    69    1
   127    69    70   ar
