@<TRIPOS>MOLECULE
tmp/5d9uA02.pdb
 161 155 0 0 0
SMALL
GASTEIGER

@<TRIPOS>ATOM
      1  N         24.7870   12.1310   15.9790 N.3    42  ASP42      -0.1225
      2  CA        26.0080   11.3360   15.8670 C.3    42  ASP42       0.1805
      3  C         27.1680   12.2470   15.5170 C.2    42  ASP42       0.2598
      4  O         27.0120   13.1800   14.7180 O.2    42  ASP42      -0.2718
      5  CB        25.9020   10.2640   14.7820 C.3    42  ASP42       0.1424
      6  CG        25.3980    8.9340   15.3070 C.2    42  ASP42       0.3668
      7  OD1       25.4580    8.6390   16.5160 O.co2  42  ASP42      -0.2456
      8  OD2       24.9520    8.1610   14.4660 O.co2  42  ASP42      -0.2456
      9  N         28.3300   11.9510   16.0960 N.am   43  THR43      -0.1953
     10  CA        29.5490   12.7280   15.9110 C.3    43  THR43       0.1897
     11  C         30.5110   12.0110   14.9620 C.2    43  THR43       0.2313
     12  O         30.6660   10.7860   15.0320 O.2    43  THR43      -0.2863
     13  CB        30.2340   12.9410   17.2590 C.3    43  THR43       0.1794
     14  OG1       29.3490   13.6430   18.1450 O.3    43  THR43      -0.2208
     15  CG2       31.5720   13.6970   17.1120 C.3    43  THR43       0.0378
     16  N         39.8870   11.3620   11.0050 N.3    47  GLY47      -0.1210
     17  CA        40.8640   10.3140   11.2380 C.3    47  GLY47       0.1956
     18  C         40.3190    9.1100   11.9680 C.2    47  GLY47       0.2612
     19  O         41.0270    8.1110   12.1000 O.2    47  GLY47      -0.2717
     20  N         39.0910    9.1790   12.4640 N.am   48  ARG48      -0.1965
     21  CA        38.4720    8.0560   13.1480 C.3    48  ARG48       0.1729
     22  C         37.2110    7.5910   12.4440 C.2    48  ARG48       0.2616
     23  O         37.0940    6.4000   12.1340 O.2    48  ARG48      -0.2715
     24  CB        38.1660    8.4160   14.6030 C.3    48  ARG48       0.0348
     25  CG        37.4800    7.2870   15.3400 C.3    48  ARG48       0.0492
     26  CD        37.5310    7.4970   16.8290 C.3    48  ARG48       0.2205
     27  NE        38.8760    7.2680   17.3320 N.pl3  48  ARG48      -0.0865
     28  CZ        39.2820    6.0950   17.7970 C.cat  48  ARG48       0.5346
     29  NH1       40.5200    5.9450   18.2300 N.pl3  48  ARG48       0.1354
     30  NH2       38.4300    5.0760   17.8310 N.pl3  48  ARG48       0.1354
     31  N         36.2720    8.4970   12.1640 N.am   49  HIS49      -0.1959
     32  CA        35.1050    8.1570   11.3600 C.3    49  HIS49       0.1787
     33  C         35.3500    8.3080    9.8640 C.2    49  HIS49       0.2620
     34  O         34.4830    7.9270    9.0750 O.2    49  HIS49      -0.2715
     35  CB        33.8960    9.0120   11.7630 C.3    49  HIS49       0.0785
     36  CG        33.4030    8.7350   13.1450 C.ar   49  HIS49       0.0821
     37  ND1       34.0050    9.2650   14.2670 N.ar   49  HIS49      -0.2267
     38  CD2       32.3720    7.9770   13.5910 C.ar   49  HIS49       0.1154
     39  CE1       33.3760    8.8320   15.3460 C.ar   49  HIS49       0.1986
     40  NE2       32.3780    8.0530   14.9640 N.ar   49  HIS49      -0.2212
     41  N         36.5010    8.8450    9.4560 N.am   50  PHE50      -0.1960
     42  CA        36.8400    8.9310    8.0420 C.3    50  PHE50       0.1756
     43  C         38.3350    9.1430    7.9200 C.2    50  PHE50       0.2461
     44  O         38.9320    9.7990    8.7830 O.2    50  PHE50      -0.2730
     45  CB        36.0740   10.0600    7.3210 C.3    50  PHE50       0.0574
     46  CG        36.1190   11.4060    8.0160 C.ar   50  PHE50      -0.0200
     47  CD1       37.1820   12.2850    7.8160 C.ar   50  PHE50      -0.0042
     48  CD2       35.0500   11.8190    8.8040 C.ar   50  PHE50      -0.0042
     49  CE1       37.1930   13.5470    8.4310 C.ar   50  PHE50      -0.0003
     50  CE2       35.0530   13.0530    9.4280 C.ar   50  PHE50      -0.0003
     51  CZ        36.1240   13.9310    9.2380 C.ar   50  PHE50      -0.0000
     52  N         38.9730    8.5710    6.8910 N.am   51  PRO51      -0.2727
     53  CA        40.3900    8.8760    6.6270 C.3    51  PRO51       0.1402
     54  C         40.6390   10.3800    6.5880 C.2    51  PRO51       0.2269
     55  O         39.7840   11.1610    6.1700 O.2    51  PRO51      -0.2865
     56  CB        40.6390    8.2320    5.2600 C.3    51  PRO51       0.0296
     57  CG        39.6270    7.0710    5.2030 C.3    51  PRO51       0.0237
     58  CD        38.4130    7.5860    5.9400 C.3    51  PRO51       0.0939
     59  N         24.7630    9.5630    7.9740 N.3    66  VAL66      -0.1245
     60  CA        24.7490    8.6200    9.0970 C.3    66  VAL66       0.1561
     61  C         23.6730    9.0150   10.0920 C.2    66  VAL66       0.2260
     62  O         23.1560    8.1680   10.8250 O.2    66  VAL66      -0.2867
     63  CB        26.1210    8.4960    9.7920 C.3    66  VAL66       0.0252
     64  CG1       27.1990    8.1070    8.7760 C.3    66  VAL66       0.0019
     65  CG2       26.5190    9.8000   10.5310 C.3    66  VAL66       0.0019
     66  N         19.8500    6.9200   11.3190 N.3    70  ASP70      -0.1239
     67  CA        19.2220    6.6560   12.6140 C.3    70  ASP70       0.1674
     68  C         17.7620    7.0920   12.6650 C.2    70  ASP70       0.2266
     69  O         16.9930    6.5630   13.4790 O.2    70  ASP70      -0.2867
     70  CB        19.9970    7.3430   13.7280 C.3    70  ASP70       0.1410
     71  CG        21.1070    6.4870   14.2170 C.2    70  ASP70       0.3668
     72  OD1       20.8700    5.2750   14.3500 O.co2  70  ASP70      -0.2456
     73  OD2       22.2040    7.0080   14.4160 O.co2  70  ASP70      -0.2456
     74  N         37.5740    0.5940    3.1350 N.3   164  LEU164     -0.1245
     75  CA        38.4910    1.2390    4.0730 C.3   164  LEU164      0.1561
     76  C         39.8750    0.5950    4.0340 C.2   164  LEU164      0.2260
     77  O         40.8950    1.2900    4.1250 O.2   164  LEU164     -0.2867
     78  CB        37.9190    1.1850    5.4890 C.3   164  LEU164      0.0270
     79  CG        38.8800    1.6390    6.6010 C.3   164  LEU164      0.0019
     80  CD1       39.2900    3.1110    6.4350 C.3   164  LEU164      0.0001
     81  CD2       38.2540    1.4130    7.9710 C.3   164  LEU164      0.0001
     82  N         32.2830    3.4670    1.5330 N.3   175  LEU175     -0.1245
     83  CA        32.8070    4.0730    2.7470 C.3   175  LEU175      0.1561
     84  C         32.5030    5.5680    2.7710 C.2   175  LEU175      0.2260
     85  O         31.9910    6.1030    3.7650 O.2   175  LEU175     -0.2867
     86  CB        34.3150    3.8210    2.8260 C.3   175  LEU175      0.0270
     87  CG        35.0300    4.4540    4.0190 C.3   175  LEU175      0.0019
     88  CD1       34.7270    3.6740    5.2870 C.3   175  LEU175      0.0001
     89  CD2       36.5600    4.5190    3.7510 C.3   175  LEU175      0.0001
     90  N         19.8270    0.3730   12.3710 N.3   197  ASP197     -0.1239
     91  CA        20.7300    0.5840   11.2340 C.3   197  ASP197      0.1674
     92  C         22.1180    0.0350   11.5540 C.2   197  ASP197      0.2266
     93  O         22.5650    0.0400   12.7060 O.2   197  ASP197     -0.2867
     94  CB        20.8400    2.0620   10.8030 C.3   197  ASP197      0.1410
     95  CG        21.4710    2.9370   11.8440 C.2   197  ASP197      0.3668
     96  OD1       21.2170    2.6910   13.0360 O.co2 197  ASP197     -0.2456
     97  OD2       22.2130    3.8830   11.4760 O.co2 197  ASP197     -0.2456
     98  N         25.4670    0.4120   11.7040 N.3   199  SER199     -0.1202
     99  CA        26.6010    1.3230   11.7390 C.3   199  SER199      0.2020
    100  C         27.8550    0.6600   12.2930 C.2   199  SER199      0.2618
    101  O         28.9560    0.9550   11.8180 O.2   199  SER199     -0.2717
    102  CB        26.2600    2.5850   12.5530 C.3   199  SER199      0.2103
    103  OG        25.7760    2.2960   13.8440 O.3   199  SER199     -0.2182
    104  N         27.7020   -0.2720   13.2390 N.am  200  ASP200     -0.1973
    105  CA        28.8340   -0.9200   13.8920 C.3   200  ASP200      0.1709
    106  C         29.2320   -2.2510   13.2730 C.2   200  ASP200      0.2293
    107  O         30.3730   -2.6870   13.4730 O.2   200  ASP200     -0.2864
    108  CB        28.5230   -1.1530   15.3710 C.3   200  ASP200      0.1436
    109  CG        28.3540    0.1490   16.1270 C.2   200  ASP200      0.3671
    110  OD1       28.8030    1.1680   15.5970 O.co2 200  ASP200     -0.2456
    111  OD2       27.7980    0.1430   17.2370 O.co2 200  ASP200     -0.2456
    112  N         32.3430   -5.6150    9.8890 N.3   245  GLY245     -0.1210
    113  CA        32.9630   -4.4510    9.2570 C.3   245  GLY245      0.1956
    114  C         32.4070   -3.1120    9.7280 C.2   245  GLY245      0.2612
    115  O         33.1700   -2.1710   10.0080 O.2   245  GLY245     -0.2717
    116  N         31.0870   -2.9970    9.8090 N.am  246  GLY246     -0.1942
    117  CA        30.4570   -1.7290   10.1470 C.3   246  GLY246      0.2014
    118  C         30.5210   -0.7320    8.9990 C.2   246  GLY246      0.2638
    119  O         31.0230   -1.0150    7.9040 O.2   246  GLY246     -0.2714
    120  N         29.9890    0.4620    9.2600 N.am  247  ASP247     -0.1971
    121  CA        29.9470    1.5530    8.2840 C.3   247  ASP247      0.1709
    122  C         29.0070    1.2710    7.1140 C.2   247  ASP247      0.2293
    123  O         29.0740    1.9660    6.0950 O.2   247  ASP247     -0.2864
    124  CB        31.3430    1.8710    7.7270 C.3   247  ASP247      0.1436
    125  CG        32.0500    3.0100    8.4640 C.2   247  ASP247      0.3671
    126  OD1       31.3770    3.9600    8.9240 O.co2 247  ASP247     -0.2456
    127  OD2       33.2980    2.9460    8.5580 O.co2 247  ASP247     -0.2456
    128  N         25.4610    1.2970    7.1030 N.3   249  TYR249     -0.1241
    129  CA        24.2860    2.1770    7.1360 C.3   249  TYR249      0.1605
    130  C         23.1640    1.6030    6.2870 C.2   249  TYR249      0.2264
    131  O         22.3780    2.3330    5.6780 O.2   249  TYR249     -0.2867
    132  CB        24.6550    3.6100    6.7440 C.3   249  TYR249      0.0534
    133  CG        25.6690    4.0930    7.7290 C.ar  249  TYR249     -0.0201
    134  CD1       25.2890    4.4540    9.0120 C.ar  249  TYR249     -0.0009
    135  CD2       27.0190    4.0980    7.4210 C.ar  249  TYR249     -0.0009
    136  CE1       26.2240    4.8490    9.9610 C.ar  249  TYR249      0.0417
    137  CE2       27.9580    4.4880    8.3620 C.ar  249  TYR249      0.0417
    138  CZ        27.5530    4.8590    9.6260 C.ar  249  TYR249      0.1957
    139  OH        28.4850    5.2540   10.5540 O.3   249  TYR249     -0.2866
    140  N         32.2820   -2.6670   15.9220 N.3   300  TYR300     -0.1241
    141  CA        32.9660   -1.4330   16.2820 C.3   300  TYR300      0.1605
    142  C         32.4830   -0.8830   17.6230 C.2   300  TYR300      0.2264
    143  O         31.2760   -0.7760   17.8810 O.2   300  TYR300     -0.2867
    144  CB        32.7790   -0.3870   15.1910 C.3   300  TYR300      0.0534
    145  CG        33.7110    0.7950   15.3390 C.ar  300  TYR300     -0.0201
    146  CD1       34.9280    0.8260   14.6740 C.ar  300  TYR300     -0.0009
    147  CD2       33.3740    1.8740   16.1460 C.ar  300  TYR300     -0.0009
    148  CE1       35.7800    1.8950   14.7970 C.ar  300  TYR300      0.0417
    149  CE2       34.2210    2.9520   16.2750 C.ar  300  TYR300      0.0417
    150  CZ        35.4210    2.9590   15.5960 C.ar  300  TYR300      0.1957
    151  OH        36.2690    4.0300   15.7320 O.3   300  TYR300     -0.2866
    152  N         33.8430    2.3320   20.4090 N.3   302  HIS302     -0.1241
    153  CA        34.8340    3.3070   20.8310 C.3   302  HIS302      0.1621
    154  C         35.4600    2.8450   22.1340 C.2   302  HIS302      0.2264
    155  O         34.8300    2.1470   22.9350 O.2   302  HIS302     -0.2867
    156  CB        34.1990    4.6900   20.9770 C.3   302  HIS302      0.0745
    157  CG        33.6770    5.2330   19.6860 C.ar  302  HIS302      0.0817
    158  ND1       34.4610    5.9530   18.8150 N.ar  302  HIS302     -0.2268
    159  CD2       32.4640    5.1170   19.0940 C.ar  302  HIS302      0.1154
    160  CE1       33.7490    6.2760   17.7490 C.ar  302  HIS302      0.1986
    161  NE2       32.5320    5.7840   17.8950 N.ar  302  HIS302     -0.2212
@<TRIPOS>BOND
     1    82    83    1
     2    83    84    1
     3    83    86    1
     4    84    85    2
     5    86    87    1
     6    74    75    1
     7    89    87    1
     8    87    88    1
     9    76    75    1
    10    76    77    2
    11    75    78    1
    12    57    56    1
    13    57    58    1
    14    56    53    1
    15    78    79    1
    16   131   130    2
    17    58    52    1
    18   123   122    2
    19    55    54    2
    20   130   129    1
    21    80    79    1
    22    54    53    1
    23    79    81    1
    24    53    52    1
    25   132   129    1
    26   132   133    1
    27    52    43   am
    28   128   129    1
    29   122   121    1
    30    45    46    1
    31    45    42    1
    32   135   133   ar
    33   135   137   ar
    34   124   121    1
    35   124   125    1
    36   133   134   ar
    37    47    46   ar
    38    47    49   ar
    39   119   118    2
    40    43    42    1
    41    43    44    2
    42    59    60    1
    43    46    48   ar
    44    42    41    1
    45   121   120    1
    46   137   138   ar
    47    49    51   ar
    48   125   127   ar
    49   125   126   ar
    50    64    63    1
    51    48    50   ar
    52   118   120   am
    53   118   117    1
    54   134   136   ar
    55    34    33    2
    56    60    63    1
    57    60    61    1
    58    51    50   ar
    59   113   114    1
    60   113   112    1
    61    41    33   am
    62   138   136   ar
    63   138   139    1
    64   114   116   am
    65   114   115    2
    66    63    65    1
    67   116   117    1
    68    33    32    1
    69    61    62    2
    70    94    91    1
    71    94    95    1
    72    16    17    1
    73    91    92    1
    74    91    90    1
    75    17    18    1
    76    66    67    1
    77    32    35    1
    78    32    31    1
    79    97    95   ar
    80    92    93    2
    81    98    99    1
    82    99   100    1
    83    99   102    1
    84    35    36    1
    85   101   100    2
    86    95    96   ar
    87    18    19    2
    88    18    20   am
    89    23    22    2
    90    31    22   am
    91   100   104   am
    92    22    21    1
    93    20    21    1
    94   102   103    1
    95    67    68    1
    96    67    70    1
    97    68    69    2
    98    36    38   ar
    99    36    37   ar
   100    21    24    1
   101   104   105    1
   102   106   107    2
   103   106   105    1
   104    38    40   ar
   105    70    71    1
   106   105   108    1
   107    71    72   ar
   108    71    73   ar
   109    37    39   ar
   110     8     6   ar
   111    24    25    1
   112   146   148   ar
   113   146   145   ar
   114     4     3    2
   115     5     6    1
   116     5     2    1
   117   148   150   ar
   118    11    12    2
   119    11    10    1
   120    40    39   ar
   121   144   145    1
   122   144   141    1
   123     6     7   ar
   124   145   147   ar
   125    25    26    1
   126   108   109    1
   127     3     2    1
   128     3     9   am
   129   150   151    1
   130   150   149   ar
   131   110   109   ar
   132     2     1    1
   133    10     9    1
   134    10    13    1
   135   140   141    1
   136   109   111   ar
   137   147   149   ar
   138   141   142    1
   139    26    27    1
   140    15    13    1
   141    13    14    1
   142    27    28    2
   143   142   143    2
   144   160   161   ar
   145   160   158   ar
   146    28    30    1
   147    28    29    1
   148   161   159   ar
   149   158   157   ar
   150   159   157   ar
   151   157   156    1
   152   152   153    1
   153   153   156    1
   154   153   154    1
   155   154   155    2
