@<TRIPOS>MOLECULE
tmp/5d9wA00.pdb
 89 89 0 0 0
SMALL
GASTEIGER

@<TRIPOS>ATOM
      1  N          7.0040   -4.0330   -1.5190 N.3     7  LYS7       -0.1245
      2  CA         5.5540   -4.2390   -1.4870 C.3     7  LYS7        0.1561
      3  C          4.7760   -3.0090   -1.9740 C.2     7  LYS7        0.2260
      4  O          5.0490   -1.8910   -1.5560 O.2     7  LYS7       -0.2867
      5  CB         5.1110   -4.5880   -0.0600 C.3     7  LYS7        0.0271
      6  CG         3.6230   -4.8450    0.1030 C.3     7  LYS7        0.0035
      7  CD         3.2130   -4.8310    1.6020 C.3     7  LYS7        0.0206
      8  CE         1.7530   -5.2430    1.7710 C.3     7  LYS7        0.1093
      9  NZ         1.2100   -4.9430    3.1400 N.3     7  LYS7       -0.1314
     10  N          3.4640   -0.6800    2.4300 N.3    18  ASP18      -0.1225
     11  CA         3.7480   -0.4460    3.8480 C.3    18  ASP18       0.1805
     12  C          4.5950   -1.5190    4.5170 C.2    18  ASP18       0.2598
     13  O          4.5540   -1.6630    5.7510 O.2    18  ASP18      -0.2718
     14  CB         2.4320   -0.3100    4.6210 C.3    18  ASP18       0.1424
     15  CG         1.6170   -1.5960    4.6280 C.2    18  ASP18       0.3668
     16  OD1        1.5670   -2.2960    3.5900 O.co2  18  ASP18      -0.2456
     17  OD2        1.0300   -1.9150    5.6820 O.co2  18  ASP18      -0.2456
     18  N          5.3590   -2.2830    3.7430 N.am   19  SER19      -0.1938
     19  CA         6.2640   -3.2530    4.3610 C.3    19  SER19       0.2040
     20  C          7.3550   -2.5420    5.1600 C.2    19  SER19       0.2485
     21  O          8.0820   -1.7290    4.6140 O.2    19  SER19      -0.2729
     22  CB         6.9050   -4.1510    3.3030 C.3    19  SER19       0.2129
     23  OG         7.9840   -4.8810    3.8650 O.3    19  SER19      -0.2179
     24  N          7.4780   -2.8490    6.4670 N.am   20  PRO20      -0.2715
     25  CA         8.5190   -2.1380    7.2250 C.3    20  PRO20       0.1536
     26  C          9.9200   -2.6260    6.8530 C.2    20  PRO20       0.2598
     27  O         10.9090   -1.9210    7.0650 O.2    20  PRO20      -0.2715
     28  CB         8.1820   -2.4630    8.6860 C.3    20  PRO20       0.0310
     29  CG         7.4050   -3.7770    8.6220 C.3    20  PRO20       0.0237
     30  CD         6.6630   -3.7480    7.3070 C.3    20  PRO20       0.0939
     31  N          9.9840   -3.8220    6.2810 N.am   21  PHE21      -0.1974
     32  CA        11.2610   -4.4370    5.9270 C.3    21  PHE21       0.1639
     33  C         11.7180   -3.8440    4.6050 C.2    21  PHE21       0.2290
     34  O         12.8920   -3.4990    4.4300 O.2    21  PHE21      -0.2864
     35  CB        11.0990   -5.9570    5.8820 C.3    21  PHE21       0.0560
     36  CG        10.5440   -6.5090    7.1610 C.ar   21  PHE21      -0.0200
     37  CD1       11.3210   -6.5110    8.3030 C.ar   21  PHE21      -0.0042
     38  CD2        9.2200   -6.9310    7.2450 C.ar   21  PHE21      -0.0042
     39  CE1       10.8180   -6.9900    9.5160 C.ar   21  PHE21      -0.0003
     40  CE2        8.7100   -7.4100    8.4450 C.ar   21  PHE21      -0.0003
     41  CZ         9.5070   -7.4320    9.5810 C.ar   21  PHE21      -0.0000
     42  N          8.1850   -4.6080   17.7770 N.3   103  PHE103     -0.1241
     43  CA         7.2670   -4.9130   16.6780 C.3   103  PHE103      0.1605
     44  C          6.3950   -6.1360   16.9650 C.2   103  PHE103      0.2264
     45  O          5.1850   -6.0940   16.7440 O.2   103  PHE103     -0.2867
     46  CB         8.0390   -5.1270   15.3780 C.3   103  PHE103      0.0534
     47  CG         7.1730   -5.1270   14.1440 C.ar  103  PHE103     -0.0203
     48  CD1        6.4760   -3.9870   13.7650 C.ar  103  PHE103     -0.0042
     49  CD2        7.0700   -6.2550   13.3420 C.ar  103  PHE103     -0.0042
     50  CE1        5.6900   -3.9800   12.6190 C.ar  103  PHE103     -0.0003
     51  CE2        6.2860   -6.2360   12.1850 C.ar  103  PHE103     -0.0003
     52  CZ         5.5960   -5.1010   11.8340 C.ar  103  PHE103     -0.0000
     53  N          4.3030    1.7490   12.1150 N.3   159  HIS159     -0.1241
     54  CA         3.1950    0.7980   12.1500 C.3   159  HIS159      0.1621
     55  C          2.5130    0.7810   13.4950 C.2   159  HIS159      0.2264
     56  O          1.2900    0.8460   13.5850 O.2   159  HIS159     -0.2867
     57  CB         3.6850   -0.6010   11.8100 C.3   159  HIS159      0.0745
     58  CG         3.8460   -0.8250   10.3500 C.ar  159  HIS159      0.0817
     59  ND1        2.8530   -1.3830    9.5700 N.ar  159  HIS159     -0.2268
     60  CD2        4.8670   -0.5340    9.5130 C.ar  159  HIS159      0.1154
     61  CE1        3.2650   -1.4290    8.3150 C.ar  159  HIS159      0.1986
     62  NE2        4.4810   -0.9230    8.2560 N.ar  159  HIS159     -0.2212
     63  N         -3.5720   -2.5720    5.0540 N.3   205  GLY205     -0.1210
     64  CA        -2.6960   -3.7340    5.1140 C.3   205  GLY205      0.1956
     65  C         -2.9830   -4.5640    6.3560 C.2   205  GLY205      0.2611
     66  O         -2.9320   -5.7980    6.3310 O.2   205  GLY205     -0.2717
     67  N         -3.2940   -3.8850    7.4520 N.am  206  TRP206     -0.1976
     68  CA        -3.5730   -4.5650    8.7220 C.3   206  TRP206      0.1640
     69  C         -5.0190   -4.9920    8.9390 C.2   206  TRP206      0.2290
     70  O         -5.2710   -5.8580    9.7700 O.2   206  TRP206     -0.2864
     71  CB        -3.1690   -3.6810    9.9150 C.3   206  TRP206      0.0576
     72  CG        -1.7100   -3.6740   10.1440 C.ar  206  TRP206      0.0006
     73  CD1       -0.8430   -2.6300    9.9500 C.ar  206  TRP206      0.0946
     74  CD2       -0.9160   -4.7860   10.5620 C.ar  206  TRP206      0.0152
     75  NE1        0.4410   -3.0270   10.2440 N.ar  206  TRP206     -0.2442
     76  CE2        0.4240   -4.3470   10.6180 C.ar  206  TRP206      0.0810
     77  CE3       -1.2120   -6.1120   10.9060 C.ar  206  TRP206      0.0012
     78  CZ2        1.4680   -5.1860   11.0030 C.ar  206  TRP206      0.0191
     79  CZ3       -0.1740   -6.9460   11.2810 C.ar  206  TRP206      0.0001
     80  CH2        1.1470   -6.4810   11.3290 C.ar  206  TRP206      0.0015
     81  N         -6.1040   -8.6800    8.9920 N.3   209  LYS209     -0.1245
     82  CA        -5.4470   -9.3930   10.0820 C.3   209  LYS209      0.1561
     83  C         -6.0690   -9.0560   11.4310 C.2   209  LYS209      0.2260
     84  O         -6.1040   -9.8920   12.3390 O.2   209  LYS209     -0.2867
     85  CB        -3.9520   -9.0740   10.0890 C.3   209  LYS209      0.0271
     86  CG        -3.2730   -9.3570    8.7630 C.3   209  LYS209      0.0035
     87  CD        -1.7840   -9.0630    8.8210 C.3   209  LYS209      0.0206
     88  CE        -1.0970   -9.4720    7.5270 C.3   209  LYS209      0.1093
     89  NZ         0.3880   -9.3400    7.6100 N.3   209  LYS209     -0.1314
@<TRIPOS>BOND
     1     3     4    2
     2     3     2    1
     3     1     2    1
     4     2     5    1
     5     5     6    1
     6     6     7    1
     7     7     8    1
     8     8     9    1
     9    10    11    1
    10    22    23    1
    11    22    19    1
    12    16    15   ar
    13    18    19    1
    14    18    12   am
    15    11    12    1
    16    11    14    1
    17    19    20    1
    18    34    33    2
    19    12    13    2
    20    33    32    1
    21    21    20    2
    22    14    15    1
    23    15    17   ar
    24    63    64    1
    25    64    65    1
    26    20    24   am
    27    35    32    1
    28    35    36    1
    29    32    31    1
    30    31    26   am
    31    66    65    2
    32    65    67   am
    33    24    25    1
    34    24    30    1
    35    26    27    2
    36    26    25    1
    37    36    38   ar
    38    36    37   ar
    39    25    28    1
    40    38    40   ar
    41    30    29    1
    42    67    68    1
    43    88    89    1
    44    88    87    1
    45    62    61   ar
    46    62    60   ar
    47    37    39   ar
    48    61    59   ar
    49    40    41   ar
    50    29    28    1
    51    68    69    1
    52    68    71    1
    53    86    87    1
    54    86    85    1
    55    69    70    2
    56    81    82    1
    57    60    58   ar
    58    39    41   ar
    59    59    58   ar
    60    71    72    1
    61    73    72   ar
    62    73    75   ar
    63    82    85    1
    64    82    83    1
    65    72    74   ar
    66    75    76   ar
    67    58    57    1
    68    74    76   ar
    69    74    77   ar
    70    76    78   ar
    71    77    79   ar
    72    78    80   ar
    73    79    80   ar
    74    83    84    2
    75    57    54    1
    76    52    51   ar
    77    52    50   ar
    78    53    54    1
    79    54    55    1
    80    51    49   ar
    81    50    48   ar
    82    49    47   ar
    83    55    56    2
    84    48    47   ar
    85    47    46    1
    86    46    43    1
    87    43    44    1
    88    43    42    1
    89    45    44    2
