@<TRIPOS>MOLECULE
tmp/5d9xA00.pdb
 113 110 0 0 0
SMALL
GASTEIGER

@<TRIPOS>ATOM
      1  N          6.9000   -4.4320   -1.5230 N.3     7  LYS7       -0.1245
      2  CA         5.4600   -4.6590   -1.5440 C.3     7  LYS7        0.1561
      3  C          4.6870   -3.3760   -1.8290 C.2     7  LYS7        0.2260
      4  O          4.9930   -2.3190   -1.2530 O.2     7  LYS7       -0.2867
      5  CB         5.0150   -5.2570   -0.1960 C.3     7  LYS7        0.0271
      6  CG         3.5330   -5.4440   -0.0250 C.3     7  LYS7        0.0035
      7  CD         3.2130   -6.3240    1.1740 C.3     7  LYS7        0.0206
      8  CE         3.5170   -5.6540    2.4840 C.3     7  LYS7        0.1093
      9  NZ         3.0840   -6.5410    3.6200 N.3     7  LYS7       -0.1314
     10  N          3.5860   -1.0230    2.9110 N.3    18  ASP18      -0.1225
     11  CA         3.9490   -0.6820    4.2910 C.3    18  ASP18       0.1805
     12  C          4.9130   -1.6510    4.9910 C.2    18  ASP18       0.2598
     13  O          4.9900   -1.6470    6.2330 O.2    18  ASP18      -0.2718
     14  CB         2.6690   -0.5500    5.1300 C.3    18  ASP18       0.1424
     15  CG         1.9930   -1.8780    5.3730 C.2    18  ASP18       0.3668
     16  OD1        2.3460   -2.8590    4.6860 O.co2  18  ASP18      -0.2456
     17  OD2        1.1140   -1.9550    6.2660 O.co2  18  ASP18      -0.2456
     18  N          5.6580   -2.4720    4.2460 N.am   19  SER19      -0.1938
     19  CA         6.5900   -3.3770    4.9340 C.3    19  SER19       0.2040
     20  C          7.6960   -2.5980    5.6480 C.2    19  SER19       0.2485
     21  O          8.3900   -1.8100    5.0290 O.2    19  SER19      -0.2729
     22  CB         7.2440   -4.3610    3.9670 C.3    19  SER19       0.2129
     23  OG         8.3320   -5.0000    4.6190 O.3    19  SER19      -0.2179
     24  N          7.8660   -2.8130    6.9600 N.am   20  PRO20      -0.2715
     25  CA         8.9340   -2.0750    7.6350 C.3    20  PRO20       0.1536
     26  C         10.3230   -2.5650    7.2060 C.2    20  PRO20       0.2598
     27  O         11.3270   -1.8620    7.3590 O.2    20  PRO20      -0.2715
     28  CB         8.6760   -2.3570    9.1260 C.3    20  PRO20       0.0310
     29  CG         7.9410   -3.6730    9.1510 C.3    20  PRO20       0.0237
     30  CD         7.0910   -3.6660    7.8840 C.3    20  PRO20       0.0939
     31  N         10.3680   -3.7840    6.6780 N.am   21  PHE21      -0.1974
     32  CA        11.6390   -4.3880    6.2750 C.3    21  PHE21       0.1639
     33  C         12.0950   -3.7800    4.9420 C.2    21  PHE21       0.2290
     34  O         13.2590   -3.3420    4.7430 O.2    21  PHE21      -0.2864
     35  CB        11.4370   -5.8990    6.2020 C.3    21  PHE21       0.0560
     36  CG        10.9350   -6.4790    7.4950 C.ar   21  PHE21      -0.0200
     37  CD1       11.7700   -6.5270    8.5970 C.ar   21  PHE21      -0.0042
     38  CD2        9.6280   -6.9010    7.6320 C.ar   21  PHE21      -0.0042
     39  CE1       11.3340   -7.0290    9.8030 C.ar   21  PHE21      -0.0003
     40  CE2        9.1840   -7.3980    8.8600 C.ar   21  PHE21      -0.0003
     41  CZ        10.0400   -7.4540    9.9330 C.ar   21  PHE21      -0.0000
     42  N          8.7170   -4.2720   18.3390 N.3   103  PHE103     -0.1241
     43  CA         7.7650   -4.6370   17.2940 C.3   103  PHE103      0.1605
     44  C          6.9360   -5.8720   17.6630 C.2   103  PHE103      0.2264
     45  O          5.7180   -5.8500   17.5170 O.2   103  PHE103     -0.2867
     46  CB         8.4920   -4.8550   15.9530 C.3   103  PHE103      0.0534
     47  CG         7.5850   -4.8750   14.7710 C.ar  103  PHE103     -0.0203
     48  CD1        6.8500   -3.7480   14.4150 C.ar  103  PHE103     -0.0042
     49  CD2        7.4870   -6.0090   13.9730 C.ar  103  PHE103     -0.0042
     50  CE1        6.0200   -3.7550   13.3020 C.ar  103  PHE103     -0.0003
     51  CE2        6.6590   -6.0140   12.8560 C.ar  103  PHE103     -0.0003
     52  CZ         5.9290   -4.8910   12.5230 C.ar  103  PHE103     -0.0000
     53  N          2.8980   -6.0770   18.1870 N.3   107  THR107     -0.1218
     54  CA         1.9700   -6.8480   17.3740 C.3   107  THR107      0.1862
     55  C          1.0970   -7.6920   18.3000 C.2   107  THR107      0.2287
     56  O         -0.1090   -7.8210   18.0720 O.2   107  THR107     -0.2866
     57  CB         2.6950   -7.7310   16.3270 C.3   107  THR107      0.1770
     58  OG1        3.5770   -8.6460   16.9840 O.3   107  THR107     -0.2211
     59  CG2        3.5000   -6.8690   15.3860 C.3   107  THR107      0.0375
     60  N         -3.0080   -7.2980   18.5030 N.3   111  LYS111     -0.1245
     61  CA        -3.8910   -8.4250   18.1990 C.3   111  LYS111      0.1561
     62  C         -4.6380   -8.9510   19.4290 C.2   111  LYS111      0.2260
     63  O         -5.5610   -9.7660   19.3090 O.2   111  LYS111     -0.2867
     64  CB        -3.0830   -9.5550   17.5540 C.3   111  LYS111      0.0271
     65  CG        -2.7980   -9.3610   16.0690 C.3   111  LYS111      0.0035
     66  CD        -1.3970   -9.7940   15.6970 C.3   111  LYS111      0.0206
     67  CE        -1.1710  -11.2560   15.9820 C.3   111  LYS111      0.1093
     68  NZ         0.2390  -11.6480   15.7030 N.3   111  LYS111     -0.1314
     69  N          4.6490    1.8420   12.4870 N.3   159  HIS159     -0.1241
     70  CA         3.5280    0.8930   12.6100 C.3   159  HIS159      0.1621
     71  C          2.8830    0.9480   13.9820 C.2   159  HIS159      0.2264
     72  O          1.6620    0.9800   14.1270 O.2   159  HIS159     -0.2867
     73  CB         3.9950   -0.5340   12.3470 C.3   159  HIS159      0.0745
     74  CG         4.1020   -0.8630   10.9000 C.ar  159  HIS159      0.0817
     75  ND1        3.1620   -1.6270   10.2440 N.ar  159  HIS159     -0.2268
     76  CD2        5.0110   -0.4920    9.9690 C.ar  159  HIS159      0.1154
     77  CE1        3.4980   -1.7240    8.9710 C.ar  159  HIS159      0.1986
     78  NE2        4.6200   -1.0530    8.7800 N.ar  159  HIS159     -0.2212
     79  N         -1.4580    1.4340    5.5720 N.3   202  LEU202     -0.1245
     80  CA        -0.9080    0.6620    6.6780 C.3   202  LEU202      0.1561
     81  C         -2.0470    0.1050    7.5310 C.2   202  LEU202      0.2260
     82  O         -2.0480   -1.0780    7.9040 O.2   202  LEU202     -0.2867
     83  CB         0.0510    1.5450    7.5050 C.3   202  LEU202      0.0270
     84  CG         0.8230    0.9610    8.6920 C.3   202  LEU202      0.0019
     85  CD1        2.0900    1.7810    8.8640 C.3   202  LEU202      0.0001
     86  CD2        0.0140    0.9400   10.0060 C.3   202  LEU202      0.0001
     87  N         -3.6170   -2.6670    5.6800 N.3   205  GLY205     -0.1210
     88  CA        -2.7760   -3.8420    5.8260 C.3   205  GLY205      0.1956
     89  C         -3.0470   -4.5850    7.1260 C.2   205  GLY205      0.2611
     90  O         -3.1030   -5.8230    7.1570 O.2   205  GLY205     -0.2717
     91  N         -3.2110   -3.8440    8.2140 N.am  206  TRP206     -0.1976
     92  CA        -3.4110   -4.5000    9.5100 C.3   206  TRP206      0.1640
     93  C         -4.8340   -4.9590    9.7930 C.2   206  TRP206      0.2290
     94  O         -5.0490   -5.8220   10.6570 O.2   206  TRP206     -0.2864
     95  CB        -2.9850   -3.5850   10.6510 C.3   206  TRP206      0.0576
     96  CG        -1.5250   -3.6000   10.9050 C.ar  206  TRP206      0.0006
     97  CD1       -0.6340   -2.6080   10.6160 C.ar  206  TRP206      0.0946
     98  CD2       -0.7790   -4.6580   11.5000 C.ar  206  TRP206      0.0152
     99  NE1        0.6310   -2.9860   11.0030 N.ar  206  TRP206     -0.2442
    100  CE2        0.5670   -4.2440   11.5480 C.ar  206  TRP206      0.0810
    101  CE3       -1.1170   -5.9270   11.9940 C.ar  206  TRP206      0.0012
    102  CZ2        1.5810   -5.0540   12.0670 C.ar  206  TRP206      0.0191
    103  CZ3       -0.1130   -6.7270   12.5190 C.ar  206  TRP206      0.0001
    104  CH2        1.2230   -6.2880   12.5440 C.ar  206  TRP206      0.0015
    105  N         -5.9430   -8.5610   10.1200 N.3   209  LYS209     -0.1245
    106  CA        -5.1710   -9.2970   11.1170 C.3   209  LYS209      0.1561
    107  C         -5.5890   -8.9430   12.5440 C.2   209  LYS209      0.2260
    108  O         -5.3030   -9.6770   13.4920 O.2   209  LYS209     -0.2867
    109  CB        -3.6830   -9.0320   10.9070 C.3   209  LYS209      0.0271
    110  CG        -3.1900   -9.5340    9.5690 C.3   209  LYS209      0.0035
    111  CD        -1.9100   -8.8370    9.1590 C.3   209  LYS209      0.0206
    112  CE        -1.5210   -9.2020    7.7360 C.3   209  LYS209      0.1093
    113  NZ        -1.4060  -10.6740    7.5460 N.3   209  LYS209     -0.1314
@<TRIPOS>BOND
     1     3     2    1
     2     3     4    2
     3     2     1    1
     4     2     5    1
     5     5     6    1
     6     6     7    1
     7     7     8    1
     8     8     9    1
     9    10    11    1
    10    22    23    1
    11    22    19    1
    12    18    19    1
    13    18    12   am
    14    11    12    1
    15    11    14    1
    16    16    15   ar
    17    34    33    2
    18    19    20    1
    19    33    32    1
    20    12    13    2
    21    21    20    2
    22    14    15    1
    23    15    17   ar
    24    79    80    1
    25    20    24   am
    26    87    88    1
    27    88    89    1
    28    35    32    1
    29    35    36    1
    30    32    31    1
    31    31    26   am
    32    80    83    1
    33    80    81    1
    34    24    25    1
    35    24    30    1
    36    89    90    2
    37    89    91   am
    38    26    27    2
    39    26    25    1
    40    36    38   ar
    41    36    37   ar
    42    83    84    1
    43    81    82    2
    44   113   112    1
    45    38    40   ar
    46    25    28    1
    47   112   111    1
    48    30    29    1
    49    91    92    1
    50    37    39   ar
    51    84    85    1
    52    84    86    1
    53    78    77   ar
    54    78    76   ar
    55    40    41   ar
    56    77    75   ar
    57    28    29    1
    58   111   110    1
    59    92    93    1
    60    92    95    1
    61   110   109    1
    62    93    94    2
    63    39    41   ar
    64    76    74   ar
    65   105   106    1
    66    75    74   ar
    67    97    96   ar
    68    97    99   ar
    69    95    96    1
    70    74    73    1
    71    96    98   ar
    72   109   106    1
    73    99   100   ar
    74   106   107    1
    75    98   100   ar
    76    98   101   ar
    77   100   102   ar
    78   101   103   ar
    79   102   104   ar
    80    73    70    1
    81    69    70    1
    82   103   104   ar
    83    52    51   ar
    84    52    50   ar
    85   107   108    2
    86    70    71    1
    87    51    49   ar
    88    50    48   ar
    89    49    47   ar
    90    71    72    2
    91    48    47   ar
    92    47    46    1
    93    59    57    1
    94    66    67    1
    95    66    65    1
    96    68    67    1
    97    46    43    1
    98    65    64    1
    99    57    58    1
   100    57    54    1
   101    43    44    1
   102    43    42    1
   103    54    53    1
   104    54    55    1
   105    45    44    2
   106    64    61    1
   107    56    55    2
   108    61    60    1
   109    61    62    1
   110    63    62    2
