@<TRIPOS>MOLECULE
tmp/5da0A00.pdb
 168 156 0 0 0
SMALL
GASTEIGER

@<TRIPOS>ATOM
      1  N         52.3170   26.5730   63.1740 N.3    67  ALA67      -0.1245
      2  CA        51.5540   25.5590   62.4500 C.3    67  ALA67       0.1562
      3  C         51.3750   24.2860   63.2700 C.2    67  ALA67       0.2260
      4  O         50.4240   23.5320   63.0650 O.2    67  ALA67      -0.2867
      5  CB        52.2300   25.2420   61.1240 C.3    67  ALA67       0.0290
      6  N         45.6630   17.2630   48.2950 N.3   110  VAL110     -0.1245
      7  CA        45.1620   18.2090   49.2860 C.3   110  VAL110      0.1561
      8  C         44.7970   19.5380   48.6290 C.2   110  VAL110      0.2260
      9  O         45.6550   20.1980   48.0420 O.2   110  VAL110     -0.2867
     10  CB        46.1940   18.4590   50.4030 C.3   110  VAL110      0.0252
     11  CG1       45.6450   19.4470   51.4210 C.3   110  VAL110      0.0019
     12  CG2       46.5760   17.1500   51.0740 C.3   110  VAL110      0.0019
     13  N         41.8940   24.5430   51.2590 N.3   114  VAL114     -0.1231
     14  CA        42.1280   24.0810   52.6220 C.3   114  VAL114      0.1692
     15  C         43.4420   24.6320   53.1700 C.2   114  VAL114      0.2591
     16  O         43.5120   25.0760   54.3170 O.2   114  VAL114     -0.2718
     17  CB        42.1530   22.5410   52.6940 C.3   114  VAL114      0.0266
     18  CG1       42.4690   22.0740   54.1070 C.3   114  VAL114      0.0020
     19  CG2       40.8280   21.9660   52.2190 C.3   114  VAL114      0.0020
     20  N         44.4770   24.6140   52.3350 N.am  115  MET115     -0.1979
     21  CA        45.8060   25.0510   52.7480 C.3   115  MET115      0.1605
     22  C         45.8720   26.5580   52.9870 C.2   115  MET115      0.2287
     23  O         46.3710   27.0060   54.0240 O.2   115  MET115     -0.2864
     24  CB        46.8480   24.6400   51.7050 C.3   115  MET115      0.0413
     25  CG        46.8810   23.1460   51.4230 C.3   115  MET115      0.0598
     26  SD        48.3740   22.6250   50.5570 S.3   115  MET115     -0.1393
     27  CE        48.3440   23.7120   49.1340 C.3   115  MET115      0.0692
     28  N         44.0210   27.3850   56.0020 N.3   118  PHE118     -0.1227
     29  CA        44.8370   27.0320   57.1560 C.3   118  PHE118      0.1736
     30  C         45.8460   28.1290   57.4680 C.2   118  PHE118      0.2595
     31  O         46.0420   28.4840   58.6280 O.2   118  PHE118     -0.2718
     32  CB        45.5590   25.7030   56.9160 C.3   118  PHE118      0.0547
     33  CG        46.5550   25.3490   57.9850 C.ar  118  PHE118     -0.0202
     34  CD1       46.1420   24.7600   59.1690 C.ar  118  PHE118     -0.0042
     35  CD2       47.9070   25.5980   57.8030 C.ar  118  PHE118     -0.0042
     36  CE1       47.0570   24.4320   60.1540 C.ar  118  PHE118     -0.0003
     37  CE2       48.8250   25.2730   58.7840 C.ar  118  PHE118     -0.0003
     38  CZ        48.4000   24.6880   59.9600 C.ar  118  PHE118     -0.0000
     39  N         46.4790   28.6630   56.4280 N.am  119  VAL119     -0.1980
     40  CA        47.4650   29.7270   56.5950 C.3   119  VAL119      0.1595
     41  C         46.8340   30.9950   57.1710 C.2   119  VAL119      0.2287
     42  O         47.3250   31.5490   58.1620 O.2   119  VAL119     -0.2864
     43  CB        48.1560   30.0640   55.2610 C.3   119  VAL119      0.0276
     44  CG1       49.0340   31.2960   55.4100 C.3   119  VAL119      0.0022
     45  CG2       48.9730   28.8770   54.7760 C.3   119  VAL119      0.0022
     46  N         45.6480   30.4660   60.7090 N.3   122  LEU122     -0.1245
     47  CA        46.8660   30.4170   61.5090 C.3   122  LEU122      0.1561
     48  C         47.3260   31.8160   61.8870 C.2   122  LEU122      0.2260
     49  O         47.4810   32.1290   63.0670 O.2   122  LEU122     -0.2867
     50  CB        47.9740   29.6880   60.7410 C.3   122  LEU122      0.0270
     51  CG        49.2970   29.3030   61.4120 C.3   122  LEU122      0.0019
     52  CD1       49.9270   28.1740   60.6260 C.3   122  LEU122      0.0001
     53  CD2       50.2700   30.4730   61.5050 C.3   122  LEU122      0.0001
     54  N         46.3580   15.3450   62.6640 N.3   220  THR220     -0.1218
     55  CA        46.4110   16.6840   62.0850 C.3   220  THR220      0.1862
     56  C         47.8280   17.2580   62.1240 C.2   220  THR220      0.2287
     57  O         48.2870   17.8550   61.1490 O.2   220  THR220     -0.2866
     58  CB        45.4540   17.6510   62.8060 C.3   220  THR220      0.1770
     59  OG1       45.8570   17.7960   64.1740 O.3   220  THR220     -0.2211
     60  CG2       44.0250   17.1270   62.7520 C.3   220  THR220      0.0375
     61  N         49.9010   15.4020   59.4050 N.3   223  LEU223     -0.1231
     62  CA        49.5510   15.8490   58.0570 C.3   223  LEU223      0.1693
     63  C         50.0610   17.2590   57.7610 C.2   223  LEU223      0.2591
     64  O         50.6650   17.5010   56.7110 O.2   223  LEU223     -0.2718
     65  CB        48.0370   15.7880   57.8530 C.3   223  LEU223      0.0284
     66  CG        47.4380   14.3830   57.7690 C.3   223  LEU223      0.0019
     67  CD1       45.9360   14.4490   57.5410 C.3   223  LEU223      0.0001
     68  CD2       48.1170   13.5790   56.6700 C.3   223  LEU223      0.0001
     69  N         49.8180   18.1810   58.6880 N.am  224  VAL224     -0.1980
     70  CA        50.2860   19.5570   58.5420 C.3   224  VAL224      0.1595
     71  C         51.8090   19.6040   58.4450 C.2   224  VAL224      0.2287
     72  O         52.3670   20.3340   57.6250 O.2   224  VAL224     -0.2864
     73  CB        49.8130   20.4420   59.7180 C.3   224  VAL224      0.0276
     74  CG1       50.5760   21.7590   59.7490 C.3   224  VAL224      0.0022
     75  CG2       48.3160   20.6920   59.6240 C.3   224  VAL224      0.0022
     76  N         52.9480   18.2940   55.0600 N.3   227  LEU227     -0.1231
     77  CA        52.6570   19.2970   54.0410 C.3   227  LEU227      0.1693
     78  C         53.6980   20.4130   54.0700 C.2   227  LEU227      0.2591
     79  O         54.2760   20.7680   53.0380 O.2   227  LEU227     -0.2718
     80  CB        51.2560   19.8750   54.2400 C.3   227  LEU227      0.0284
     81  CG        50.0960   18.9900   53.7840 C.3   227  LEU227      0.0019
     82  CD1       48.7830   19.5000   54.3460 C.3   227  LEU227      0.0001
     83  CD2       50.0420   18.9370   52.2670 C.3   227  LEU227      0.0001
     84  N         53.9290   20.9590   55.2620 N.am  228  GLU228     -0.1979
     85  CA        54.9340   21.9970   55.4640 C.3   228  GLU228      0.1602
     86  C         56.3060   21.5350   54.9880 C.2   228  GLU228      0.2287
     87  O         57.0030   22.2600   54.2750 O.2   228  GLU228     -0.2864
     88  CB        55.0050   22.3990   56.9390 C.3   228  GLU228      0.0415
     89  CG        53.7940   23.1680   57.4460 C.3   228  GLU228      0.1163
     90  CD        53.7950   24.6190   57.0070 C.2   228  GLU228      0.3649
     91  OE1       52.7530   25.2890   57.1650 O.co2 228  GLU228     -0.2457
     92  OE2       54.8400   25.0910   56.5110 O.co2 228  GLU228     -0.2457
     93  N         56.3280   21.3110   51.0230 N.3   231  LEU231     -0.1245
     94  CA        56.4120   22.5880   50.3210 C.3   231  LEU231      0.1561
     95  C         57.7460   23.2860   50.5710 C.2   231  LEU231      0.2260
     96  O         58.3320   23.8620   49.6500 O.2   231  LEU231     -0.2867
     97  CB        55.2530   23.5000   50.7250 C.3   231  LEU231      0.0270
     98  CG        53.8540   22.9740   50.3940 C.3   231  LEU231      0.0019
     99  CD1       52.8090   24.0670   50.5600 C.3   231  LEU231      0.0001
    100  CD2       53.8070   22.3860   48.9900 C.3   231  LEU231      0.0001
    101  N         60.2780   24.9180   58.4360 N.3   271  MET271     -0.1230
    102  CA        59.9610   26.3360   58.5130 C.3   271  MET271      0.1702
    103  C         60.3480   27.0400   57.2180 C.2   271  MET271      0.2592
    104  O         61.5280   27.1280   56.8840 O.2   271  MET271     -0.2718
    105  CB        60.6730   26.9790   59.7040 C.3   271  MET271      0.0401
    106  CG        60.0600   28.2930   60.1580 C.3   271  MET271      0.0596
    107  SD        60.7010   28.8540   61.7480 S.3   271  MET271     -0.1393
    108  CE        61.1120   27.2950   62.5270 C.3   271  MET271      0.0692
    109  N         59.3450   27.5300   56.4950 N.am  272  ILE272     -0.1966
    110  CA        59.5570   28.2200   55.2250 C.3   272  ILE272      0.1727
    111  C         60.5150   29.3990   55.3630 C.2   272  ILE272      0.2616
    112  O         61.5950   29.4060   54.7670 O.2   272  ILE272     -0.2715
    113  CB        58.2260   28.7350   54.6390 C.3   272  ILE272      0.0290
    114  CG1       57.3160   27.5650   54.2600 C.3   272  ILE272      0.0022
    115  CG2       58.4790   29.6170   53.4230 C.3   272  ILE272      0.0023
    116  CD1       57.7410   26.8490   52.9980 C.3   272  ILE272      0.0001
    117  N         60.1120   30.3840   56.1610 N.am  273  GLY273     -0.1955
    118  CA        60.8620   31.6180   56.3190 C.3   273  GLY273      0.1869
    119  C         62.3210   31.4370   56.6870 C.2   273  GLY273      0.2309
    120  O         63.1980   32.0490   56.0780 O.2   273  GLY273     -0.2863
    121  N         55.1760   38.5530   62.4250 N.3   322  VAL322     -0.1245
    122  CA        55.2360   37.2330   61.7990 C.3   322  VAL322      0.1561
    123  C         53.8190   36.8530   61.3410 C.2   322  VAL322      0.2260
    124  O         53.6470   36.2850   60.2600 O.2   322  VAL322     -0.2867
    125  CB        55.8660   36.1540   62.7400 C.3   322  VAL322      0.0252
    126  CG1       54.8480   35.5930   63.7220 C.3   322  VAL322      0.0019
    127  CG2       56.4990   35.0280   61.9170 C.3   322  VAL322      0.0019
    128  N         53.1550   38.7790   58.1360 N.3   325  SER325     -0.1202
    129  CA        53.8930   38.1190   57.0750 C.3   325  SER325      0.2020
    130  C         53.1720   36.8460   56.6340 C.2   325  SER325      0.2619
    131  O         53.1710   36.5050   55.4460 O.2   325  SER325     -0.2717
    132  CB        55.3200   37.8090   57.5360 C.3   325  SER325      0.2103
    133  OG        56.0490   39.0060   57.7560 O.3   325  SER325     -0.2182
    134  N         52.5330   36.1590   57.5790 N.am  326  THR326     -0.1952
    135  CA        51.9010   34.8820   57.2540 C.3   326  THR326      0.1897
    136  C         50.5610   35.0560   56.5260 C.2   326  THR326      0.2313
    137  O         50.3060   34.3640   55.5400 O.2   326  THR326     -0.2863
    138  CB        51.6760   33.9920   58.5140 C.3   326  THR326      0.1794
    139  OG1       52.9080   33.8260   59.2260 O.3   326  THR326     -0.2208
    140  CG2       51.1650   32.6150   58.1070 C.3   326  THR326      0.0378
    141  N         47.3850   37.1620   51.5330 N.3   329  TRP329     -0.1241
    142  CA        47.3580   36.3400   50.3310 C.3   329  TRP329      0.1605
    143  C         46.7550   37.0940   49.1580 C.2   329  TRP329      0.2264
    144  O         46.7000   38.3240   49.1520 O.2   329  TRP329     -0.2867
    145  CB        46.5590   35.0580   50.5690 C.3   329  TRP329      0.0550
    146  CG        47.3770   33.9090   51.0520 C.ar  329  TRP329      0.0003
    147  CD1       47.2920   33.2980   52.2660 C.ar  329  TRP329      0.0946
    148  CD2       48.4080   33.2290   50.3280 C.ar  329  TRP329      0.0152
    149  NE1       48.2060   32.2750   52.3440 N.ar  329  TRP329     -0.2442
    150  CE2       48.9050   32.2120   51.1680 C.ar  329  TRP329      0.0810
    151  CE3       48.9610   33.3800   49.0520 C.ar  329  TRP329      0.0012
    152  CZ2       49.9280   31.3510   50.7740 C.ar  329  TRP329      0.0191
    153  CZ3       49.9770   32.5250   48.6630 C.ar  329  TRP329      0.0001
    154  CH2       50.4490   31.5230   49.5210 C.ar  329  TRP329      0.0015
    155  N         40.5860   23.0110   60.1970 N.3   359  VAL359     -0.1245
    156  CA        41.1540   21.9840   59.3310 C.3   359  VAL359      0.1561
    157  C         40.1320   20.8830   59.0520 C.2   359  VAL359      0.2260
    158  O         39.9710   20.4500   57.9110 O.2   359  VAL359     -0.2867
    159  CB        42.4240   21.3640   59.9490 C.3   359  VAL359      0.0252
    160  CG1       42.9020   20.1800   59.1230 C.3   359  VAL359      0.0019
    161  CG2       43.5190   22.4120   60.0690 C.3   359  VAL359      0.0019
    162  N         38.5040   19.7830   55.4960 N.3   363  VAL363     -0.1245
    163  CA        38.5720   18.4290   54.9640 C.3   363  VAL363      0.1561
    164  C         37.1990   17.9210   54.5320 C.2   363  VAL363      0.2260
    165  O         37.0350   17.4610   53.4000 O.2   363  VAL363     -0.2867
    166  CB        39.1690   17.4470   55.9920 C.3   363  VAL363      0.0252
    167  CG1       39.0470   16.0140   55.4960 C.3   363  VAL363      0.0019
    168  CG2       40.6220   17.7930   56.2760 C.3   363  VAL363      0.0019
@<TRIPOS>BOND
     1     9     8    2
     2     6     7    1
     3     8     7    1
     4   153   151   ar
     5   153   154   ar
     6   100    98    1
     7   151   148   ar
     8    27    26    1
     9   144   143    2
    10   143   142    1
    11     7    10    1
    12   154   152   ar
    13    96    95    2
    14    94    95    1
    15    94    97    1
    16    94    93    1
    17   148   146   ar
    18   148   150   ar
    19   142   145    1
    20   142   141    1
    21    98    99    1
    22    98    97    1
    23    10    12    1
    24    10    11    1
    25    26    25    1
    26   145   146    1
    27   152   150   ar
    28   146   147   ar
    29   150   149   ar
    30    13    14    1
    31    25    24    1
    32    24    21    1
    33    19    17    1
    34   147   149   ar
    35    83    81    1
    36    20    21    1
    37    20    15   am
    38    14    17    1
    39    14    15    1
    40    17    18    1
    41    21    22    1
    42    22    23    2
    43   116   114    1
    44    79    78    2
    45    15    16    2
    46   165   164    2
    47   115   113    1
    48    81    80    1
    49    81    82    1
    50    77    78    1
    51    77    80    1
    52    77    76    1
    53    78    84   am
    54   114   113    1
    55    87    86    2
    56   164   163    1
    57   113   110    1
    58   112   111    2
    59    45    43    1
    60   163   162    1
    61   163   166    1
    62    86    85    1
    63   110   111    1
    64   110   109    1
    65    43    44    1
    66    43    40    1
    67    84    85    1
    68   111   117   am
    69   131   130    2
    70    85    88    1
    71   167   166    1
    72   137   136    2
    73   166   168    1
    74    28    29    1
    75   120   119    2
    76   117   118    1
    77   118   119    1
    78    39    40    1
    79    39    30   am
    80   109   103   am
    81    92    90   ar
    82   136   135    1
    83    40    41    1
    84   130   129    1
    85   130   134   am
    86    68    66    1
    87    64    63    2
    88   104   103    2
    89    32    29    1
    90    32    33    1
    91    88    89    1
    92    90    91   ar
    93    90    89    1
    94   129   132    1
    95   129   128    1
    96    29    30    1
    97    41    42    2
    98   103   102    1
    99   135   134    1
   100   135   138    1
   101    30    31    2
   102   132   133    1
   103    67    66    1
   104    72    71    2
   105    63    62    1
   106    63    69   am
   107    66    65    1
   108    35    33   ar
   109    35    37   ar
   110    65    62    1
   111   158   157    2
   112    33    34   ar
   113    62    61    1
   114   140   138    1
   115   101   102    1
   116    71    70    1
   117   102   105    1
   118   138   139    1
   119    70    69    1
   120    70    73    1
   121    37    38   ar
   122   157   156    1
   123   160   159    1
   124    34    36   ar
   125   156   159    1
   126   156   155    1
   127    75    73    1
   128   105   106    1
   129    73    74    1
   130   159   161    1
   131    38    36   ar
   132   106   107    1
   133   124   123    2
   134    52    51    1
   135    46    47    1
   136    50    51    1
   137    50    47    1
   138     5     2    1
   139    57    56    2
   140   123   122    1
   141    51    53    1
   142    47    48    1
   143   107   108    1
   144   122   121    1
   145   122   125    1
   146    48    49    2
   147   127   125    1
   148    55    56    1
   149    55    54    1
   150    55    58    1
   151     2     1    1
   152     2     3    1
   153   125   126    1
   154    60    58    1
   155    58    59    1
   156     4     3    2
