@<TRIPOS>MOLECULE
tmp/5da9B00.pdb
 77 73 0 0 0
SMALL
GASTEIGER

@<TRIPOS>ATOM
      1  N        -10.6310  -30.8480  -23.9860 N.3   247  ASP247     -0.1225
      2  CA        -9.7550  -30.1600  -24.9380 C.3   247  ASP247      0.1805
      3  C         -9.3400  -28.7590  -24.4720 C.2   247  ASP247      0.2597
      4  O         -8.2190  -28.3250  -24.7190 O.2   247  ASP247     -0.2718
      5  CB       -10.4280  -30.0770  -26.3130 C.3   247  ASP247      0.1424
      6  CG       -11.8940  -29.7100  -26.2140 C.2   247  ASP247      0.3668
      7  OD1      -12.2570  -29.0830  -25.2080 O.co2 247  ASP247     -0.2456
      8  OD2      -12.6850  -30.0570  -27.1250 O.co2 247  ASP247     -0.2456
      9  N        -10.2420  -28.0550  -23.7930 N.am  248  ILE248     -0.1980
     10  CA        -9.9920  -26.6710  -23.3920 C.3   248  ILE248      0.1595
     11  C        -10.2360  -26.5270  -21.8960 C.2   248  ILE248      0.2287
     12  O        -11.2800  -26.9320  -21.3890 O.2   248  ILE248     -0.2864
     13  CB       -10.8880  -25.6880  -24.1790 C.3   248  ILE248      0.0276
     14  CG1      -10.6510  -25.8590  -25.6800 C.3   248  ILE248      0.0022
     15  CG2      -10.5890  -24.2530  -23.7950 C.3   248  ILE248      0.0022
     16  CD1      -11.7340  -25.2770  -26.5730 C.3   248  ILE248      0.0001
     17  N        -10.7210  -18.2170  -35.5900 N.3   285  GLY285     -0.1210
     18  CA       -10.1090  -19.0680  -36.5880 C.3   285  GLY285      0.1956
     19  C         -9.7240  -20.4420  -36.0670 C.2   285  GLY285      0.2612
     20  O         -9.3260  -21.3080  -36.8430 O.2   285  GLY285     -0.2717
     21  N         -9.8560  -20.6580  -34.7620 N.am  286  ARG286     -0.1965
     22  CA        -9.4010  -21.9150  -34.1650 C.3   286  ARG286      0.1729
     23  C        -10.4440  -22.6940  -33.3600 C.2   286  ARG286      0.2616
     24  O        -10.1150  -23.6940  -32.7290 O.2   286  ARG286     -0.2715
     25  CB        -8.2030  -21.6420  -33.2620 C.3   286  ARG286      0.0348
     26  CG        -6.9660  -21.1910  -34.0050 C.3   286  ARG286      0.0492
     27  CD        -5.8150  -20.9960  -33.0600 C.3   286  ARG286      0.2205
     28  NE        -4.5590  -20.8930  -33.7780 N.pl3 286  ARG286     -0.0865
     29  CZ        -4.0240  -19.7450  -34.1670 C.cat 286  ARG286      0.5346
     30  NH1       -4.6460  -18.6050  -33.9030 N.pl3 286  ARG286      0.1354
     31  NH2       -2.8690  -19.7360  -34.8180 N.pl3 286  ARG286      0.1354
     32  N        -11.6880  -22.2510  -33.3270 N.am  287  CYS287     -0.1954
     33  CA       -12.6270  -22.9790  -32.4850 C.3   287  CYS287      0.1843
     34  C        -13.7830  -23.5860  -33.2540 C.2   287  CYS287      0.2626
     35  O        -14.1800  -23.1110  -34.3140 O.2   287  CYS287     -0.2714
     36  CB       -13.1510  -22.0890  -31.3610 C.3   287  CYS287      0.0997
     37  SG       -13.9490  -20.5800  -31.8920 S.3   287  CYS287     -0.0797
     38  N        -14.2930  -24.6630  -32.6800 N.am  288  SER288     -0.1936
     39  CA       -15.4440  -25.3970  -33.1700 C.3   288  SER288      0.2055
     40  C        -16.7470  -24.6070  -33.1260 C.2   288  SER288      0.2643
     41  O        -16.8520  -23.6020  -32.4330 O.2   288  SER288     -0.2714
     42  CB       -15.5840  -26.6640  -32.3440 C.3   288  SER288      0.2130
     43  OG       -16.8570  -27.2270  -32.4900 O.3   288  SER288     -0.2179
     44  N        -17.7450  -25.0760  -33.8670 N.am  289  ALA289     -0.1963
     45  CA       -19.0510  -24.4260  -33.8980 C.3   289  ALA289      0.1728
     46  C        -19.7390  -24.4740  -32.5320 C.2   289  ALA289      0.2617
     47  O        -20.2440  -23.4650  -32.0510 O.2   289  ALA289     -0.2715
     48  CB       -19.9200  -25.0640  -34.9510 C.3   289  ALA289      0.0334
     49  N        -19.7570  -25.6530  -31.9170 N.am  290  GLY290     -0.1940
     50  CA       -20.2980  -25.7980  -30.5770 C.3   290  GLY290      0.2014
     51  C        -19.5500  -24.9640  -29.5520 C.2   290  GLY290      0.2638
     52  O        -20.1420  -24.4290  -28.6120 O.2   290  GLY290     -0.2714
     53  N        -18.2350  -24.8790  -29.7140 N.am  291  GLN291     -0.1977
     54  CA       -17.4090  -24.0410  -28.8570 C.3   291  GLN291      0.1601
     55  C        -17.7350  -22.5580  -29.0550 C.2   291  GLN291      0.2287
     56  O        -17.7760  -21.7930  -28.0970 O.2   291  GLN291     -0.2864
     57  CB       -15.9280  -24.3060  -29.1270 C.3   291  GLN291      0.0394
     58  CG       -15.4620  -25.6730  -28.6670 C.3   291  GLN291      0.0908
     59  CD       -14.0900  -26.0320  -29.2010 C.2   291  GLN291      0.2608
     60  OE1      -13.5590  -25.3610  -30.0860 O.2   291  GLN291     -0.2717
     61  NE2      -13.5290  -27.1230  -28.6970 N.am  291  GLN291     -0.0878
     62  N        -26.1260  -25.9920  -32.1820 N.3   322  ASN322     -0.1240
     63  CA       -24.9140  -26.7540  -32.4700 C.3   322  ASN322      0.1653
     64  C        -24.2720  -27.4290  -31.2640 C.2   322  ASN322      0.2266
     65  O        -23.1060  -27.8160  -31.3220 O.2   322  ASN322     -0.2867
     66  CB       -23.8770  -25.8590  -33.1450 C.3   322  ASN322      0.1155
     67  CG       -24.1860  -25.6150  -34.6010 C.2   322  ASN322      0.2627
     68  OD1      -24.5800  -26.5290  -35.3240 O.2   322  ASN322     -0.2716
     69  ND2      -24.0010  -24.3780  -35.0470 N.am  322  ASN322     -0.0877
     70  N        -23.9270  -30.5390  -28.5020 N.3   324  ASP324     -0.1239
     71  CA       -24.1620  -31.9770  -28.4230 C.3   324  ASP324      0.1674
     72  C        -24.9790  -32.3530  -27.1980 C.2   324  ASP324      0.2266
     73  O        -25.3430  -31.4920  -26.4060 O.2   324  ASP324     -0.2867
     74  CB       -22.8240  -32.7360  -28.4540 C.3   324  ASP324      0.1410
     75  CG       -21.9290  -32.4390  -27.2580 C.2   324  ASP324      0.3668
     76  OD1      -22.4170  -32.0130  -26.1910 O.co2 324  ASP324     -0.2456
     77  OD2      -20.7020  -32.6310  -27.4000 O.co2 324  ASP324     -0.2456
@<TRIPOS>BOND
     1    20    19    2
     2    18    19    1
     3    18    17    1
     4    19    21   am
     5    68    67    2
     6    69    67   am
     7    48    45    1
     8    31    29    1
     9    21    22    1
    10    67    66    1
    11    35    34    2
    12    29    30    1
    13    29    28    2
    14    22    23    1
    15    22    25    1
    16    26    25    1
    17    26    27    1
    18    45    44    1
    19    45    46    1
    20    44    40   am
    21    28    27    1
    22    23    32   am
    23    23    24    2
    24    32    33    1
    25    34    38   am
    26    34    33    1
    27    39    40    1
    28    39    38    1
    29    39    42    1
    30    66    63    1
    31    40    41    2
    32    46    47    2
    33    46    49   am
    34    43    42    1
    35    33    36    1
    36    63    62    1
    37    63    64    1
    38    49    50    1
    39    37    36    1
    40    65    64    2
    41    50    51    1
    42    60    59    2
    43    53    51   am
    44    53    54    1
    45    51    52    2
    46    59    61   am
    47    59    58    1
    48    57    54    1
    49    57    58    1
    50    55    54    1
    51    55    56    2
    52    70    71    1
    53    74    71    1
    54    74    75    1
    55    71    72    1
    56    77    75   ar
    57    75    76   ar
    58    72    73    2
    59     8     6   ar
    60    16    14    1
    61     5     6    1
    62     5     2    1
    63     6     7   ar
    64    14    13    1
    65     2     3    1
    66     2     1    1
    67     4     3    2
    68     3     9   am
    69    13    15    1
    70    13    10    1
    71     9    10    1
    72    10    11    1
    73    11    12    2
