@<TRIPOS>MOLECULE
tmp/5da9B01.pdb
 171 165 0 0 0
SMALL
GASTEIGER

@<TRIPOS>ATOM
      1  N        -43.8920   -8.7420  -38.5460 N.3    12  ARG12      -0.1231
      2  CA       -43.4710  -10.0690  -38.9960 C.3    12  ARG12       0.1694
      3  C        -44.6430  -10.9770  -39.3670 C.2    12  ARG12       0.2592
      4  O        -45.5030  -10.6050  -40.1550 O.2    12  ARG12      -0.2718
      5  CB       -42.6310  -10.7400  -37.9110 C.3    12  ARG12       0.0321
      6  CG       -41.3210  -10.0310  -37.5910 C.3    12  ARG12       0.0489
      7  CD       -40.1760  -10.5650  -38.4270 C.3    12  ARG12       0.2205
      8  NE       -38.9110   -9.9200  -38.0910 N.pl3  12  ARG12      -0.0865
      9  CZ       -37.8900   -9.7820  -38.9330 C.cat  12  ARG12       0.5346
     10  NH1      -37.9780  -10.2370  -40.1760 N.pl3  12  ARG12       0.1354
     11  NH2      -36.7780   -9.1780  -38.5350 N.pl3  12  ARG12       0.1354
     12  N        -44.6790  -12.1730  -38.7950 N.am   13  SER13      -0.1952
     13  CA       -45.7770  -13.0890  -39.0610 C.3    13  SER13       0.1924
     14  C        -47.0510  -12.7070  -38.3040 C.2    13  SER13       0.2314
     15  O        -48.1010  -13.3240  -38.4830 O.2    13  SER13      -0.2863
     16  CB       -45.3620  -14.5190  -38.7100 C.3    13  SER13       0.2116
     17  OG       -44.9810  -14.6260  -37.3520 O.3    13  SER13      -0.2180
     18  N        -40.3460  -24.2740  -36.0320 N.3    35  ASN35      -0.1225
     19  CA       -39.6300  -23.3430  -36.9000 C.3    35  ASN35       0.1785
     20  C        -40.5610  -22.3440  -37.5680 C.2    35  ASN35       0.2598
     21  O        -41.5400  -22.7240  -38.2050 O.2    35  ASN35      -0.2718
     22  CB       -38.8300  -24.0950  -37.9660 C.3    35  ASN35       0.1169
     23  CG       -37.5890  -24.7530  -37.4030 C.2    35  ASN35       0.2627
     24  OD1      -37.2720  -25.9020  -37.7270 O.2    35  ASN35      -0.2716
     25  ND2      -36.8810  -24.0290  -36.5410 N.am   35  ASN35      -0.0877
     26  N        -40.2470  -21.0620  -37.4100 N.am   36  GLY36      -0.1942
     27  CA       -41.0020  -19.9940  -38.0380 C.3    36  GLY36       0.2014
     28  C        -42.2550  -19.5730  -37.3060 C.2    36  GLY36       0.2640
     29  O        -43.0610  -18.8250  -37.8520 O.2    36  GLY36      -0.2714
     30  N        -42.4180  -20.0500  -36.0760 N.am   37  SER37      -0.1935
     31  CA       -43.5790  -19.7160  -35.2620 C.3    37  SER37       0.2055
     32  C        -43.7170  -18.2260  -34.9970 C.2    37  SER37       0.2644
     33  O        -44.8120  -17.6840  -35.0590 O.2    37  SER37      -0.2714
     34  CB       -43.4960  -20.4390  -33.9220 C.3    37  SER37       0.2130
     35  OG       -43.3350  -21.8350  -34.0930 O.3    37  SER37      -0.2179
     36  N        -42.5980  -17.5640  -34.7310 N.am   38  GLY38      -0.1939
     37  CA       -42.6010  -16.1450  -34.4200 C.3    38  GLY38       0.2014
     38  C        -41.9470  -15.8430  -33.0810 C.2    38  GLY38       0.2639
     39  O        -42.1780  -14.7840  -32.5060 O.2    38  GLY38      -0.2714
     40  N        -41.1320  -16.7700  -32.5780 N.am   39  LYS39      -0.1963
     41  CA       -40.4510  -16.5930  -31.2920 C.3    39  LYS39       0.1728
     42  C        -39.3830  -15.5060  -31.2770 C.2    39  LYS39       0.2617
     43  O        -39.4330  -14.6040  -30.4410 O.2    39  LYS39      -0.2715
     44  CB       -39.8270  -17.9040  -30.8350 C.3    39  LYS39       0.0311
     45  CG       -40.8340  -18.9450  -30.4390 C.3    39  LYS39       0.0038
     46  CD       -40.8600  -20.1080  -31.3860 C.3    39  LYS39       0.0206
     47  CE       -39.5850  -20.8860  -31.3090 C.3    39  LYS39       0.1093
     48  NZ       -39.5120  -21.8550  -32.4240 N.3    39  LYS39      -0.1314
     49  N        -38.4040  -15.6030  -32.1750 N.am   40  THR40      -0.1937
     50  CA       -37.3550  -14.5940  -32.2700 C.3    40  THR40       0.2028
     51  C        -37.9630  -13.2020  -32.4430 C.2    40  THR40       0.2642
     52  O        -37.4420  -12.2040  -31.9380 O.2    40  THR40      -0.2714
     53  CB       -36.4040  -14.8840  -33.4440 C.3    40  THR40       0.1808
     54  OG1      -35.6280  -16.0520  -33.1510 O.3    40  THR40      -0.2208
     55  CG2      -35.4590  -13.7120  -33.6890 C.3    40  THR40       0.0379
     56  N        -39.0990  -13.1610  -33.1360 N.am   41  THR41      -0.1950
     57  CA       -39.8320  -11.9310  -33.4000 C.3    41  THR41       0.1897
     58  C        -40.1120  -11.1570  -32.1090 C.2    41  THR41       0.2313
     59  O        -40.0520   -9.9240  -32.0810 O.2    41  THR41      -0.2863
     60  CB       -41.1760  -12.2390  -34.1090 C.3    41  THR41       0.1794
     61  OG1      -40.9330  -12.9450  -35.3340 O.3    41  THR41      -0.2208
     62  CG2      -41.9590  -10.9640  -34.3750 C.3    41  THR41       0.0378
     63  N        -39.3580   -2.4840  -45.2720 N.3    62  GLY62      -0.1210
     64  CA       -40.3990   -2.8740  -44.3410 C.3    62  GLY62       0.1956
     65  C        -40.3580   -4.3670  -44.1040 C.2    62  GLY62       0.2612
     66  O        -41.3920   -5.0320  -44.0130 O.2    62  GLY62      -0.2717
     67  N        -39.1410   -4.8880  -44.0010 N.am   63  ALA63      -0.1965
     68  CA       -38.9160   -6.3100  -43.7870 C.3    63  ALA63       0.1728
     69  C        -39.4760   -6.7110  -42.4320 C.2    63  ALA63       0.2616
     70  O        -40.0570   -7.7830  -42.2650 O.2    63  ALA63      -0.2715
     71  CB       -37.4330   -6.6350  -43.8790 C.3    63  ALA63       0.0334
     72  N        -39.2980   -5.8140  -41.4690 N.am   64  PHE64      -0.1960
     73  CA       -39.7500   -6.0170  -40.1010 C.3    64  PHE64       0.1771
     74  C        -41.2630   -6.1680  -40.0290 C.2    64  PHE64       0.2619
     75  O        -41.7880   -6.9290  -39.2210 O.2    64  PHE64      -0.2715
     76  CB       -39.3020   -4.8490  -39.2250 C.3    64  PHE64       0.0574
     77  CG       -39.5120   -5.0730  -37.7580 C.ar   64  PHE64      -0.0200
     78  CD1      -39.1830   -6.2890  -37.1800 C.ar   64  PHE64      -0.0042
     79  CD2      -40.0100   -4.0640  -36.9510 C.ar   64  PHE64      -0.0042
     80  CE1      -39.3580   -6.4980  -35.8280 C.ar   64  PHE64      -0.0003
     81  CE2      -40.1860   -4.2690  -35.5970 C.ar   64  PHE64      -0.0003
     82  CZ       -39.8580   -5.4870  -35.0340 C.ar   64  PHE64      -0.0000
     83  N        -41.9520   -5.4530  -40.9100 N.am   65  ILE65      -0.1963
     84  CA       -43.3990   -5.3060  -40.8490 C.3    65  ILE65       0.1727
     85  C        -44.1040   -6.4720  -41.5110 C.2    65  ILE65       0.2616
     86  O        -43.5960   -7.0150  -42.4920 O.2    65  ILE65      -0.2715
     87  CB       -43.8460   -4.0010  -41.5420 C.3    65  ILE65       0.0290
     88  CG1      -43.3510   -2.7940  -40.7650 C.3    65  ILE65       0.0022
     89  CG2      -45.3530   -3.9200  -41.6640 C.3    65  ILE65       0.0023
     90  CD1      -41.9240   -2.3930  -41.0270 C.3    65  ILE65       0.0001
     91  N        -45.2350   -6.8910  -40.9460 N.am   66  HIS66      -0.1959
     92  CA       -46.0580   -7.8960  -41.5940 C.3    66  HIS66       0.1787
     93  C        -46.3460   -7.3790  -42.9780 C.2    66  HIS66       0.2620
     94  O        -46.8150   -6.2570  -43.1290 O.2    66  HIS66      -0.2715
     95  CB       -47.3640   -8.1480  -40.8380 C.3    66  HIS66       0.0785
     96  CG       -48.1740   -9.2760  -41.3980 C.ar   66  HIS66       0.0821
     97  ND1      -47.9170  -10.5940  -41.0880 N.ar   66  HIS66      -0.2267
     98  CD2      -49.2380   -9.2890  -42.2360 C.ar   66  HIS66       0.1154
     99  CE1      -48.7800  -11.3700  -41.7170 C.ar   66  HIS66       0.1986
    100  NE2      -49.5950  -10.6030  -42.4180 N.ar   66  HIS66      -0.2212
    101  N        -46.0530   -8.1890  -43.9870 N.am   67  ASP67      -0.1971
    102  CA       -46.1180   -7.7100  -45.3590 C.3    67  ASP67       0.1709
    103  C        -47.5270   -7.2730  -45.7260 C.2    67  ASP67       0.2293
    104  O        -48.4980   -7.9710  -45.4370 O.2    67  ASP67      -0.2864
    105  CB       -45.6230   -8.7830  -46.3230 C.3    67  ASP67       0.1436
    106  CG       -45.2620   -8.2190  -47.6830 C.2    67  ASP67       0.3671
    107  OD1      -44.3420   -7.3770  -47.7670 O.co2  67  ASP67      -0.2456
    108  OD2      -45.8930   -8.6350  -48.6750 O.co2  67  ASP67      -0.2456
    109  N        -50.2460   -9.6110  -48.1970 N.3    70  LEU70      -0.1245
    110  CA       -51.1390  -10.6770  -47.7600 C.3    70  LEU70       0.1561
    111  C        -52.5630  -10.2180  -47.4420 C.2    70  LEU70       0.2260
    112  O        -53.5160  -10.9840  -47.5970 O.2    70  LEU70      -0.2867
    113  CB       -50.5560  -11.3770  -46.5350 C.3    70  LEU70       0.0270
    114  CG       -49.2860  -12.2010  -46.7320 C.3    70  LEU70       0.0019
    115  CD1      -48.7490  -12.7220  -45.4120 C.3    70  LEU70       0.0001
    116  CD2      -49.5730  -13.3590  -47.6660 C.3    70  LEU70       0.0001
    117  N        -30.5370  -13.3330  -32.6380 N.3   158  GLN158     -0.1245
    118  CA       -30.0810  -14.6730  -32.9760 C.3   158  GLN158      0.1566
    119  C        -29.0160  -14.6280  -34.0660 C.2   158  GLN158      0.2260
    120  O        -28.0820  -15.4220  -34.0610 O.2   158  GLN158     -0.2867
    121  CB       -31.2550  -15.5350  -33.4240 C.3   158  GLN158      0.0367
    122  CG       -30.9810  -17.0220  -33.4010 C.3   158  GLN158      0.0905
    123  CD       -32.1920  -17.8320  -33.8100 C.2   158  GLN158      0.2608
    124  OE1      -33.2510  -17.2780  -34.1090 O.2   158  GLN158     -0.2717
    125  NE2      -32.0390  -19.1520  -33.8420 N.am  158  GLN158     -0.0878
    126  N        -31.9690  -16.7090  -27.2570 N.3   317  ASP317     -0.1225
    127  CA       -32.7130  -17.2470  -28.3780 C.3   317  ASP317      0.1805
    128  C        -32.0040  -18.4880  -28.9030 C.2   317  ASP317      0.2597
    129  O        -30.9780  -18.3900  -29.5790 O.2   317  ASP317     -0.2718
    130  CB       -32.8430  -16.1930  -29.4800 C.3   317  ASP317      0.1424
    131  CG       -33.8540  -16.5720  -30.5500 C.2   317  ASP317      0.3668
    132  OD1      -34.0620  -17.7780  -30.8100 O.co2 317  ASP317     -0.2456
    133  OD2      -34.4560  -15.6450  -31.1300 O.co2 317  ASP317     -0.2456
    134  N        -32.5720  -19.6480  -28.5800 N.am  318  GLU318     -0.1979
    135  CA       -32.0560  -20.9450  -28.9940 C.3   318  GLU318      0.1602
    136  C        -30.6180  -21.1540  -28.5390 C.2   318  GLU318      0.2287
    137  O        -29.7180  -21.2290  -29.3580 O.2   318  GLU318     -0.2864
    138  CB       -32.1670  -21.1030  -30.5100 C.3   318  GLU318      0.0415
    139  CG       -31.9450  -22.5150  -31.0190 C.3   318  GLU318      0.1163
    140  CD       -32.9900  -23.4980  -30.5230 C.2   318  GLU318      0.3649
    141  OE1      -34.0990  -23.0630  -30.1590 O.co2 318  GLU318     -0.2457
    142  OE2      -32.7320  -24.7170  -30.5690 O.co2 318  GLU318     -0.2457
    143  N        -35.7910  -19.0130  -25.3190 N.3   353  ILE353     -0.1245
    144  CA       -36.5120  -19.4370  -26.5060 C.3   353  ILE353      0.1561
    145  C        -35.9310  -20.7370  -27.0410 C.2   353  ILE353      0.2260
    146  O        -34.7340  -20.8160  -27.2950 O.2   353  ILE353     -0.2867
    147  CB       -36.4600  -18.3570  -27.6050 C.3   353  ILE353      0.0252
    148  CG1      -37.0900  -17.0530  -27.1060 C.3   353  ILE353      0.0019
    149  CG2      -37.1670  -18.8400  -28.8360 C.3   353  ILE353      0.0019
    150  CD1      -37.3090  -16.0350  -28.2000 C.3   353  ILE353      0.0001
    151  N        -36.8060  -24.8040  -29.2470 N.3   355  HIS355     -0.1241
    152  CA       -37.6250  -25.7950  -29.9300 C.3   355  HIS355      0.1621
    153  C        -37.0700  -27.1850  -29.6180 C.2   355  HIS355      0.2264
    154  O        -37.3890  -28.1610  -30.3040 O.2   355  HIS355     -0.2867
    155  CB       -37.6310  -25.5400  -31.4430 C.3   355  HIS355      0.0745
    156  CG       -36.2740  -25.6220  -32.0780 C.ar  355  HIS355      0.0817
    157  ND1      -35.5000  -26.7630  -32.0350 N.ar  355  HIS355     -0.2268
    158  CD2      -35.5530  -24.7080  -32.7710 C.ar  355  HIS355      0.1154
    159  CE1      -34.3630  -26.5490  -32.6710 C.ar  355  HIS355      0.1986
    160  NE2      -34.3700  -25.3100  -33.1290 N.ar  355  HIS355     -0.2212
    161  N        -48.8030  -20.9980  -35.3410 N.3   376  ARG376     -0.1245
    162  CA       -49.3850  -20.2840  -36.4700 C.3   376  ARG376      0.1563
    163  C        -50.8450  -20.6730  -36.6360 C.2   376  ARG376      0.2260
    164  O        -51.1680  -21.8620  -36.6660 O.2   376  ARG376     -0.2867
    165  CB       -48.6020  -20.5920  -37.7450 C.3   376  ARG376      0.0307
    166  CG       -47.1440  -20.1790  -37.7090 C.3   376  ARG376      0.0489
    167  CD       -46.4160  -20.7570  -38.9020 C.3   376  ARG376      0.2205
    168  NE       -46.3440  -22.2090  -38.7230 N.pl3 376  ARG376     -0.0865
    169  CZ       -45.5900  -23.0370  -39.4370 C.cat 376  ARG376      0.5346
    170  NH1      -44.8170  -22.5760  -40.4060 N.pl3 376  ARG376      0.1354
    171  NH2      -45.6070  -24.3340  -39.1720 N.pl3 376  ARG376      0.1354
@<TRIPOS>BOND
     1   108   106   ar
     2   109   110    1
     3   107   106   ar
     4   110   111    1
     5   110   113    1
     6   106   105    1
     7   116   114    1
     8   112   111    2
     9   114   113    1
    10   114   115    1
    11   105   102    1
    12   103   104    2
    13   103   102    1
    14   102   101    1
    15    63    64    1
    16    64    65    1
    17    65    66    2
    18    65    67   am
    19    67    68    1
    20   101    93   am
    21    71    68    1
    22    68    69    1
    23    94    93    2
    24    93    92    1
    25    86    85    2
    26    69    70    2
    27    69    72   am
    28   100    98   ar
    29   100    99   ar
    30    98    96   ar
    31    99    97   ar
    32    89    87    1
    33    92    91    1
    34    92    95    1
    35    87    84    1
    36    87    88    1
    37    85    91   am
    38    85    84    1
    39    72    73    1
    40    96    97   ar
    41    96    95    1
    42    90    88    1
    43    83    84    1
    44    83    74   am
    45   170   169    1
    46    10     9    1
    47     4     3    2
    48    73    74    1
    49    73    76    1
    50    74    75    2
    51   169   171    1
    52   169   168    2
    53     3     2    1
    54     3    12   am
    55    76    77    1
    56    13    12    1
    57    13    16    1
    58    13    14    1
    59     2     1    1
    60     2     5    1
    61     9    11    1
    62     9     8    2
    63   167   168    1
    64   167   166    1
    65    16    17    1
    66    15    14    2
    67     7     8    1
    68     7     6    1
    69    21    20    2
    70    27    26    1
    71    27    28    1
    72    22    23    1
    73    22    19    1
    74     5     6    1
    75    29    28    2
    76    77    78   ar
    77    77    79   ar
    78   165   166    1
    79   165   162    1
    80    24    23    2
    81    20    26   am
    82    20    19    1
    83    23    25   am
    84    28    30   am
    85    78    80   ar
    86    79    81   ar
    87    19    18    1
    88   164   163    2
    89   163   162    1
    90   162   161    1
    91    30    31    1
    92    80    82   ar
    93    81    82   ar
    94    61    60    1
    95    31    32    1
    96    31    34    1
    97    33    32    2
    98    32    36   am
    99    36    37    1
   100    37    38    1
   101    62    60    1
   102    60    57    1
   103   124   123    2
   104    35    34    1
   105   119   120    2
   106   119   118    1
   107   125   123   am
   108   123   122    1
   109    55    53    1
   110    53    54    1
   111    53    50    1
   112   121   122    1
   113   121   118    1
   114    57    56    1
   115    57    58    1
   116    56    51   am
   117   160   158   ar
   118   160   159   ar
   119    38    40   am
   120    38    39    2
   121   118   117    1
   122   158   156   ar
   123   159   157   ar
   124    40    41    1
   125    51    50    1
   126    51    52    2
   127    48    47    1
   128    50    49    1
   129    49    42   am
   130    58    59    2
   131   156   157   ar
   132   156   155    1
   133   155   152    1
   134    46    47    1
   135    46    45    1
   136    41    42    1
   137    41    44    1
   138    42    43    2
   139   133   131   ar
   140   139   140    1
   141   139   138    1
   142    44    45    1
   143   132   131   ar
   144   142   140   ar
   145   131   130    1
   146   140   141   ar
   147   138   135    1
   148   154   153    2
   149   152   153    1
   150   152   151    1
   151   129   128    2
   152   130   127    1
   153   137   136    2
   154   135   134    1
   155   135   136    1
   156   128   134   am
   157   128   127    1
   158   149   147    1
   159   127   126    1
   160   150   148    1
   161   147   148    1
   162   147   144    1
   163   146   145    2
   164   145   144    1
   165   144   143    1
