@<TRIPOS>MOLECULE
tmp/5dabA01.pdb
 116 111 0 0 0
SMALL
GASTEIGER

@<TRIPOS>ATOM
      1  N         -1.1880   31.9530   -9.8490 N.3    57  VAL57      -0.1245
      2  CA        -1.6040   30.5610   -9.9200 C.3    57  VAL57       0.1561
      3  C         -2.1330   30.1720  -11.2970 C.2    57  VAL57       0.2260
      4  O         -2.2500   31.0100  -12.1920 O.2    57  VAL57      -0.2867
      5  CB        -2.6950   30.2600   -8.8840 C.3    57  VAL57       0.0252
      6  CG1       -2.2760   30.7740   -7.5180 C.3    57  VAL57       0.0019
      7  CG2       -4.0180   30.8860   -9.3120 C.3    57  VAL57       0.0019
      8  N         -5.4200   27.9560  -12.8750 N.3    59  ILE59      -0.1245
      9  CA        -6.6840   27.2770  -12.6170 C.3    59  ILE59       0.1561
     10  C         -7.4430   27.0490  -13.9170 C.2    59  ILE59       0.2260
     11  O         -7.7870   28.0030  -14.6180 O.2    59  ILE59      -0.2867
     12  CB        -7.5760   28.1040  -11.6770 C.3    59  ILE59       0.0252
     13  CG1       -6.8060   28.4910  -10.4130 C.3    59  ILE59       0.0019
     14  CG2       -8.8490   27.3380  -11.3370 C.3    59  ILE59       0.0019
     15  CD1       -7.5120   29.5240   -9.5630 C.3    59  ILE59       0.0001
     16  N         -3.9800   33.1810  -13.2730 N.3    64  LEU64      -0.1231
     17  CA        -4.7130   34.1530  -12.4690 C.3    64  LEU64       0.1693
     18  C         -3.9160   34.6310  -11.2570 C.2    64  LEU64       0.2592
     19  O         -3.3240   33.8300  -10.5240 O.2    64  LEU64      -0.2718
     20  CB        -6.0400   33.5490  -12.0010 C.3    64  LEU64       0.0284
     21  CG        -6.9350   32.9720  -13.1000 C.3    64  LEU64       0.0019
     22  CD1       -8.0950   32.2180  -12.4890 C.3    64  LEU64       0.0001
     23  CD2       -7.4220   34.0760  -14.0430 C.3    64  LEU64       0.0001
     24  N         -3.9130   35.9410  -11.0450 N.am   65  LEU65      -0.1966
     25  CA        -3.2590   36.5310   -9.8850 C.3    65  LEU65       0.1728
     26  C         -4.2510   36.6000   -8.7260 C.2    65  LEU65       0.2617
     27  O         -5.3350   37.1690   -8.8610 O.2    65  LEU65      -0.2715
     28  CB        -2.7300   37.9250  -10.2300 C.3    65  LEU65       0.0311
     29  CG        -1.8410   38.6370   -9.2100 C.3    65  LEU65       0.0022
     30  CD1       -0.5630   37.8580   -8.9690 C.3    65  LEU65       0.0001
     31  CD2       -1.5200   40.0480   -9.6830 C.3    65  LEU65       0.0001
     32  N         -3.8860   36.0080   -7.5940 N.am   66  THR66      -0.1937
     33  CA        -4.7650   35.9750   -6.4330 C.3    66  THR66       0.2013
     34  C         -4.9440   37.3620   -5.8180 C.2    66  THR66       0.2484
     35  O         -3.9660   38.0200   -5.4640 O.2    66  THR66      -0.2729
     36  CB        -4.2160   35.0430   -5.3450 C.3    66  THR66       0.1807
     37  OG1       -2.9660   35.5590   -4.8670 O.3    66  THR66      -0.2208
     38  CG2       -4.0090   33.6410   -5.9030 C.3    66  THR66       0.0379
     39  N         -6.2000   37.8070   -5.6880 N.am   67  PRO67      -0.2726
     40  CA        -6.5020   39.0650   -4.9970 C.3    67  PRO67       0.1402
     41  C         -5.9640   39.0330   -3.5710 C.2    67  PRO67       0.2269
     42  O         -5.5540   40.0550   -3.0360 O.2    67  PRO67      -0.2865
     43  CB        -8.0360   39.0920   -4.9730 C.3    67  PRO67       0.0296
     44  CG        -8.4490   38.2500   -6.1420 C.3    67  PRO67       0.0237
     45  CD        -7.4070   37.1640   -6.2370 C.3    67  PRO67       0.0939
     46  N         -4.3000   25.9520   -4.6710 N.3    83  LEU83      -0.1245
     47  CA        -4.5540   26.3330   -6.0600 C.3    83  LEU83       0.1561
     48  C         -3.4340   25.8630   -6.9890 C.2    83  LEU83       0.2260
     49  O         -2.9700   26.6170   -7.8520 O.2    83  LEU83      -0.2867
     50  CB        -4.7320   27.8530   -6.1840 C.3    83  LEU83       0.0270
     51  CG        -5.8810   28.5040   -5.3970 C.3    83  LEU83       0.0019
     52  CD1       -5.9080   30.0240   -5.6100 C.3    83  LEU83       0.0001
     53  CD2       -7.2250   27.8870   -5.7670 C.3    83  LEU83       0.0001
     54  N         -9.3060   46.6090   -4.6920 N.3   157  MET157     -0.1245
     55  CA        -9.9790   45.9860   -5.8270 C.3   157  MET157      0.1570
     56  C        -10.9420   46.9740   -6.4940 C.2   157  MET157      0.2261
     57  O        -11.6630   47.7010   -5.8120 O.2   157  MET157     -0.2867
     58  CB       -10.7210   44.7250   -5.3870 C.3   157  MET157      0.0387
     59  CG        -9.7950   43.6040   -4.9210 C.3   157  MET157      0.0595
     60  SD        -8.8280   42.8990   -6.2780 S.3   157  MET157     -0.1393
     61  CE       -10.0470   41.8100   -7.0240 C.3   157  MET157      0.0692
     62  N        -13.3910   46.0110   -8.4110 N.3   159  TYR159     -0.1227
     63  CA       -14.6800   45.3390   -8.4550 C.3   159  TYR159      0.1736
     64  C        -14.5650   43.9580   -7.8100 C.2   159  TYR159      0.2595
     65  O        -13.6030   43.2320   -8.0400 O.2   159  TYR159     -0.2718
     66  CB       -15.1590   45.2200   -9.9060 C.3   159  TYR159      0.0548
     67  CG       -16.5930   44.7570  -10.0690 C.ar  159  TYR159     -0.0200
     68  CD1      -17.6410   45.6710  -10.1210 C.ar  159  TYR159     -0.0009
     69  CD2      -16.8990   43.4060  -10.1820 C.ar  159  TYR159     -0.0009
     70  CE1      -18.9520   45.2490  -10.2760 C.ar  159  TYR159      0.0417
     71  CE2      -18.2050   42.9760  -10.3360 C.ar  159  TYR159      0.0417
     72  CZ       -19.2250   43.8970  -10.3810 C.ar  159  TYR159      0.1957
     73  OH       -20.5230   43.4630  -10.5320 O.3   159  TYR159     -0.2866
     74  N        -15.5390   43.6020   -6.9840 N.am  160  LEU160     -0.1966
     75  CA       -15.5340   42.2840   -6.3650 C.3   160  LEU160      0.1728
     76  C        -16.6940   41.4470   -6.8690 C.2   160  LEU160      0.2616
     77  O        -17.7650   41.9680   -7.1860 O.2   160  LEU160     -0.2715
     78  CB       -15.5800   42.3930   -4.8410 C.3   160  LEU160      0.0311
     79  CG       -14.2950   42.8850   -4.1670 C.3   160  LEU160      0.0022
     80  CD1      -14.4940   43.0530   -2.6650 C.3   160  LEU160      0.0001
     81  CD2      -13.1580   41.9300   -4.4560 C.3   160  LEU160      0.0001
     82  N        -16.4730   40.1400   -6.9410 N.am  161  LYS161     -0.1977
     83  CA       -17.5030   39.2320   -7.4080 C.3   161  LYS161      0.1596
     84  C        -18.6960   39.2680   -6.4600 C.2   161  LYS161      0.2287
     85  O        -18.5350   39.3410   -5.2430 O.2   161  LYS161     -0.2864
     86  CB       -16.9390   37.8140   -7.5280 C.3   161  LYS161      0.0298
     87  CG       -17.6090   36.9780   -8.6000 C.3   161  LYS161      0.0038
     88  CD       -16.7060   35.8590   -9.1000 C.3   161  LYS161      0.0206
     89  CE       -17.2880   35.2200  -10.3610 C.3   161  LYS161      0.1093
     90  NZ       -16.4060   34.1520  -10.9280 N.3   161  LYS161     -0.1314
     91  N        -17.7730   39.0400   -2.4430 N.3   171  MET171     -0.1230
     92  CA       -16.9380   37.9460   -1.9510 C.3   171  MET171      0.1702
     93  C        -15.4620   38.2770   -2.1230 C.2   171  MET171      0.2592
     94  O        -15.0380   38.6990   -3.1980 O.2   171  MET171     -0.2718
     95  CB       -17.2040   36.6470   -2.7310 C.3   171  MET171      0.0401
     96  CG       -18.6030   36.0950   -2.6590 C.3   171  MET171      0.0596
     97  SD       -18.6910   34.4670   -3.4540 S.3   171  MET171     -0.1393
     98  CE       -18.3440   34.8740   -5.1670 C.3   171  MET171      0.0692
     99  N        -14.6810   38.0630   -1.0730 N.am  172  ALA172     -0.1966
    100  CA       -13.2330   38.1060   -1.1810 C.3   172  ALA172      0.1728
    101  C        -12.7040   36.7680   -1.7200 C.2   172  ALA172      0.2616
    102  O        -11.7380   36.7320   -2.4840 O.2   172  ALA172     -0.2715
    103  CB       -12.6220   38.4020    0.1700 C.3   172  ALA172      0.0334
    104  N        -13.3380   35.6750   -1.3000 N.am  173  VAL173     -0.1963
    105  CA       -12.9850   34.3260   -1.7480 C.3   173  VAL173      0.1727
    106  C        -14.2760   33.5630   -1.9780 C.2   173  VAL173      0.2616
    107  O        -15.1200   33.4940   -1.0830 O.2   173  VAL173     -0.2715
    108  CB       -12.1640   33.5770   -0.6830 C.3   173  VAL173      0.0290
    109  CG1      -11.7660   32.1760   -1.1760 C.3   173  VAL173      0.0023
    110  CG2      -10.9330   34.3850   -0.2930 C.3   173  VAL173      0.0023
    111  N        -14.4410   32.9980   -3.1700 N.am  174  SER174     -0.1950
    112  CA       -15.6970   32.3360   -3.5010 C.3   174  SER174      0.1924
    113  C        -15.7900   30.9370   -2.8960 C.2   174  SER174      0.2314
    114  O        -14.8260   30.4300   -2.3270 O.2   174  SER174     -0.2863
    115  CB       -15.9070   32.2810   -5.0170 C.3   174  SER174      0.2116
    116  OG       -14.8140   31.6440   -5.6470 O.3   174  SER174     -0.2180
@<TRIPOS>BOND
     1    11    10    2
     2    23    21    1
     3    10     9    1
     4    16    17    1
     5    21    22    1
     6    21    20    1
     7     8     9    1
     8     9    12    1
     9    17    20    1
    10    17    18    1
    11     4     3    2
    12    12    14    1
    13    12    13    1
    14     3     2    1
    15    18    24   am
    16    18    19    2
    17    24    25    1
    18    90    89    1
    19    73    72    1
    20    13    15    1
    21    72    71   ar
    22    72    70   ar
    23    89    88    1
    24    71    69   ar
    25    70    68   ar
    26    28    25    1
    27    28    29    1
    28    69    67   ar
    29    68    67   ar
    30    67    66    1
    31     2     1    1
    32     2     5    1
    33    66    63    1
    34    25    26    1
    35    31    29    1
    36     7     5    1
    37    29    30    1
    38    88    87    1
    39     5     6    1
    40    27    26    2
    41    26    32   am
    42    87    86    1
    43    63    62    1
    44    63    64    1
    45    65    64    2
    46    49    48    2
    47    64    74   am
    48    32    33    1
    49    86    83    1
    50    83    82    1
    51    83    84    1
    52    77    76    2
    53    61    60    1
    54    48    47    1
    55    74    75    1
    56    82    76   am
    57    76    75    1
    58    56    55    1
    59    56    57    2
    60    84    85    2
    61    33    34    1
    62    33    36    1
    63    75    78    1
    64    60    59    1
    65    45    44    1
    66    45    39    1
    67    50    47    1
    68    50    51    1
    69    44    43    1
    70    47    46    1
    71    38    36    1
    72    55    58    1
    73    55    54    1
    74    34    39   am
    75    34    35    2
    76    53    51    1
    77    39    40    1
    78   116   115    1
    79    52    51    1
    80    58    59    1
    81    36    37    1
    82    98    97    1
    83   115   112    1
    84    40    43    1
    85    40    41    1
    86    78    79    1
    87    81    79    1
    88    79    80    1
    89    41    42    2
    90   112   111    1
    91   112   113    1
    92    97    96    1
    93    94    93    2
    94   111   106   am
    95   113   114    2
    96    95    96    1
    97    95    92    1
    98   102   101    2
    99    91    92    1
   100    93    92    1
   101    93    99   am
   102   106   105    1
   103   106   107    2
   104   105   104    1
   105   105   108    1
   106   101   104   am
   107   101   100    1
   108   100    99    1
   109   100   103    1
   110   109   108    1
   111   108   110    1
