@<TRIPOS>MOLECULE
tmp/5dabA00.pdb
 149 136 0 0 0
SMALL
GASTEIGER

@<TRIPOS>ATOM
      1  N         -5.9740   37.8560   -2.9600 N.3    68  VAL68      -0.1245
      2  CA        -5.4900   37.7080   -1.5970 C.3    68  VAL68       0.1561
      3  C         -3.9800   37.4450   -1.5680 C.2    68  VAL68       0.2260
      4  O         -3.4430   36.6950   -2.3970 O.2    68  VAL68      -0.2867
      5  CB        -6.2530   36.5790   -0.8640 C.3    68  VAL68       0.0252
      6  CG1       -5.7400   36.4040    0.5620 C.3    68  VAL68       0.0019
      7  CG2       -7.7560   36.8770   -0.8600 C.3    68  VAL68       0.0019
      8  N         -0.6470   36.0960    0.7960 N.3    70  ARG70      -0.1245
      9  CA        -0.5580   35.0520    1.8050 C.3    70  ARG70       0.1563
     10  C          0.8680   34.6220    2.1220 C.2    70  ARG70       0.2260
     11  O          1.8140   34.9520    1.4010 O.2    70  ARG70      -0.2867
     12  CB        -1.3790   33.8350    1.3640 C.3    70  ARG70       0.0307
     13  CG        -0.7640   33.0650    0.2060 C.3    70  ARG70       0.0489
     14  CD        -1.7920   32.1430   -0.4660 C.3    70  ARG70       0.2205
     15  NE        -2.7090   32.8860   -1.3290 N.pl3  70  ARG70      -0.0865
     16  CZ        -4.0000   33.0850   -1.0730 C.cat  70  ARG70       0.5346
     17  NH1       -4.5640   32.5870    0.0260 N.pl3  70  ARG70       0.1354
     18  NH2       -4.7350   33.7780   -1.9330 N.pl3  70  ARG70       0.1354
     19  N         -1.8080   24.8750   -2.6680 N.3    82  TYR82      -0.1241
     20  CA        -2.9610   25.7670   -2.6470 C.3    82  TYR82       0.1605
     21  C         -3.1600   26.2730   -4.0660 C.2    82  TYR82       0.2264
     22  O         -2.2790   26.9260   -4.6150 O.2    82  TYR82      -0.2867
     23  CB        -2.7040   26.9420   -1.6970 C.3    82  TYR82       0.0534
     24  CG        -3.8780   27.8860   -1.5480 C.ar   82  TYR82      -0.0201
     25  CD1       -4.8980   27.6190   -0.6410 C.ar   82  TYR82      -0.0009
     26  CD2       -3.9640   29.0480   -2.3110 C.ar   82  TYR82      -0.0009
     27  CE1       -5.9800   28.4800   -0.5030 C.ar   82  TYR82       0.0417
     28  CE2       -5.0370   29.9140   -2.1780 C.ar   82  TYR82       0.0417
     29  CZ        -6.0400   29.6230   -1.2730 C.ar   82  TYR82       0.1957
     30  OH        -7.1060   30.4770   -1.1400 O.3    82  TYR82      -0.2866
     31  N         -3.5660   35.0240    5.5340 N.3   150  ASN150     -0.1240
     32  CA        -4.1030   35.7700    4.3990 C.3   150  ASN150      0.1653
     33  C         -4.3290   37.2410    4.7190 C.2   150  ASN150      0.2266
     34  O         -4.5810   37.6000    5.8650 O.2   150  ASN150     -0.2867
     35  CB        -5.4230   35.1530    3.9350 C.3   150  ASN150      0.1155
     36  CG        -5.3520   33.6520    3.8380 C.2   150  ASN150      0.2627
     37  OD1       -4.9160   33.1020    2.8260 O.2   150  ASN150     -0.2716
     38  ND2       -5.7730   32.9720    4.9010 N.am  150  ASN150     -0.0877
     39  N        -13.3380   35.6750   -1.3000 N.3   173  VAL173     -0.1245
     40  CA       -12.9850   34.3260   -1.7480 C.3   173  VAL173      0.1561
     41  C        -14.2760   33.5630   -1.9780 C.2   173  VAL173      0.2260
     42  O        -15.1200   33.4940   -1.0830 O.2   173  VAL173     -0.2867
     43  CB       -12.1640   33.5770   -0.6830 C.3   173  VAL173      0.0252
     44  CG1      -11.7660   32.1760   -1.1760 C.3   173  VAL173      0.0019
     45  CG2      -10.9330   34.3850   -0.2930 C.3   173  VAL173      0.0019
     46  N        -15.7420   27.2860   -1.7850 N.3   176  HIS176     -0.1241
     47  CA       -14.8110   26.1860   -2.0160 C.3   176  HIS176      0.1621
     48  C        -14.6750   25.3730   -0.7370 C.2   176  HIS176      0.2264
     49  O        -15.2490   25.7350    0.2950 O.2   176  HIS176     -0.2867
     50  CB       -13.4330   26.7340   -2.4140 C.3   176  HIS176      0.0745
     51  CG       -12.7260   27.4240   -1.2890 C.ar  176  HIS176      0.0817
     52  ND1      -13.2040   28.5810   -0.7100 N.ar  176  HIS176     -0.2268
     53  CD2      -11.6070   27.0950   -0.6040 C.ar  176  HIS176      0.1154
     54  CE1      -12.3920   28.9500    0.2650 C.ar  176  HIS176      0.1986
     55  NE2      -11.4210   28.0620    0.3560 N.ar  176  HIS176     -0.2212
     56  N        -11.4800   23.6760    1.7910 N.3   178  ASP178     -0.1239
     57  CA       -10.0410   23.6730    2.0450 C.3   178  ASP178      0.1674
     58  C         -9.4990   22.3090    1.6270 C.2   178  ASP178      0.2266
     59  O         -9.9440   21.2790    2.1280 O.2   178  ASP178     -0.2867
     60  CB        -9.7320   23.9390    3.5210 C.3   178  ASP178      0.1410
     61  CG        -9.9270   25.3980    3.9110 C.2   178  ASP178      0.3668
     62  OD1      -10.3620   26.1950    3.0610 O.co2 178  ASP178     -0.2456
     63  OD2       -9.6580   25.7390    5.0780 O.co2 178  ASP178     -0.2456
     64  N         -9.6930   29.0070   12.3640 N.3   189  VAL189     -0.1245
     65  CA        -9.3720   30.2980   11.7790 C.3   189  VAL189      0.1561
     66  C         -9.4400   31.4130   12.8110 C.2   189  VAL189      0.2260
     67  O        -10.4260   31.5410   13.5400 O.2   189  VAL189     -0.2867
     68  CB       -10.3300   30.6400   10.6180 C.3   189  VAL189      0.0252
     69  CG1      -10.0670   32.0620   10.1030 C.3   189  VAL189      0.0019
     70  CG2      -10.1950   29.6060    9.4910 C.3   189  VAL189      0.0019
     71  N        -17.8690   34.9110    7.2240 N.3   206  VAL206     -0.1245
     72  CA       -17.6260   33.6540    6.5410 C.3   206  VAL206      0.1561
     73  C        -18.9990   33.1120    6.1540 C.2   206  VAL206      0.2260
     74  O        -19.9240   33.1070    6.9680 O.2   206  VAL206     -0.2867
     75  CB       -16.8250   32.6530    7.4100 C.3   206  VAL206      0.0252
     76  CG1      -17.5090   32.4180    8.7540 C.3   206  VAL206      0.0019
     77  CG2      -16.6260   31.3420    6.6660 C.3   206  VAL206      0.0019
     78  N        -17.7810   38.1950   11.2990 N.3   223  LEU223     -0.1245
     79  CA       -16.4970   38.0060   11.9600 C.3   223  LEU223      0.1561
     80  C        -15.9510   39.3590   12.3600 C.2   223  LEU223      0.2260
     81  O        -15.5540   40.1520   11.5120 O.2   223  LEU223     -0.2867
     82  CB       -15.4960   37.2840   11.0480 C.3   223  LEU223      0.0270
     83  CG       -15.8530   35.8430   10.6590 C.3   223  LEU223      0.0019
     84  CD1      -14.7740   35.2310    9.7550 C.3   223  LEU223      0.0001
     85  CD2      -16.0790   34.9850   11.9000 C.3   223  LEU223      0.0001
     86  N        -13.3370   30.8810   14.1940 N.3   229  TYR229     -0.1241
     87  CA       -14.2980   29.8340   13.8730 C.3   229  TYR229      0.1605
     88  C        -13.5960   28.5220   13.5290 C.2   229  TYR229      0.2264
     89  O        -12.4460   28.5200   13.0720 O.2   229  TYR229     -0.2867
     90  CB       -15.2750   30.2760   12.7790 C.3   229  TYR229      0.0534
     91  CG       -14.6900   30.4290   11.3880 C.ar  229  TYR229     -0.0201
     92  CD1      -14.6940   29.3660   10.4980 C.ar  229  TYR229     -0.0009
     93  CD2      -14.1700   31.6460   10.9570 C.ar  229  TYR229     -0.0009
     94  CE1      -14.1760   29.5010    9.2180 C.ar  229  TYR229      0.0417
     95  CE2      -13.6530   31.7940    9.6780 C.ar  229  TYR229      0.0417
     96  CZ       -13.6570   30.7160    8.8160 C.ar  229  TYR229      0.1957
     97  OH       -13.1570   30.8450    7.5430 O.3   229  TYR229     -0.2866
     98  N        -17.5160   26.8700    1.8860 N.3   241  HIS241     -0.1241
     99  CA       -17.4790   28.1500    2.5730 C.3   241  HIS241      0.1621
    100  C        -16.8650   29.2150    1.6700 C.2   241  HIS241      0.2264
    101  O        -16.1110   28.9120    0.7440 O.2   241  HIS241     -0.2867
    102  CB       -16.6920   28.0510    3.8820 C.3   241  HIS241      0.0745
    103  CG       -15.2350   27.7660    3.6900 C.ar  241  HIS241      0.0817
    104  ND1      -14.7560   26.5050    3.4160 N.ar  241  HIS241     -0.2268
    105  CD2      -14.1520   28.5810    3.7260 C.ar  241  HIS241      0.1154
    106  CE1      -13.4400   26.5520    3.2960 C.ar  241  HIS241      0.1986
    107  NE2      -13.0500   27.8000    3.4790 N.ar  241  HIS241     -0.2212
    108  N        -15.5910   33.6820    1.7480 N.3   243  VAL243     -0.1245
    109  CA       -15.3210   34.8120    2.6190 C.3   243  VAL243      0.1561
    110  C        -15.9700   36.0490    2.0280 C.2   243  VAL243      0.2260
    111  O        -15.6990   36.4150    0.8830 O.2   243  VAL243     -0.2867
    112  CB       -13.8180   35.0350    2.8280 C.3   243  VAL243      0.0252
    113  CG1      -13.5810   36.3090    3.6390 C.3   243  VAL243      0.0019
    114  CG2      -13.2090   33.8210    3.5190 C.3   243  VAL243      0.0019
    115  N         -8.3290   43.0780    6.1520 N.3   250  ARG250     -0.1245
    116  CA        -8.4880   41.9890    7.1090 C.3   250  ARG250      0.1563
    117  C         -7.4110   40.9190    6.9370 C.2   250  ARG250      0.2260
    118  O         -7.0610   40.5470    5.8150 O.2   250  ARG250     -0.2867
    119  CB        -9.8860   41.3710    6.9770 C.3   250  ARG250      0.0307
    120  CG       -10.1150   40.1200    7.8190 C.3   250  ARG250      0.0489
    121  CD       -10.7130   39.0090    6.9700 C.3   250  ARG250      0.2205
    122  NE       -11.1510   37.8540    7.7570 N.pl3 250  ARG250     -0.0865
    123  CZ       -11.1140   36.6020    7.3130 C.cat 250  ARG250      0.5346
    124  NH1      -10.6460   36.3480    6.0970 N.pl3 250  ARG250      0.1354
    125  NH2      -11.5290   35.6040    8.0830 N.pl3 250  ARG250      0.1354
    126  N         -6.2250   36.9210    8.2720 N.3   252  SER252     -0.1217
    127  CA        -6.6760   35.7080    8.9360 C.3   252  SER252      0.1889
    128  C         -5.5380   34.6970    9.0560 C.2   252  SER252      0.2288
    129  O         -4.6130   34.6670    8.2330 O.2   252  SER252     -0.2866
    130  CB        -7.8860   35.0840    8.2160 C.3   252  SER252      0.2089
    131  OG        -7.5230   34.5410    6.9600 O.3   252  SER252     -0.2183
    132  N         -5.2060   30.6520    9.2390 N.3   254  THR254     -0.1218
    133  CA        -5.9900   29.4440    9.0150 C.3   254  THR254      0.1862
    134  C         -5.1620   28.1810    9.2700 C.2   254  THR254      0.2287
    135  O         -4.3770   27.7300    8.4150 O.2   254  THR254     -0.2866
    136  CB        -6.6110   29.4400    7.5980 C.3   254  THR254      0.1770
    137  OG1       -5.5700   29.4710    6.6160 O.3   254  THR254     -0.2211
    138  CG2       -7.4920   30.6770    7.4000 C.3   254  THR254      0.0375
    139  N         -4.3540   24.2980    9.8440 N.3   256  ARG256     -0.1245
    140  CA        -4.7830   23.1080    9.1250 C.3   256  ARG256      0.1563
    141  C         -3.8820   21.9240    9.4380 C.2   256  ARG256      0.2260
    142  O         -2.7170   22.0940    9.7940 O.2   256  ARG256     -0.2867
    143  CB        -4.7230   23.3710    7.6160 C.3   256  ARG256      0.0307
    144  CG        -5.3960   24.6640    7.1840 C.3   256  ARG256      0.0489
    145  CD        -4.6450   25.3120    6.0260 C.3   256  ARG256      0.2205
    146  NE        -5.2690   26.5610    5.6030 N.pl3 256  ARG256     -0.0865
    147  CZ        -6.0170   26.6810    4.5120 C.cat 256  ARG256      0.5346
    148  NH1       -6.2150   25.6220    3.7400 N.pl3 256  ARG256      0.1354
    149  NH2       -6.5580   27.8570    4.1890 N.pl3 256  ARG256      0.1354
@<TRIPOS>BOND
     1    22    21    2
     2    21    20    1
     3     1     2    1
     4    19    20    1
     5    20    23    1
     6    50    47    1
     7    50    51    1
     8     4     3    2
     9    26    28   ar
    10    26    24   ar
    11    28    29   ar
    12    47    46    1
    13    47    48    1
    14    41    40    1
    15    41    42    2
    16    18    16    1
    17    40    39    1
    18    40    43    1
    19    23    24    1
    20     2     3    1
    21     2     5    1
    22    24    25   ar
    23    15    16    2
    24    15    14    1
    25    51    52   ar
    26    51    53   ar
    27    29    30    1
    28    29    27   ar
    29    44    43    1
    30    16    17    1
    31     5     7    1
    32     5     6    1
    33    48    49    2
    34    52    54   ar
    35    43    45    1
    36    25    27   ar
    37    53    55   ar
    38    14    13    1
    39    13    12    1
    40    54    55   ar
    41   101   100    2
    42     8     9    1
    43   111   110    2
    44    12     9    1
    45    11    10    2
    46    58    57    1
    47    58    59    2
    48   100    99    1
    49   108   109    1
    50    56    57    1
    51     9    10    1
    52    98    99    1
    53   110   109    1
    54    57    60    1
    55    99   102    1
    56   109   112    1
    57    37    36    2
    58   112   114    1
    59   112   113    1
    60    62    61   ar
    61   106   104   ar
    62   106   107   ar
    63   104   103   ar
    64   107   105   ar
    65    60    61    1
    66   103   105   ar
    67   103   102    1
    68   148   147    1
    69    36    35    1
    70    36    38   am
    71    61    63   ar
    72    35    32    1
    73   149   147    1
    74    32    33    1
    75    32    31    1
    76   147   146    2
    77    33    34    2
    78   146   145    1
    79   118   117    2
    80   145   144    1
    81   124   123    1
    82   115   116    1
    83    73    72    1
    84    73    74    2
    85    72    71    1
    86    72    75    1
    87   137   136    1
    88    77    75    1
    89   117   116    1
    90   131   130    1
    91   121   122    1
    92   121   120    1
    93   119   116    1
    94   119   120    1
    95   144   143    1
    96   123   122    2
    97   123   125    1
    98   138   136    1
    99    75    76    1
   100    97    96    1
   101   136   133    1
   102   143   140    1
   103   130   127    1
   104   129   128    2
   105   126   127    1
   106   135   134    2
   107    96    94   ar
   108    96    95   ar
   109   127   128    1
   110   133   132    1
   111   133   134    1
   112   140   141    1
   113   140   139    1
   114    94    92   ar
   115   141   142    2
   116    70    68    1
   117    95    93   ar
   118    84    83    1
   119    69    68    1
   120    92    91   ar
   121    68    65    1
   122    83    82    1
   123    83    85    1
   124    93    91   ar
   125    82    79    1
   126    78    79    1
   127    91    90    1
   128    81    80    2
   129    65    64    1
   130    65    66    1
   131    79    80    1
   132    90    87    1
   133    66    67    2
   134    89    88    2
   135    88    87    1
   136    87    86    1
