@<TRIPOS>MOLECULE
tmp/5dacB00.pdb
 93 87 0 0 0
SMALL
GASTEIGER

@<TRIPOS>ATOM
      1  N         47.1380   45.6360   25.1900 N.3   285  ASP285     -0.1225
      2  CA        47.8630   44.5120   25.7480 C.3   285  ASP285      0.1805
      3  C         47.0130   43.2350   25.7790 C.2   285  ASP285      0.2597
      4  O         47.5430   42.1360   25.9110 O.2   285  ASP285     -0.2718
      5  CB        48.3550   44.8820   27.1420 C.3   285  ASP285      0.1424
      6  CG        47.2160   45.2870   28.0880 C.2   285  ASP285      0.3668
      7  OD1       46.2600   45.9490   27.6390 O.co2 285  ASP285     -0.2456
      8  OD2       47.3020   44.9660   29.2920 O.co2 285  ASP285     -0.2456
      9  N         45.6940   43.3940   25.6800 N.am  286  ILE286     -0.1980
     10  CA        44.7530   42.2820   25.6590 C.3   286  ILE286      0.1595
     11  C         43.8230   42.4450   24.4750 C.2   286  ILE286      0.2287
     12  O         43.0640   43.4140   24.4070 O.2   286  ILE286     -0.2864
     13  CB        43.8950   42.1940   26.9410 C.3   286  ILE286      0.0276
     14  CG1       44.7640   42.1100   28.2030 C.3   286  ILE286      0.0022
     15  CG2       42.9140   41.0360   26.8480 C.3   286  ILE286      0.0022
     16  CD1       43.9460   42.1490   29.5090 C.3   286  ILE286      0.0001
     17  N         42.8790   35.4400   28.9370 N.3   315  MET315     -0.1245
     18  CA        43.0310   36.6190   28.1130 C.3   315  MET315      0.1570
     19  C         43.9030   36.2510   26.9260 C.2   315  MET315      0.2261
     20  O         44.8550   35.4850   27.0560 O.2   315  MET315     -0.2867
     21  CB        43.6210   37.7620   28.9440 C.3   315  MET315      0.0387
     22  CG        44.8750   37.3490   29.6910 C.3   315  MET315      0.0595
     23  SD        45.5700   38.5950   30.7930 S.3   315  MET315     -0.1393
     24  CE        46.1520   37.5350   32.1180 C.3   315  MET315      0.0692
     25  N         46.5960   33.3040   28.2770 N.3   322  MET322     -0.1245
     26  CA        46.9120   33.0760   29.6760 C.3   322  MET322      0.1570
     27  C         45.6730   33.1810   30.5360 C.2   322  MET322      0.2261
     28  O         44.7180   33.8650   30.1870 O.2   322  MET322     -0.2867
     29  CB        47.9370   34.0940   30.1760 C.3   322  MET322      0.0387
     30  CG        49.2040   34.2270   29.3410 C.3   322  MET322      0.0595
     31  SD        50.0700   35.7870   29.6860 S.3   322  MET322     -0.1393
     32  CE        50.1650   35.7850   31.4840 C.3   322  MET322      0.0692
     33  N         44.8710   36.1020   38.9240 N.3   326  GLY326     -0.1210
     34  CA        46.1680   36.3800   39.5130 C.3   326  GLY326      0.1956
     35  C         47.0720   37.1540   38.5670 C.2   326  GLY326      0.2612
     36  O         48.2310   37.4190   38.8870 O.2   326  GLY326     -0.2717
     37  N         46.5380   37.5410   37.4090 N.am  327  ARG327     -0.1965
     38  CA        47.3500   38.1670   36.3670 C.3   327  ARG327      0.1729
     39  C         46.7640   39.4170   35.7290 C.2   327  ARG327      0.2616
     40  O         47.3310   39.9170   34.7660 O.2   327  ARG327     -0.2715
     41  CB        47.6480   37.1790   35.2380 C.3   327  ARG327      0.0348
     42  CG        48.6800   36.1280   35.5750 C.3   327  ARG327      0.0492
     43  CD        48.9220   35.2160   34.3890 C.3   327  ARG327      0.2205
     44  NE        49.6670   34.0290   34.7860 N.pl3 327  ARG327     -0.0865
     45  CZ        49.1100   32.9620   35.3470 C.cat 327  ARG327      0.5346
     46  NH1       47.8040   32.9460   35.5750 N.pl3 327  ARG327      0.1354
     47  NH2       49.8550   31.9160   35.6790 N.pl3 327  ARG327      0.1354
     48  N         45.6190   39.8950   36.2050 N.am  328  CYS328     -0.1954
     49  CA        45.0300   41.0770   35.5990 C.3   328  CYS328      0.1843
     50  C         45.0110   42.2390   36.5800 C.2   328  CYS328      0.2626
     51  O         45.0390   42.0350   37.7870 O.2   328  CYS328     -0.2714
     52  CB        43.6260   40.7680   35.1130 C.3   328  CYS328      0.0997
     53  SG        42.5920   40.1500   36.4570 S.3   328  CYS328     -0.0797
     54  N         44.9790   43.4590   36.0530 N.am  329  SER329     -0.1936
     55  CA        44.9680   44.6550   36.8850 C.3   329  SER329      0.2055
     56  C         43.6000   44.8910   37.5180 C.2   329  SER329      0.2643
     57  O         42.6320   44.2120   37.1870 O.2   329  SER329     -0.2714
     58  CB        45.3790   45.8650   36.0630 C.3   329  SER329      0.2130
     59  OG        44.2830   46.3450   35.2980 O.3   329  SER329     -0.2179
     60  N         43.5220   45.8410   38.4400 N.am  330  ALA330     -0.1963
     61  CA        42.2610   46.1900   39.1000 C.3   330  ALA330      0.1728
     62  C         41.1900   46.6020   38.0900 C.2   330  ALA330      0.2617
     63  O         40.0350   46.1650   38.1880 O.2   330  ALA330     -0.2715
     64  CB        42.4800   47.3000   40.1210 C.3   330  ALA330      0.0334
     65  N         41.5860   47.4550   37.1430 N.am  331  GLY331     -0.1940
     66  CA        40.6890   47.9480   36.1120 C.3   331  GLY331      0.2014
     67  C         40.2260   46.8770   35.1300 C.2   331  GLY331      0.2638
     68  O         39.0590   46.8430   34.7350 O.2   331  GLY331     -0.2714
     69  N         41.1500   46.0060   34.7300 N.am  332  GLN332     -0.1977
     70  CA        40.8240   44.8900   33.8600 C.3   332  GLN332      0.1601
     71  C         39.7830   43.9780   34.4900 C.2   332  GLN332      0.2287
     72  O         38.8530   43.5420   33.8100 O.2   332  GLN332     -0.2864
     73  CB        42.1000   44.1040   33.5030 C.3   332  GLN332      0.0394
     74  CG        42.9750   44.7920   32.4470 C.3   332  GLN332      0.0908
     75  CD        44.3970   44.2710   32.4220 C.2   332  GLN332      0.2608
     76  OE1       44.8180   43.5510   33.3300 O.2   332  GLN332     -0.2717
     77  NE2       45.1530   44.6540   31.4050 N.am  332  GLN332     -0.0878
     78  N         37.8600   52.0260   39.2810 N.3   363  ASN363     -0.1240
     79  CA        39.2480   51.8020   38.8870 C.3   363  ASN363      0.1653
     80  C         39.5320   51.9500   37.3910 C.2   363  ASN363      0.2266
     81  O         40.6490   51.6690   36.9440 O.2   363  ASN363     -0.2867
     82  CB        39.7000   50.4100   39.3330 C.3   363  ASN363      0.1155
     83  CG        39.8730   50.3040   40.8410 C.2   363  ASN363      0.2627
     84  OD1       40.1930   51.2830   41.5220 O.2   363  ASN363     -0.2716
     85  ND2       39.7000   49.0970   41.3630 N.am  363  ASN363     -0.0877
     86  N         40.3620   54.0200   33.9890 N.3   365  ASP365     -0.1239
     87  CA        40.9940   55.2580   33.5480 C.3   365  ASP365      0.1674
     88  C         40.0800   56.0380   32.5710 C.2   365  ASP365      0.2266
     89  O         39.0120   55.5580   32.1900 O.2   365  ASP365     -0.2867
     90  CB        42.3850   54.9700   32.9210 C.3   365  ASP365      0.1410
     91  CG        42.3270   54.1400   31.6080 C.2   365  ASP365      0.3668
     92  OD1       41.4250   54.3540   30.7620 O.co2 365  ASP365     -0.2456
     93  OD2       43.2110   53.2660   31.4220 O.co2 365  ASP365     -0.2456
@<TRIPOS>BOND
     1    12    11    2
     2    11    10    1
     3     1     2    1
     4    10     9    1
     5    10    13    1
     6     9     3   am
     7     2     3    1
     8     2     5    1
     9     3     4    2
    10    15    13    1
    11    19    20    2
    12    19    18    1
    13    13    14    1
    14     5     6    1
    15     7     6   ar
    16     6     8   ar
    17    18    17    1
    18    18    21    1
    19    14    16    1
    20    25    26    1
    21    21    22    1
    22    30    31    1
    23    30    29    1
    24    26    29    1
    25    26    27    1
    26    31    32    1
    27    22    23    1
    28    28    27    2
    29    92    91   ar
    30    23    24    1
    31    77    75   am
    32    93    91   ar
    33    91    90    1
    34    89    88    2
    35    75    74    1
    36    75    76    2
    37    74    73    1
    38    88    87    1
    39    90    87    1
    40    73    70    1
    41    87    86    1
    42    72    71    2
    43    70    71    1
    44    70    69    1
    45    43    44    1
    46    43    42    1
    47    69    67   am
    48    68    67    2
    49    40    39    2
    50    44    45    2
    51    52    49    1
    52    52    53    1
    53    67    66    1
    54    41    42    1
    55    41    38    1
    56    59    58    1
    57    45    46    1
    58    45    47    1
    59    49    48    1
    60    49    50    1
    61    39    48   am
    62    39    38    1
    63    54    50   am
    64    54    55    1
    65    58    55    1
    66    66    65    1
    67    38    37    1
    68    50    51    2
    69    55    56    1
    70    81    80    2
    71    65    62   am
    72    57    56    2
    73    80    79    1
    74    37    35   am
    75    56    60   am
    76    62    63    2
    77    62    61    1
    78    60    61    1
    79    35    36    2
    80    35    34    1
    81    79    78    1
    82    79    82    1
    83    33    34    1
    84    61    64    1
    85    82    83    1
    86    83    85   am
    87    83    84    2
