@<TRIPOS>MOLECULE
tmp/5dacB01.pdb
 169 160 0 0 0
SMALL
GASTEIGER

@<TRIPOS>ATOM
      1  N         18.3370   49.8480   56.0410 N.3    12  ARG12      -0.1231
      2  CA        19.5970   50.5650   56.2230 C.3    12  ARG12       0.1694
      3  C         19.3360   52.0250   56.5680 C.2    12  ARG12       0.2592
      4  O         18.6620   52.3150   57.5510 O.2    12  ARG12      -0.2718
      5  CB        20.4810   50.4360   54.9820 C.3    12  ARG12       0.0321
      6  CG        20.9330   48.9900   54.7470 C.3    12  ARG12       0.0489
      7  CD        22.2260   48.9130   53.9500 C.3    12  ARG12       0.2205
      8  NE        22.5940   47.5540   53.5260 N.pl3  12  ARG12      -0.0865
      9  CZ        23.3840   46.7140   54.2030 C.cat  12  ARG12       0.5346
     10  NH1       23.9060   47.0640   55.3750 N.pl3  12  ARG12       0.1354
     11  NH2       23.6560   45.5140   53.7010 N.pl3  12  ARG12       0.1354
     12  N         19.9040   52.9350   55.7950 N.am   13  SER13      -0.1952
     13  CA        19.7440   54.3710   56.0320 C.3    13  SER13       0.1924
     14  C         18.3400   54.9260   55.6670 C.2    13  SER13       0.2314
     15  O         18.0660   56.1090   55.8540 O.2    13  SER13      -0.2863
     16  CB        20.8240   55.1420   55.2570 C.3    13  SER13       0.2116
     17  OG        20.7690   54.8590   53.8660 O.3    13  SER13      -0.2180
     18  N         28.5960   59.3650   48.1800 N.3    35  ASN35      -0.1225
     19  CA        29.0160   58.2440   49.0010 C.3    35  ASN35       0.1785
     20  C         28.1080   58.1050   50.2440 C.2    35  ASN35       0.2598
     21  O         27.9160   59.0620   51.0010 O.2    35  ASN35      -0.2718
     22  CB        30.4790   58.4190   49.4440 C.3    35  ASN35       0.1169
     23  CG        31.4790   58.2400   48.3000 C.2    35  ASN35       0.2627
     24  OD1       32.3280   59.1050   48.0450 O.2    35  ASN35      -0.2716
     25  ND2       31.3960   57.0960   47.6240 N.am   35  ASN35      -0.0877
     26  N         27.5620   56.9100   50.4420 N.am   36  GLY36      -0.1942
     27  CA        26.7290   56.6080   51.5870 C.3    36  GLY36       0.2014
     28  C         25.3010   57.1320   51.5130 C.2    36  GLY36       0.2640
     29  O         24.5570   56.9870   52.4780 O.2    36  GLY36      -0.2714
     30  N         24.9100   57.7320   50.3890 N.am   37  SER37      -0.1935
     31  CA        23.5430   58.2320   50.2120 C.3    37  SER37       0.2055
     32  C         22.5090   57.0980   50.2770 C.2    37  SER37       0.2644
     33  O         21.4020   57.2980   50.7860 O.2    37  SER37      -0.2714
     34  CB        23.4000   59.0140   48.9040 C.3    37  SER37       0.2130
     35  OG        23.8230   58.2540   47.7960 O.3    37  SER37      -0.2179
     36  N         22.8520   55.9210   49.7570 N.am   38  GLY38      -0.1939
     37  CA        21.9090   54.8110   49.7430 C.3    38  GLY38       0.2014
     38  C         21.5750   54.1820   48.4030 C.2    38  GLY38       0.2639
     39  O         20.5620   53.4990   48.2620 O.2    38  GLY38      -0.2714
     40  N         22.4230   54.4050   47.4100 N.am   39  LYS39      -0.1963
     41  CA        22.1550   53.8910   46.0770 C.3    39  LYS39       0.1728
     42  C         22.2280   52.3670   45.9820 C.2    39  LYS39       0.2617
     43  O         21.3770   51.7400   45.3600 O.2    39  LYS39      -0.2715
     44  CB        23.1190   54.5340   45.0870 C.3    39  LYS39       0.0311
     45  CG        23.1520   56.0360   45.2090 C.3    39  LYS39       0.0038
     46  CD        24.2990   56.5940   44.4140 C.3    39  LYS39       0.0206
     47  CE        25.5940   56.0980   45.0260 C.3    39  LYS39       0.1093
     48  NZ        26.4860   57.2100   45.3830 N.3    39  LYS39      -0.1314
     49  N         23.2510   51.7810   46.5950 N.am   40  THR40      -0.1937
     50  CA        23.4540   50.3330   46.5470 C.3    40  THR40       0.2028
     51  C         22.3140   49.6360   47.2830 C.2    40  THR40       0.2642
     52  O         21.8800   48.5340   46.9040 O.2    40  THR40      -0.2714
     53  CB        24.7970   49.9460   47.1890 C.3    40  THR40       0.1808
     54  OG1       25.8590   50.5370   46.4390 O.3    40  THR40      -0.2208
     55  CG2       24.9720   48.4540   47.2620 C.3    40  THR40       0.0379
     56  N         21.7930   50.3170   48.2960 N.am   41  THR41      -0.1950
     57  CA        20.6660   49.8070   49.0500 C.3    41  THR41       0.1897
     58  C         19.4830   49.5790   48.1140 C.2    41  THR41       0.2313
     59  O         18.7830   48.5690   48.2310 O.2    41  THR41      -0.2863
     60  CB        20.3060   50.7690   50.2190 C.3    41  THR41       0.1794
     61  OG1       21.4990   51.0290   50.9790 O.3    41  THR41      -0.2208
     62  CG2       19.2510   50.1730   51.1550 C.3    41  THR41       0.0378
     63  N         20.0110   46.3520   46.5790 N.3    44  GLU44      -0.1245
     64  CA        19.7840   45.3460   47.6110 C.3    44  GLU44       0.1567
     65  C         18.3000   45.0570   47.7690 C.2    44  GLU44       0.2260
     66  O         17.9060   43.9080   47.9490 O.2    44  GLU44      -0.2867
     67  CB        20.3840   45.7540   48.9690 C.3    44  GLU44       0.0388
     68  CG        21.9030   45.7880   49.0420 C.3    44  GLU44       0.1160
     69  CD        22.4330   46.3560   50.3620 C.2    44  GLU44       0.3649
     70  OE1       21.6340   46.7730   51.2310 O.co2  44  GLU44      -0.2457
     71  OE2       23.6700   46.3520   50.5480 O.co2  44  GLU44      -0.2457
     72  N         20.8360   42.0940   61.8480 N.3    62  GLY62      -0.1210
     73  CA        19.9680   43.1800   61.4410 C.3    62  GLY62       0.1956
     74  C         20.7040   44.3770   60.8670 C.2    62  GLY62       0.2611
     75  O         20.2650   45.5170   61.0200 O.2    62  GLY62      -0.2717
     76  N         21.8290   44.1140   60.2070 N.am   63  ALA63      -0.1979
     77  CA        22.5430   45.1600   59.5010 C.3    63  ALA63       0.1597
     78  C         21.6530   45.7130   58.3850 C.2    63  ALA63       0.2287
     79  O         21.7350   46.8940   58.0530 O.2    63  ALA63      -0.2864
     80  CB        23.8620   44.6410   58.9410 C.3    63  ALA63       0.0319
     81  N         18.3340   46.0520   58.4880 N.3    65  ILE65      -0.1231
     82  CA        17.2840   46.8990   59.0360 C.3    65  ILE65       0.1692
     83  C         17.8120   48.2020   59.6490 C.2    65  ILE65       0.2592
     84  O         18.8130   48.2020   60.3490 O.2    65  ILE65      -0.2718
     85  CB        16.4660   46.1430   60.0820 C.3    65  ILE65       0.0266
     86  CG1       15.7280   44.9840   59.4250 C.3    65  ILE65       0.0019
     87  CG2       15.4380   47.0670   60.6830 C.3    65  ILE65       0.0020
     88  CD1       16.5520   43.7410   59.2490 C.3    65  ILE65       0.0001
     89  N         17.1460   49.3150   59.3350 N.am   66  HIS66      -0.1962
     90  CA        17.4700   50.6180   59.9140 C.3    66  HIS66       0.1787
     91  C         17.6130   50.4790   61.4290 C.2    66  HIS66       0.2620
     92  O         16.6950   49.9940   62.0980 O.2    66  HIS66      -0.2715
     93  CB        16.3940   51.6230   59.5350 C.3    66  HIS66       0.0785
     94  CG        16.6990   53.0330   59.9290 C.ar   66  HIS66       0.0821
     95  ND1       17.5570   53.8370   59.2120 N.ar   66  HIS66      -0.2267
     96  CD2       16.1960   53.8090   60.9190 C.ar   66  HIS66       0.1154
     97  CE1       17.5970   55.0370   59.7620 C.ar   66  HIS66       0.1986
     98  NE2       16.7770   55.0480   60.7990 N.ar   66  HIS66      -0.2212
     99  N         18.7600   50.8930   61.9680 N.am   67  ASP67      -0.1971
    100  CA        19.0990   50.5830   63.3570 C.3    67  ASP67       0.1709
    101  C         18.2020   51.3190   64.3560 C.2    67  ASP67       0.2293
    102  O         18.1470   52.5550   64.3890 O.2    67  ASP67      -0.2864
    103  CB        20.5690   50.8920   63.6370 C.3    67  ASP67       0.1436
    104  CG        20.9980   50.4610   65.0310 C.2    67  ASP67       0.3671
    105  OD1       20.7710   51.2060   66.0000 O.co2  67  ASP67      -0.2456
    106  OD2       21.5640   49.3610   65.1670 O.co2  67  ASP67      -0.2456
    107  N         18.9560   54.6100   66.2500 N.3    70  LEU70      -0.1245
    108  CA        18.9100   55.8820   65.5310 C.3    70  LEU70       0.1561
    109  C         17.5570   56.5800   65.6130 C.2    70  LEU70       0.2260
    110  O         17.4860   57.8080   65.5700 O.2    70  LEU70      -0.2867
    111  CB        19.2620   55.6910   64.0600 C.3    70  LEU70       0.0270
    112  CG        20.7140   55.3790   63.7230 C.3    70  LEU70       0.0019
    113  CD1       20.8510   55.1270   62.2270 C.3    70  LEU70       0.0001
    114  CD2       21.6420   56.4760   64.2000 C.3    70  LEU70       0.0001
    115  N         27.1890   44.8060   44.7930 N.3   158  GLN158     -0.1245
    116  CA        28.4120   45.5310   44.4840 C.3   158  GLN158      0.1566
    117  C         29.6330   44.8560   45.0820 C.2   158  GLN158      0.2260
    118  O         30.6850   44.8330   44.4510 O.2   158  GLN158     -0.2867
    119  CB        28.3260   46.9690   44.9780 C.3   158  GLN158      0.0367
    120  CG        29.5770   47.7830   44.7070 C.3   158  GLN158      0.0905
    121  CD        29.4100   49.2360   45.1260 C.2   158  GLN158      0.2608
    122  OE1       28.6930   49.5500   46.0840 O.2   158  GLN158     -0.2717
    123  NE2       30.0790   50.1230   44.4200 N.am  158  GLN158     -0.0878
    124  N         26.2140   48.5640   39.2320 N.3   358  ASP358     -0.1225
    125  CA        26.4520   49.4520   40.3610 C.3   358  ASP358      0.1805
    126  C         27.8700   49.9810   40.2880 C.2   358  ASP358      0.2597
    127  O         28.8260   49.2640   40.6160 O.2   358  ASP358     -0.2718
    128  CB        26.1790   48.7050   41.6740 C.3   358  ASP358      0.1424
    129  CG        26.2320   49.6050   42.8940 C.2   358  ASP358      0.3668
    130  OD1       26.7500   50.7490   42.8000 O.co2 358  ASP358     -0.2456
    131  OD2       25.7300   49.1700   43.9590 O.co2 358  ASP358     -0.2456
    132  N         27.9860   51.2350   39.8450 N.am  359  GLN359     -0.1979
    133  CA        29.2570   51.9520   39.7980 C.3   359  GLN359      0.1601
    134  C         30.2670   51.2720   38.8530 C.2   359  GLN359      0.2287
    135  O         31.3470   50.8430   39.2640 O.2   359  GLN359     -0.2864
    136  CB        29.7870   52.0870   41.2150 C.3   359  GLN359      0.0394
    137  CG        30.9480   53.0160   41.3940 C.3   359  GLN359      0.0908
    138  CD        30.6010   54.4500   41.0560 C.2   359  GLN359      0.2608
    139  OE1       29.6290   54.9930   41.5630 O.2   359  GLN359     -0.2717
    140  NE2       31.4360   55.0930   40.2520 N.am  359  GLN359     -0.0878
    141  N         23.9980   52.8170   38.3510 N.3   394  ILE394     -0.1245
    142  CA        24.3190   53.6670   39.5000 C.3   394  ILE394      0.1561
    143  C         25.7140   54.2560   39.2930 C.2   394  ILE394      0.2260
    144  O         26.6540   53.5320   38.9560 O.2   394  ILE394     -0.2867
    145  CB        24.3030   52.8880   40.8280 C.3   394  ILE394      0.0252
    146  CG1       22.8990   52.3940   41.1530 C.3   394  ILE394      0.0019
    147  CG2       24.8670   53.7350   41.9480 C.3   394  ILE394      0.0019
    148  CD1       22.8090   51.7170   42.4610 C.3   394  ILE394      0.0001
    149  N         28.3790   58.0060   40.2610 N.3   396  HIS396     -0.1241
    150  CA        28.6050   59.3920   40.6330 C.3   396  HIS396      0.1621
    151  C         29.7740   59.8750   39.8000 C.2   396  HIS396      0.2264
    152  O         30.3490   60.9180   40.0910 O.2   396  HIS396     -0.2867
    153  CB        28.8830   59.5530   42.1330 C.3   396  HIS396      0.0745
    154  CG        29.9120   58.5980   42.6690 C.ar  396  HIS396      0.0817
    155  ND1       31.1950   58.5390   42.1780 N.ar  396  HIS396     -0.2268
    156  CD2       29.8450   57.6740   43.6590 C.ar  396  HIS396      0.1154
    157  CE1       31.8700   57.6120   42.8340 C.ar  396  HIS396      0.1986
    158  NE2       31.0740   57.0720   43.7370 N.ar  396  HIS396     -0.2212
    159  N         20.7600   62.1570   51.5460 N.3   418  ARG418     -0.1245
    160  CA        20.4600   62.1010   52.9680 C.3   418  ARG418      0.1563
    161  C         19.7370   63.3880   53.3690 C.2   418  ARG418      0.2260
    162  O         20.1550   64.4710   52.9510 O.2   418  ARG418     -0.2867
    163  CB        21.7510   61.9390   53.7860 C.3   418  ARG418      0.0307
    164  CG        22.5680   60.6580   53.5250 C.3   418  ARG418      0.0489
    165  CD        21.9320   59.4810   54.2120 C.3   418  ARG418      0.2205
    166  NE        22.8300   58.3390   54.3500 N.pl3 418  ARG418     -0.0865
    167  CZ        23.1720   57.8110   55.5180 C.cat 418  ARG418      0.5346
    168  NH1       22.6960   58.3350   56.6340 N.pl3 418  ARG418      0.1354
    169  NH2       23.9820   56.7620   55.5730 N.pl3 418  ARG418      0.1354
@<TRIPOS>BOND
     1   141   142    1
     2   134   135    2
     3   134   133    1
     4   144   143    2
     5   124   125    1
     6   143   142    1
     7   142   145    1
     8   133   132    1
     9   133   136    1
    10   151   152    2
    11   151   150    1
    12   132   126   am
    13   140   138   am
    14   149   150    1
    15   126   125    1
    16   126   127    2
    17   125   128    1
    18   150   153    1
    19   145   146    1
    20   145   147    1
    21   138   137    1
    22   138   139    2
    23   146   148    1
    24   136   137    1
    25   128   129    1
    26   153   154    1
    27   155   154   ar
    28   155   157   ar
    29   154   156   ar
    30   130   129   ar
    31   157   158   ar
    32   129   131   ar
    33   156   158   ar
    34    46    47    1
    35    46    45    1
    36   123   121   am
    37   118   117    2
    38   116   115    1
    39   116   119    1
    40   116   117    1
    41   120   119    1
    42   120   121    1
    43    47    48    1
    44    44    45    1
    45    44    41    1
    46   121   122    2
    47    43    42    2
    48    42    41    1
    49    42    49   am
    50    41    40    1
    51    54    53    1
    52    50    49    1
    53    50    53    1
    54    50    51    1
    55    63    64    1
    56    52    51    2
    57    53    55    1
    58    51    56   am
    59    40    38   am
    60    64    65    1
    61    64    67    1
    62    25    23   am
    63    65    66    2
    64    35    34    1
    65    24    23    2
    66    58    59    2
    67    58    57    1
    68    18    19    1
    69    39    38    2
    70    56    57    1
    71    23    22    1
    72    38    37    1
    73    34    31    1
    74    67    68    1
    75    19    22    1
    76    19    20    1
    77    68    69    1
    78    57    60    1
    79    37    36    1
    80    36    32   am
    81    31    32    1
    82    31    30    1
    83    60    61    1
    84    60    62    1
    85    20    26   am
    86    20    21    2
    87    32    33    2
    88    69    71   ar
    89    69    70   ar
    90    30    28   am
    91    26    27    1
    92    28    27    1
    93    28    29    2
    94   159   160    1
    95   162   161    2
    96   160   161    1
    97   160   163    1
    98   164   163    1
    99   164   165    1
   100     8     7    1
   101     8     9    2
   102    11     9    1
   103    17    16    1
   104     7     6    1
   105     9    10    1
   106   165   166    1
   107   166   167    2
   108     6     5    1
   109     5     2    1
   110    16    13    1
   111   167   169    1
   112   167   168    1
   113    14    15    2
   114    14    13    1
   115    12    13    1
   116    12     3   am
   117     1     2    1
   118     2     3    1
   119     3     4    2
   120    79    78    2
   121    78    77    1
   122    81    82    1
   123    80    77    1
   124    82    83    1
   125    82    85    1
   126    95    97   ar
   127    95    94   ar
   128    88    86    1
   129    89    83   am
   130    89    90    1
   131    86    85    1
   132    77    76    1
   133    93    90    1
   134    93    94    1
   135    83    84    2
   136    97    98   ar
   137    90    91    1
   138    94    96   ar
   139    85    87    1
   140    76    74   am
   141    98    96   ar
   142    74    75    2
   143    74    73    1
   144    91    99   am
   145    91    92    2
   146    73    72    1
   147    99   100    1
   148   113   112    1
   149   100   103    1
   150   100   101    1
   151   103   104    1
   152   112   111    1
   153   112   114    1
   154   111   108    1
   155   101   102    2
   156   104   106   ar
   157   104   105   ar
   158   108   109    1
   159   108   107    1
   160   110   109    2
