@<TRIPOS>MOLECULE
tmp/5dacB02.pdb
 116 107 0 0 0
SMALL
GASTEIGER

@<TRIPOS>ATOM
      1  N         29.8100   37.2540   22.4660 N.3   272  THR272     -0.1218
      2  CA        29.4390   38.5280   23.0720 C.3   272  THR272      0.1862
      3  C         30.5870   39.1250   23.8810 C.2   272  THR272      0.2287
      4  O         30.8490   40.3220   23.8180 O.2   272  THR272     -0.2866
      5  CB        28.2240   38.3790   24.0080 C.3   272  THR272      0.1770
      6  OG1       27.1060   37.8650   23.2790 O.3   272  THR272     -0.2211
      7  CG2       27.8430   39.7290   24.6030 C.3   272  THR272      0.0375
      8  N         33.1140   40.5270   21.5340 N.3   275  GLU275     -0.1231
      9  CA        32.6460   41.7590   20.9220 C.3   275  GLU275      0.1699
     10  C         32.7220   42.8940   21.9150 C.2   275  GLU275      0.2592
     11  O         33.2400   43.9650   21.5960 O.2   275  GLU275     -0.2718
     12  CB        31.2040   41.6220   20.4340 C.3   275  GLU275      0.0402
     13  CG        31.0030   40.6620   19.2740 C.3   275  GLU275      0.1161
     14  CD        29.5730   40.6770   18.7270 C.2   275  GLU275      0.3649
     15  OE1       28.7620   41.5240   19.1730 O.co2 275  GLU275     -0.2457
     16  OE2       29.2650   39.8390   17.8430 O.co2 275  GLU275     -0.2457
     17  N         32.2370   42.6410   23.1320 N.am  276  LEU276     -0.1980
     18  CA        32.2140   43.6750   24.1500 C.3   276  LEU276      0.1596
     19  C         33.6310   44.0940   24.4920 C.2   276  LEU276      0.2287
     20  O         33.9100   45.2890   24.6290 O.2   276  LEU276     -0.2864
     21  CB        31.4670   43.2070   25.3920 C.3   276  LEU276      0.0297
     22  CG        29.9400   43.1480   25.2510 C.3   276  LEU276      0.0022
     23  CD1       29.3130   42.6240   26.5310 C.3   276  LEU276      0.0001
     24  CD2       29.3580   44.5060   24.9140 C.3   276  LEU276      0.0001
     25  N         27.0640   40.9950   31.3480 N.3   342  LEU342     -0.1245
     26  CA        26.2520   41.3770   30.2130 C.3   342  LEU342      0.1561
     27  C         26.0940   40.2230   29.2420 C.2   342  LEU342      0.2260
     28  O         25.0240   40.0230   28.6810 O.2   342  LEU342     -0.2867
     29  CB        26.8600   42.5680   29.4940 C.3   342  LEU342      0.0270
     30  CG        26.6740   43.9370   30.1230 C.3   342  LEU342      0.0019
     31  CD1       27.5880   44.9200   29.4130 C.3   342  LEU342      0.0001
     32  CD2       25.2070   44.3600   29.9840 C.3   342  LEU342      0.0001
     33  N         23.7000   37.6910   30.6880 N.3   345  ALA345     -0.1231
     34  CA        22.3310   38.1670   30.6990 C.3   345  ALA345      0.1694
     35  C         21.7790   37.9710   29.3140 C.2   345  ALA345      0.2591
     36  O         20.6470   37.5460   29.1510 O.2   345  ALA345     -0.2718
     37  CB        22.2490   39.6180   31.1250 C.3   345  ALA345      0.0304
     38  N         22.5770   38.3090   28.3100 N.am  346  GLU346     -0.1979
     39  CA        22.1230   38.2140   26.9290 C.3   346  GLU346      0.1602
     40  C         21.9050   36.7630   26.4890 C.2   346  GLU346      0.2287
     41  O         20.9780   36.4820   25.7380 O.2   346  GLU346     -0.2864
     42  CB        23.1160   38.9110   25.9960 C.3   346  GLU346      0.0415
     43  CG        22.7680   38.7770   24.5240 C.3   346  GLU346      0.1163
     44  CD        21.4270   39.4100   24.1870 C.2   346  GLU346      0.3649
     45  OE1       20.9470   40.2630   24.9730 O.co2 346  GLU346     -0.2457
     46  OE2       20.8410   39.0340   23.1420 O.co2 346  GLU346     -0.2457
     47  N         14.6360   39.2660   28.4780 N.3   352  CYS352     -0.1221
     48  CA        14.3150   40.2550   29.4950 C.3   352  CYS352      0.1808
     49  C         15.5360   41.1370   29.6390 C.2   352  CYS352      0.2602
     50  O         16.5880   40.7080   30.1120 O.2   352  CYS352     -0.2717
     51  CB        13.9410   39.6050   30.8190 C.3   352  CYS352      0.0970
     52  SG        15.1170   38.3690   31.3870 S.3   352  CYS352     -0.0800
     53  N         15.3860   42.3900   29.2370 N.am  353  GLY353     -0.1942
     54  CA        16.5200   43.2810   29.1920 C.3   353  GLY353      0.2014
     55  C         16.6290   43.9370   30.5310 C.2   353  GLY353      0.2639
     56  O         16.2670   45.1030   30.6920 O.2   353  GLY353     -0.2714
     57  N         17.1060   43.1630   31.5000 N.am  354  LEU354     -0.1963
     58  CA        17.2140   43.6530   32.8580 C.3   354  LEU354      0.1728
     59  C         18.5650   43.3750   33.5010 C.2   354  LEU354      0.2616
     60  O         18.9460   42.2210   33.6650 O.2   354  LEU354     -0.2715
     61  CB        16.0830   43.0490   33.6830 C.3   354  LEU354      0.0311
     62  CG        15.9100   43.5710   35.0960 C.3   354  LEU354      0.0022
     63  CD1       15.2470   44.9330   35.0880 C.3   354  LEU354      0.0001
     64  CD2       15.0770   42.5620   35.8710 C.3   354  LEU354      0.0001
     65  N         19.2870   44.4270   33.8670 N.am  355  ILE355     -0.1977
     66  CA        20.5240   44.2710   34.6280 C.3   355  ILE355      0.1596
     67  C         20.8660   45.5380   35.4280 C.2   355  ILE355      0.2287
     68  O         20.5840   46.6570   34.9850 O.2   355  ILE355     -0.2864
     69  CB        21.7210   43.9010   33.7300 C.3   355  ILE355      0.0276
     70  CG1       22.9470   43.5760   34.6010 C.3   355  ILE355      0.0022
     71  CG2       22.0580   45.0410   32.7890 C.3   355  ILE355      0.0022
     72  CD1       24.1630   43.1470   33.8470 C.3   355  ILE355      0.0001
     73  N         25.5470   52.3420   23.0500 N.3   378  GLY378     -0.1210
     74  CA        25.3890   51.5570   21.8510 C.3   378  GLY378      0.1956
     75  C         24.4720   50.3810   22.0930 C.2   378  GLY378      0.2611
     76  O         23.6460   50.0520   21.2560 O.2   378  GLY378     -0.2717
     77  N         24.6020   49.7400   23.2440 N.am  379  ILE379     -0.1979
     78  CA        23.6840   48.6680   23.5740 C.3   379  ILE379      0.1595
     79  C         22.2360   49.1770   23.6190 C.2   379  ILE379      0.2287
     80  O         21.3200   48.5350   23.0890 O.2   379  ILE379     -0.2864
     81  CB        24.0650   48.0160   24.8960 C.3   379  ILE379      0.0276
     82  CG1       25.4290   47.3480   24.7500 C.3   379  ILE379      0.0022
     83  CG2       23.0250   46.9830   25.3030 C.3   379  ILE379      0.0022
     84  CD1       26.0100   46.8530   26.0680 C.3   379  ILE379      0.0001
     85  N         20.6360   50.0750   20.1340 N.3   382  ALA382     -0.1231
     86  CA        20.3220   48.8810   19.3500 C.3   382  ALA382      0.1694
     87  C         19.0310   48.2240   19.8160 C.2   382  ALA382      0.2591
     88  O         18.3040   47.6310   19.0190 O.2   382  ALA382     -0.2718
     89  CB        21.4660   47.8710   19.4160 C.3   382  ALA382      0.0304
     90  N         18.7290   48.3300   21.1030 N.am  383  ARG383     -0.1980
     91  CA        17.6230   47.5440   21.6190 C.3   383  ARG383      0.1597
     92  C         16.4810   48.3950   22.1260 C.2   383  ARG383      0.2287
     93  O         15.4860   47.8560   22.6080 O.2   383  ARG383     -0.2864
     94  CB        18.0880   46.5970   22.7240 C.3   383  ARG383      0.0334
     95  CG        19.1750   45.6820   22.2620 C.3   383  ARG383      0.0492
     96  CD        18.5660   44.4630   21.6170 C.3   383  ARG383      0.2205
     97  NE        19.5920   43.6730   20.9610 N.pl3 383  ARG383     -0.0865
     98  CZ        20.1730   42.6240   21.5230 C.cat 383  ARG383      0.5346
     99  NH1       19.8050   42.2380   22.7370 N.pl3 383  ARG383      0.1354
    100  NH2       21.1080   41.9540   20.8710 N.pl3 383  ARG383      0.1354
    101  N         14.6640   46.5420   26.8210 N.3   389  LEU389     -0.1245
    102  CA        15.5740   46.9590   27.9030 C.3   389  LEU389      0.1561
    103  C         14.9980   47.7080   29.1270 C.2   389  LEU389      0.2260
    104  O         14.2820   48.7130   28.9880 O.2   389  LEU389     -0.2867
    105  CB        16.7000   47.8210   27.3090 C.3   389  LEU389      0.0270
    106  CG        17.7900   47.1150   26.5040 C.3   389  LEU389      0.0019
    107  CD1       18.9710   48.0490   26.2600 C.3   389  LEU389      0.0001
    108  CD2       18.2450   45.8390   27.1940 C.3   389  LEU389      0.0001
    109  N         17.3860   48.8870   32.0380 N.3   391  LEU391     -0.1245
    110  CA        18.7420   48.8480   32.5250 C.3   391  LEU391      0.1561
    111  C         18.9260   49.8770   33.6210 C.2   391  LEU391      0.2260
    112  O         18.4670   51.0180   33.4960 O.2   391  LEU391     -0.2867
    113  CB        19.6890   49.0920   31.3660 C.3   391  LEU391      0.0270
    114  CG        21.1950   49.0580   31.5170 C.3   391  LEU391      0.0019
    115  CD1       21.7330   48.4960   30.2030 C.3   391  LEU391      0.0001
    116  CD2       21.7480   50.4400   31.7840 C.3   391  LEU391      0.0001
@<TRIPOS>BOND
     1    16    14   ar
     2    14    15   ar
     3    14    13    1
     4    88    87    2
     5    13    12    1
     6    86    89    1
     7    86    87    1
     8    86    85    1
     9    87    90   am
    10    12     9    1
    11   100    98    1
    12     9     8    1
    13     9    10    1
    14    97    98    2
    15    97    96    1
    16    90    91    1
    17    76    75    2
    18    98    99    1
    19    11    10    2
    20    96    95    1
    21    91    92    1
    22    91    94    1
    23    74    75    1
    24    74    73    1
    25    10    17   am
    26    75    77   am
    27    92    93    2
    28    95    94    1
    29     1     2    1
    30     2     3    1
    31     2     5    1
    32    80    79    2
    33    17    18    1
    34    46    44   ar
    35    77    78    1
    36     6     5    1
    37    78    79    1
    38    78    81    1
    39     4     3    2
    40     5     7    1
    41    18    19    1
    42    18    21    1
    43    44    43    1
    44    44    45   ar
    45    19    20    2
    46    43    42    1
    47    82    81    1
    48    82    84    1
    49    81    83    1
    50    24    22    1
    51    22    21    1
    52    22    23    1
    53    41    40    2
    54    42    39    1
    55   107   106    1
    56    40    39    1
    57   106   108    1
    58   106   105    1
    59   101   102    1
    60    39    38    1
    61   105   102    1
    62   102   103    1
    63    38    35   am
    64    47    48    1
    65    28    27    2
    66   104   103    2
    67    36    35    2
    68    54    53    1
    69    54    55    1
    70    53    49   am
    71    27    26    1
    72    35    34    1
    73    31    30    1
    74    29    30    1
    75    29    26    1
    76    48    49    1
    77    48    51    1
    78    49    50    2
    79    32    30    1
    80   115   114    1
    81    26    25    1
    82    55    56    2
    83    55    57   am
    84    33    34    1
    85    34    37    1
    86    51    52    1
    87   113   114    1
    88   113   110    1
    89    57    58    1
    90   114   116    1
    91   109   110    1
    92   110   111    1
    93    71    69    1
    94    58    59    1
    95    58    61    1
    96   112   111    2
    97    59    60    2
    98    59    65   am
    99    61    62    1
   100    69    70    1
   101    69    66    1
   102    72    70    1
   103    65    66    1
   104    66    67    1
   105    68    67    2
   106    63    62    1
   107    62    64    1
