@<TRIPOS>MOLECULE
tmp/5dadA00.pdb
 102 98 0 0 0
SMALL
GASTEIGER

@<TRIPOS>ATOM
      1  N        -22.1100    8.3350    8.5630 N.3    36  TYR36      -0.1227
      2  CA       -22.5170    7.3770    7.5440 C.3    36  TYR36       0.1736
      3  C        -23.9970    7.5730    7.2190 C.2    36  TYR36       0.2595
      4  O        -24.7510    8.1090    8.0390 O.2    36  TYR36      -0.2718
      5  CB       -22.2460    5.9540    8.0460 C.3    36  TYR36       0.0548
      6  CG       -22.4720    4.8520    7.0360 C.ar   36  TYR36      -0.0200
      7  CD1      -21.5980    4.6630    5.9660 C.ar   36  TYR36      -0.0009
      8  CD2      -23.5500    3.9800    7.1660 C.ar   36  TYR36      -0.0009
      9  CE1      -21.8010    3.6460    5.0450 C.ar   36  TYR36       0.0417
     10  CE2      -23.7590    2.9580    6.2540 C.ar   36  TYR36       0.0417
     11  CZ       -22.8850    2.7970    5.1960 C.ar   36  TYR36       0.1957
     12  OH       -23.1000    1.7850    4.2920 O.3    36  TYR36      -0.2866
     13  N        -24.3990    7.1500    6.0200 N.am   37  GLN37      -0.1979
     14  CA       -25.7800    7.2850    5.5400 C.3    37  GLN37       0.1601
     15  C        -26.8120    6.8020    6.5650 C.2    37  GLN37       0.2287
     16  O        -26.6720    5.7130    7.1300 O.2    37  GLN37      -0.2864
     17  CB       -25.9550    6.5510    4.2020 C.3    37  GLN37       0.0394
     18  CG       -25.7920    5.0360    4.2800 C.3    37  GLN37       0.0908
     19  CD       -25.4440    4.3960    2.9490 C.2    37  GLN37       0.2608
     20  OE1      -24.5920    4.8910    2.2070 O.2    37  GLN37      -0.2717
     21  NE2      -26.0920    3.2750    2.6490 N.am   37  GLN37      -0.0878
     22  N        -19.8870    2.2410    8.3490 N.3    73  HIS73      -0.1241
     23  CA       -20.8910    2.2390    9.4110 C.3    73  HIS73       0.1621
     24  C        -20.2500    2.2500   10.7800 C.2    73  HIS73       0.2264
     25  O        -19.3020    1.5000   11.0220 O.2    73  HIS73      -0.2867
     26  CB       -21.8110    1.0310    9.2620 C.3    73  HIS73       0.0745
     27  CG       -23.0210    1.0760   10.1620 C.ar   73  HIS73       0.0817
     28  ND1      -23.0460    0.4870   11.3680 N.ar   73  HIS73      -0.2268
     29  CD2      -24.2590    1.6900    9.9980 C.ar   73  HIS73       0.1154
     30  CE1      -24.2430    0.6990   11.9460 C.ar   73  HIS73       0.1986
     31  NE2      -24.9840    1.4370   11.1070 N.ar   73  HIS73      -0.2212
     32  N        -20.9610    1.0480   13.6900 N.3    75  LYS75      -0.1231
     33  CA       -20.9200   -0.2420   14.3750 C.3    75  LYS75       0.1693
     34  C        -19.8490   -1.1580   13.7850 C.2    75  LYS75       0.2591
     35  O        -19.3090   -2.0120   14.4890 O.2    75  LYS75      -0.2718
     36  CB       -22.2960   -0.9110   14.3230 C.3    75  LYS75       0.0285
     37  CG       -22.5380   -2.0060   15.3520 C.3    75  LYS75       0.0035
     38  CD       -23.9880   -2.4710   15.2840 C.3    75  LYS75       0.0206
     39  CE       -24.2890   -3.6020   16.2580 C.3    75  LYS75       0.1093
     40  NZ       -25.7010   -4.0680   16.1370 N.3    75  LYS75      -0.1314
     41  N        -19.5500   -0.9760   12.4990 N.am   76  VAL76      -0.1980
     42  CA       -18.4620   -1.7040   11.8320 C.3    76  VAL76       0.1595
     43  C        -17.1110   -1.2180   12.3620 C.2    76  VAL76       0.2287
     44  O        -16.2370   -2.0280   12.6850 O.2    76  VAL76      -0.2864
     45  CB       -18.5240   -1.5630   10.2870 C.3    76  VAL76       0.0276
     46  CG1      -17.3280   -2.2330    9.6200 C.3    76  VAL76       0.0022
     47  CG2      -19.8160   -2.1520    9.7440 C.3    76  VAL76       0.0022
     48  N        -16.4660   -2.5260   15.8360 N.3    79  ARG79      -0.1245
     49  CA       -16.0220   -3.9230   15.8450 C.3    79  ARG79       0.1563
     50  C        -14.5550   -4.1010   15.4500 C.2    79  ARG79       0.2260
     51  O        -13.8900   -5.0180   15.9340 O.2    79  ARG79      -0.2867
     52  CB       -16.9120   -4.7940   14.9500 C.3    79  ARG79       0.0307
     53  CG       -18.3430   -4.9740   15.4380 C.3    79  ARG79       0.0489
     54  CD       -18.4280   -5.7030   16.7720 C.3    79  ARG79       0.2205
     55  NE       -19.8080   -5.7680   17.2540 N.pl3  79  ARG79      -0.0865
     56  CZ       -20.4020   -4.8310   17.9950 C.cat  79  ARG79       0.5346
     57  NH1      -19.7470   -3.7340   18.3610 N.pl3  79  ARG79       0.1354
     58  NH2      -21.6620   -4.9930   18.3740 N.pl3  79  ARG79       0.1354
     59  N        -19.9070  -10.6980   14.8530 N.3    91  MET91      -0.1230
     60  CA       -20.9060   -9.9830   14.0770 C.3    91  MET91       0.1702
     61  C        -22.0520  -10.9340   13.7700 C.2    91  MET91       0.2592
     62  O        -21.8650  -12.1530   13.7600 O.2    91  MET91      -0.2718
     63  CB       -20.2820   -9.4620   12.7740 C.3    91  MET91       0.0401
     64  CG       -19.8730  -10.5620   11.7990 C.3    91  MET91       0.0596
     65  SD       -18.2860  -10.3280   10.9780 S.3    91  MET91      -0.1393
     66  CE       -17.1450  -10.6860   12.3110 C.3    91  MET91       0.0692
     67  N        -23.2320  -10.3730   13.5220 N.am   92  GLY92      -0.1957
     68  CA       -24.3800  -11.1610   13.0890 C.3    92  GLY92       0.1869
     69  C        -24.1420  -11.7700   11.7200 C.2    92  GLY92       0.2309
     70  O        -23.6230  -11.1100   10.8210 O.2    92  GLY92      -0.2863
     71  N        -25.7310  -12.1230    9.1750 N.3    94  LYS94      -0.1231
     72  CA       -26.2440  -11.3690    8.0290 C.3    94  LYS94       0.1693
     73  C        -25.4600  -10.0960    7.6940 C.2    94  LYS94       0.2592
     74  O        -25.7870   -9.4060    6.7270 O.2    94  LYS94      -0.2718
     75  CB       -27.7310  -11.0380    8.2310 C.3    94  LYS94       0.0285
     76  CG       -28.0340  -10.2620    9.5060 C.3    94  LYS94       0.0035
     77  CD       -29.1860   -9.2920    9.3100 C.3    94  LYS94       0.0206
     78  CE       -29.3870   -8.4360   10.5500 C.3    94  LYS94       0.1093
     79  NZ       -30.0570   -7.1420   10.2230 N.3    94  LYS94      -0.1314
     80  N        -24.4360   -9.7870    8.4870 N.am   95  CYS95      -0.1970
     81  CA       -23.6540   -8.5620    8.3060 C.3    95  CYS95       0.1712
     82  C        -22.1670   -8.8200    8.0620 C.2    95  CYS95       0.2296
     83  O        -21.3770   -7.8770    7.9740 O.2    95  CYS95      -0.2864
     84  CB       -23.8180   -7.6420    9.5160 C.3    95  CYS95       0.0983
     85  SG       -25.3190   -6.7130    9.4760 S.3    95  CYS95      -0.0798
     86  N        -20.5770   -6.6850    5.4870 N.3    98  HIS98      -0.1226
     87  CA       -20.3700   -5.2870    5.8680 C.3    98  HIS98       0.1752
     88  C        -19.0890   -5.0920    6.6280 C.2    98  HIS98       0.2595
     89  O        -18.3600   -4.1190    6.4000 O.2    98  HIS98      -0.2718
     90  CB       -21.5510   -4.7670    6.6800 C.3    98  HIS98       0.0759
     91  CG       -22.7910   -4.5160    5.8580 C.ar   98  HIS98       0.0818
     92  ND1      -23.8390   -5.3590    5.8520 N.ar   98  HIS98      -0.2268
     93  CD2      -23.1200   -3.4710    4.9950 C.ar   98  HIS98       0.1154
     94  CE1      -24.7930   -4.8810    5.0290 C.ar   98  HIS98       0.1986
     95  NE2      -24.3510   -3.7250    4.5070 N.ar   98  HIS98      -0.2212
     96  N        -18.8050   -6.0290    7.5300 N.am   99  VAL99      -0.1980
     97  CA       -17.5890   -6.0090    8.3390 C.3    99  VAL99       0.1595
     98  C        -16.3580   -6.2270    7.4480 C.2    99  VAL99       0.2287
     99  O        -15.3310   -5.5640    7.6190 O.2    99  VAL99      -0.2864
    100  CB       -17.6660   -7.0450    9.4870 C.3    99  VAL99       0.0276
    101  CG1      -16.3630   -7.1090   10.2680 C.3    99  VAL99       0.0022
    102  CG2      -18.8200   -6.7110   10.4240 C.3    99  VAL99       0.0022
@<TRIPOS>BOND
     1    20    19    2
     2    21    19   am
     3    19    18    1
     4    17    18    1
     5    17    14    1
     6    12    11    1
     7    95    93   ar
     8    95    94   ar
     9    93    91   ar
    10    94    92   ar
    11     9    11   ar
    12     9     7   ar
    13    11    10   ar
    14    86    87    1
    15    14    13    1
    16    14    15    1
    17    92    91   ar
    18    91    90    1
    19    87    88    1
    20    87    90    1
    21     7     6   ar
    22    13     3   am
    23    10     8   ar
    24    89    88    2
    25    15    16    2
    26    88    96   am
    27    74    73    2
    28     6     8   ar
    29     6     5    1
    30     3     2    1
    31     3     4    2
    32    98    99    2
    33    98    97    1
    34    96    97    1
    35     2     5    1
    36     2     1    1
    37    73    72    1
    38    73    80   am
    39    83    82    2
    40    72    75    1
    41    72    71    1
    42    82    81    1
    43    75    76    1
    44    81    80    1
    45    81    84    1
    46    97   100    1
    47    22    23    1
    48    26    23    1
    49    26    27    1
    50    77    76    1
    51    77    78    1
    52    23    24    1
    53    85    84    1
    54   100   101    1
    55   100   102    1
    56    46    45    1
    57    47    45    1
    58    29    27   ar
    59    29    31   ar
    60    27    28   ar
    61    79    78    1
    62    45    42    1
    63    24    25    2
    64    70    69    2
    65    65    64    1
    66    65    66    1
    67    31    30   ar
    68    28    30   ar
    69    69    68    1
    70    64    63    1
    71    42    43    1
    72    42    41    1
    73    43    44    2
    74    41    34   am
    75    63    60    1
    76    68    67    1
    77    67    61   am
    78    32    33    1
    79    62    61    2
    80    61    60    1
    81    34    33    1
    82    34    35    2
    83    60    59    1
    84    36    33    1
    85    36    37    1
    86    52    53    1
    87    52    49    1
    88    38    37    1
    89    38    39    1
    90    53    54    1
    91    50    49    1
    92    50    51    2
    93    48    49    1
    94    40    39    1
    95    54    55    1
    96    55    56    2
    97    56    57    1
    98    56    58    1
