@<TRIPOS>MOLECULE
tmp/5dafA00.pdb
 102 98 0 0 0
SMALL
GASTEIGER

@<TRIPOS>ATOM
      1  N        -21.7020    9.3450    8.4820 N.3    36  TYR36      -0.1227
      2  CA       -21.9640    8.4670    7.3560 C.3    36  TYR36       0.1736
      3  C        -23.4370    8.4110    6.9690 C.2    36  TYR36       0.2595
      4  O        -24.1980    7.6410    7.5500 O.2    36  TYR36      -0.2718
      5  CB       -21.4520    7.0570    7.6670 C.3    36  TYR36       0.0548
      6  CG       -21.8180    6.0220    6.6310 C.ar   36  TYR36      -0.0200
      7  CD1      -21.0110    5.8080    5.5160 C.ar   36  TYR36      -0.0009
      8  CD2      -22.9680    5.2490    6.7660 C.ar   36  TYR36      -0.0009
      9  CE1      -21.3410    4.8550    4.5630 C.ar   36  TYR36       0.0417
     10  CE2      -23.3100    4.3020    5.8170 C.ar   36  TYR36       0.0417
     11  CZ       -22.4920    4.1060    4.7190 C.ar   36  TYR36       0.1957
     12  OH       -22.8250    3.1610    3.7740 O.3    36  TYR36      -0.2866
     13  N        -23.8390    9.2510    6.0160 N.am   37  GLN37      -0.1979
     14  CA       -24.9820    8.9560    5.1440 C.3    37  GLN37       0.1601
     15  C        -26.2570    8.4550    5.8670 C.2    37  GLN37       0.2287
     16  O        -26.5390    7.2490    5.8770 O.2    37  GLN37      -0.2864
     17  CB       -24.4980    7.9090    4.1340 C.3    37  GLN37       0.0394
     18  CG       -25.3120    7.7100    2.8740 C.3    37  GLN37       0.0908
     19  CD       -24.8660    6.4530    2.1530 C.2    37  GLN37       0.2608
     20  OE1      -25.2300    5.3420    2.5420 O.2    37  GLN37      -0.2717
     21  NE2      -24.0540    6.6200    1.1130 N.am   37  GLN37      -0.0878
     22  N        -19.5300    2.7430    7.9330 N.3    73  HIS73      -0.1241
     23  CA       -20.5680    2.7880    8.9520 C.3    73  HIS73       0.1621
     24  C        -19.9800    2.7850   10.3430 C.2    73  HIS73       0.2264
     25  O        -19.0610    2.0070   10.6160 O.2    73  HIS73      -0.2867
     26  CB       -21.5380    1.6270    8.7810 C.3    73  HIS73       0.0745
     27  CG       -22.7800    1.7550    9.6300 C.ar   73  HIS73       0.0817
     28  ND1      -22.9510    1.0660   10.7720 N.ar   73  HIS73      -0.2268
     29  CD2      -23.9140    2.5560    9.4790 C.ar   73  HIS73       0.1154
     30  CE1      -24.1390    1.3940   11.3180 C.ar   73  HIS73       0.1986
     31  NE2      -24.7250    2.3070   10.5250 N.ar   73  HIS73      -0.2212
     32  N        -20.9710    1.5860   13.1910 N.3    75  LYS75      -0.1231
     33  CA       -20.9850    0.2900   13.8630 C.3    75  LYS75       0.1693
     34  C        -19.8740   -0.6210   13.3400 C.2    75  LYS75       0.2591
     35  O        -19.2980   -1.3960   14.1050 O.2    75  LYS75      -0.2718
     36  CB       -22.3590   -0.3830   13.7620 C.3    75  LYS75       0.0285
     37  CG       -22.5930   -1.4690   14.8060 C.3    75  LYS75       0.0035
     38  CD       -24.0790   -1.7350   15.0170 C.3    75  LYS75       0.0206
     39  CE       -24.3090   -2.7930   16.0870 C.3    75  LYS75       0.1093
     40  NZ       -25.7380   -3.2070   16.1830 N.3    75  LYS75      -0.1314
     41  N        -19.5700   -0.5030   12.0450 N.am   76  VAL76      -0.1980
     42  CA       -18.4650   -1.2390   11.4220 C.3    76  VAL76       0.1595
     43  C        -17.1200   -0.7370   11.9500 C.2    76  VAL76       0.2287
     44  O        -16.2640   -1.5370   12.3420 O.2    76  VAL76      -0.2864
     45  CB       -18.5170   -1.1670    9.8770 C.3    76  VAL76       0.0276
     46  CG1      -17.3370   -1.9070    9.2570 C.3    76  VAL76       0.0022
     47  CG2      -19.8220   -1.7630    9.3620 C.3    76  VAL76       0.0022
     48  N        -16.4850   -1.9780   15.5160 N.3    79  ARG79      -0.1245
     49  CA       -16.0370   -3.3800   15.5550 C.3    79  ARG79       0.1563
     50  C        -14.5710   -3.5730   15.1610 C.2    79  ARG79       0.2260
     51  O        -13.9060   -4.5180   15.6200 O.2    79  ARG79      -0.2867
     52  CB       -16.9020   -4.2280   14.6220 C.3    79  ARG79       0.0307
     53  CG       -18.3690   -4.3070   15.0030 C.3    79  ARG79       0.0489
     54  CD       -18.5870   -5.2270   16.1940 C.3    79  ARG79       0.2205
     55  NE       -20.0070   -5.5050   16.3630 N.pl3  79  ARG79      -0.0865
     56  CZ       -20.8390   -4.7660   17.0950 C.cat  79  ARG79       0.5346
     57  NH1      -20.3950   -3.6960   17.7530 N.pl3  79  ARG79       0.1354
     58  NH2      -22.1210   -5.1010   17.1740 N.pl3  79  ARG79       0.1354
     59  N        -19.8530  -10.1300   14.7150 N.3    91  MET91      -0.1230
     60  CA       -20.9510   -9.4940   13.9870 C.3    91  MET91       0.1702
     61  C        -22.0280  -10.5360   13.6980 C.2    91  MET91       0.2592
     62  O        -21.7690  -11.7480   13.8650 O.2    91  MET91      -0.2718
     63  CB       -20.4640   -8.8130   12.6980 C.3    91  MET91       0.0401
     64  CG       -19.8310   -9.7230   11.6530 C.3    91  MET91       0.0596
     65  SD       -18.3080  -10.5340   12.1780 S.3    91  MET91      -0.1393
     66  CE       -17.3640  -10.5530   10.6610 C.3    91  MET91       0.0692
     67  N        -23.2390  -10.0570   13.2480 N.am   92  GLY92      -0.1957
     68  CA       -24.3570  -11.0440   13.2130 C.3    92  GLY92       0.1869
     69  C        -24.6500  -11.7930   11.9220 C.2    92  GLY92       0.2309
     70  O        -25.8210  -12.0140   11.5990 O.2    92  GLY92      -0.2863
     71  N        -25.5880  -11.6990    9.0440 N.3    94  LYS94      -0.1231
     72  CA       -26.2750  -10.8840    8.0370 C.3    94  LYS94       0.1693
     73  C        -25.5390   -9.5610    7.7600 C.2    94  LYS94       0.2592
     74  O        -26.0730   -8.6670    7.0940 O.2    94  LYS94      -0.2718
     75  CB       -27.7390  -10.6250    8.4480 C.3    94  LYS94       0.0285
     76  CG       -27.9360   -9.7240    9.6680 C.3    94  LYS94       0.0035
     77  CD       -29.4010   -9.3390    9.8590 C.3    94  LYS94       0.0206
     78  CE       -29.6010   -8.3430   10.9970 C.3    94  LYS94       0.1093
     79  NZ       -29.5970   -8.9670   12.3530 N.3    94  LYS94      -0.1314
     80  N        -24.3130   -9.4500    8.2720 N.am   95  CYS95      -0.1970
     81  CA       -23.5280   -8.2250    8.1710 C.3    95  CYS95       0.1712
     82  C        -22.0260   -8.4590    8.0430 C.2    95  CYS95       0.2296
     83  O        -21.2680   -7.4930    8.0100 O.2    95  CYS95      -0.2864
     84  CB       -23.7640   -7.3470    9.3950 C.3    95  CYS95       0.0983
     85  SG       -25.2900   -6.4740    9.3510 S.3    95  CYS95      -0.0798
     86  N        -20.4170   -6.3130    5.3760 N.3    98  HIS98      -0.1226
     87  CA       -20.2160   -4.9020    5.7070 C.3    98  HIS98       0.1752
     88  C        -18.9480   -4.7060    6.4780 C.2    98  HIS98       0.2595
     89  O        -18.2130   -3.7400    6.2550 O.2    98  HIS98      -0.2718
     90  CB       -21.3900   -4.3710    6.5120 C.3    98  HIS98       0.0759
     91  CG       -22.6490   -4.2020    5.7060 C.ar   98  HIS98       0.0818
     92  ND1      -23.7470   -4.9530    5.9120 N.ar   98  HIS98      -0.2268
     93  CD2      -22.9540   -3.3360    4.6570 C.ar   98  HIS98       0.1154
     94  CE1      -24.7110   -4.5810    5.0490 C.ar   98  HIS98       0.1986
     95  NE2      -24.2230   -3.5910    4.2820 N.ar   98  HIS98      -0.2212
     96  N        -18.6960   -5.6310    7.3980 N.am   99  VAL99      -0.1980
     97  CA       -17.4910   -5.6320    8.2070 C.3    99  VAL99       0.1595
     98  C        -16.2920   -5.8440    7.2780 C.2    99  VAL99       0.2287
     99  O        -15.3140   -5.0880    7.3230 O.2    99  VAL99      -0.2864
    100  CB       -17.5830   -6.7070    9.3290 C.3    99  VAL99       0.0276
    101  CG1      -16.2310   -6.9820    9.9660 C.3    99  VAL99       0.0022
    102  CG2      -18.5880   -6.2810   10.3900 C.3    99  VAL99       0.0022
@<TRIPOS>BOND
     1    21    19   am
     2    19    20    2
     3    19    18    1
     4    18    17    1
     5    12    11    1
     6    17    14    1
     7    95    93   ar
     8    95    94   ar
     9     9    11   ar
    10     9     7   ar
    11    93    91   ar
    12    11    10   ar
    13    94    92   ar
    14    14    15    1
    15    14    13    1
    16    86    87    1
    17     7     6   ar
    18    91    92   ar
    19    91    90    1
    20    87    88    1
    21    87    90    1
    22    10     8   ar
    23    15    16    2
    24    13     3   am
    25    89    88    2
    26    88    96   am
    27     6     8   ar
    28     6     5    1
    29     3     2    1
    30     3     4    2
    31    74    73    2
    32    98    99    2
    33    98    97    1
    34     2     5    1
    35     2     1    1
    36    96    97    1
    37    73    72    1
    38    73    80   am
    39    22    23    1
    40    83    82    2
    41    72    75    1
    42    72    71    1
    43    82    81    1
    44    81    80    1
    45    81    84    1
    46    97   100    1
    47    75    76    1
    48    26    23    1
    49    26    27    1
    50    23    24    1
    51    46    45    1
    52   100   101    1
    53   100   102    1
    54    85    84    1
    55    47    45    1
    56    29    27   ar
    57    29    31   ar
    58    27    28   ar
    59    76    77    1
    60    77    78    1
    61    45    42    1
    62    24    25    2
    63    31    30   ar
    64    66    65    1
    65    28    30   ar
    66    78    79    1
    67    42    43    1
    68    42    41    1
    69    70    69    2
    70    64    65    1
    71    64    63    1
    72    69    68    1
    73    43    44    2
    74    41    34   am
    75    63    60    1
    76    32    33    1
    77    68    67    1
    78    67    61   am
    79    34    33    1
    80    34    35    2
    81    61    62    2
    82    61    60    1
    83    36    33    1
    84    36    37    1
    85    60    59    1
    86    52    53    1
    87    52    49    1
    88    37    38    1
    89    53    54    1
    90    38    39    1
    91    50    49    1
    92    50    51    2
    93    48    49    1
    94    39    40    1
    95    54    55    1
    96    55    56    2
    97    56    58    1
    98    56    57    1
