@<TRIPOS>MOLECULE
tmp/5dahB00.pdb
 191 182 0 0 0
SMALL
GASTEIGER

@<TRIPOS>ATOM
      1  N         -0.3910  -14.9120  -19.4200 N.3     8  VAL8       -0.1231
      2  CA        -0.9270  -14.9910  -20.7720 C.3     8  VAL8        0.1692
      3  C         -2.4770  -15.0850  -20.7720 C.2     8  VAL8        0.2592
      4  O         -3.1450  -14.5500  -21.6680 O.2     8  VAL8       -0.2718
      5  CB        -0.2960  -16.1910  -21.5290 C.3     8  VAL8        0.0266
      6  CG1       -0.9770  -16.4320  -22.8640 C.3     8  VAL8        0.0020
      7  CG2        1.1940  -15.9540  -21.7450 C.3     8  VAL8        0.0020
      8  N         -3.0450  -15.7350  -19.7530 N.am    9  CYS9       -0.1970
      9  CA        -4.4970  -15.8890  -19.6470 C.3     9  CYS9        0.1712
     10  C         -4.9790  -15.4910  -18.2450 C.2     9  CYS9        0.2296
     11  O         -4.1710  -15.2010  -17.3660 O.2     9  CYS9       -0.2864
     12  CB        -4.9160  -17.3290  -19.9590 C.3     9  CYS9        0.0983
     13  SG        -4.6660  -18.5050  -18.5800 S.3     9  CYS9       -0.0798
     14  N         -6.9330  -17.5050  -16.1160 N.3    11  ASP11      -0.1239
     15  CA        -7.1660  -18.6260  -15.2040 C.3    11  ASP11       0.1674
     16  C         -6.1470  -18.5860  -14.0640 C.2    11  ASP11       0.2266
     17  O         -4.9460  -18.4470  -14.3120 O.2    11  ASP11      -0.2867
     18  CB        -7.0900  -19.9590  -15.9490 C.3    11  ASP11       0.1410
     19  CG        -8.1540  -20.0910  -17.0320 C.2    11  ASP11       0.3668
     20  OD1       -9.3170  -19.6930  -16.7930 O.co2  11  ASP11      -0.2456
     21  OD2       -7.8270  -20.5870  -18.1380 O.co2  11  ASP11      -0.2456
     22  N         -2.9290  -31.7030  -16.0740 N.3    17  GLU17      -0.1231
     23  CA        -2.2800  -31.8260  -17.3860 C.3    17  GLU17       0.1699
     24  C         -1.8880  -30.4770  -18.0040 C.2    17  GLU17       0.2592
     25  O         -1.5640  -30.4010  -19.1870 O.2    17  GLU17      -0.2718
     26  CB        -3.1910  -32.5630  -18.3630 C.3    17  GLU17       0.0402
     27  CG        -4.2020  -33.5070  -17.7110 C.3    17  GLU17       0.1161
     28  CD        -3.6950  -34.9460  -17.5850 C.2    17  GLU17       0.3649
     29  OE1       -2.6420  -35.2790  -18.1870 O.co2  17  GLU17      -0.2457
     30  OE2       -4.3530  -35.7440  -16.8750 O.co2  17  GLU17      -0.2457
     31  N         -1.9370  -29.4130  -17.2040 N.am   18  ASN18      -0.1974
     32  CA        -1.5670  -28.0770  -17.6690 C.3    18  ASN18       0.1688
     33  C         -1.0720  -27.1980  -16.5120 C.2    18  ASN18       0.2292
     34  O         -1.7530  -26.2830  -16.0610 O.2    18  ASN18      -0.2864
     35  CB        -2.7570  -27.4220  -18.3820 C.3    18  ASN18       0.1181
     36  CG        -2.3850  -26.1120  -19.0600 C.2    18  ASN18       0.2629
     37  OD1       -1.2130  -25.8480  -19.3440 O.2    18  ASN18      -0.2716
     38  ND2       -3.3740  -25.2620  -19.2620 N.am   18  ASN18      -0.0877
     39  N          1.5210  -24.3650  -19.1940 N.3    34  GLN34      -0.1231
     40  CA         2.1780  -25.1210  -20.2540 C.3    34  GLN34       0.1698
     41  C          1.5500  -24.8680  -21.6200 C.2    34  GLN34       0.2592
     42  O          2.2400  -24.6170  -22.5980 O.2    34  GLN34      -0.2718
     43  CB         2.1250  -26.6040  -19.9310 C.3    34  GLN34       0.0381
     44  CG         2.6380  -27.4800  -21.0310 C.3    34  GLN34       0.0905
     45  CD         2.8500  -28.9070  -20.5750 C.2    34  GLN34       0.2608
     46  OE1        2.4470  -29.2850  -19.4810 O.2    34  GLN34      -0.2717
     47  NE2        3.5120  -29.7000  -21.4040 N.am   34  GLN34      -0.0878
     48  N          0.2270  -24.9430  -21.6550 N.am   35  ALA35      -0.1966
     49  CA        -0.5610  -24.6790  -22.8340 C.3    35  ALA35       0.1728
     50  C         -0.5980  -23.1930  -23.2240 C.2    35  ALA35       0.2616
     51  O         -1.0420  -22.8530  -24.3350 O.2    35  ALA35      -0.2715
     52  CB        -1.9580  -25.1890  -22.6110 C.3    35  ALA35       0.0334
     53  N         -0.1430  -22.3060  -22.3340 N.am   36  CYS36      -0.1968
     54  CA        -0.1580  -20.8780  -22.6490 C.3    36  CYS36       0.1712
     55  C          1.1250  -20.4150  -23.3460 C.2    36  CYS36       0.2296
     56  O          1.1540  -19.3460  -23.9890 O.2    36  CYS36      -0.2864
     57  CB        -0.4030  -20.0470  -21.3800 C.3    36  CYS36       0.0983
     58  SG        -2.1530  -19.9670  -20.8840 S.3    36  CYS36      -0.0798
     59  N          3.2400  -22.9720  -24.8740 N.3    38  GLY38      -0.1225
     60  CA         3.6430  -24.0760  -25.7300 C.3    38  GLY38       0.1811
     61  C          4.8900  -24.8150  -25.2700 C.2    38  GLY38       0.2280
     62  O          5.7470  -25.1610  -26.0780 O.2    38  GLY38      -0.2866
     63  N          0.2040  -11.7600  -29.6260 N.3    87  ALA87      -0.1231
     64  CA         0.0070  -12.6190  -30.7900 C.3    87  ALA87       0.1694
     65  C         -1.4010  -13.2580  -30.8170 C.2    87  ALA87       0.2591
     66  O         -1.9950  -13.4460  -31.8830 O.2    87  ALA87      -0.2718
     67  CB         1.0740  -13.6860  -30.8210 C.3    87  ALA87       0.0304
     68  N         -1.9420  -13.5650  -29.6420 N.am   88  LEU88      -0.1980
     69  CA        -3.2590  -14.1810  -29.5700 C.3    88  LEU88       0.1596
     70  C         -4.3830  -13.1770  -29.8620 C.2    88  LEU88       0.2287
     71  O         -5.3600  -13.5090  -30.5170 O.2    88  LEU88      -0.2864
     72  CB        -3.4760  -14.8290  -28.2010 C.3    88  LEU88       0.0297
     73  CG        -2.7260  -16.1180  -27.8730 C.3    88  LEU88       0.0022
     74  CD1       -2.9550  -16.5580  -26.4210 C.3    88  LEU88       0.0001
     75  CD2       -3.1250  -17.2370  -28.8180 C.3    88  LEU88       0.0001
     76  N         -4.2150  -10.0080  -31.3030 N.3    90  ILE90      -0.1231
     77  CA        -4.2300   -9.3810  -32.6140 C.3    90  ILE90       0.1678
     78  C         -4.6080  -10.4370  -33.6440 C.2    90  ILE90       0.2434
     79  O         -3.8940  -11.4350  -33.8240 O.2    90  ILE90      -0.2733
     80  CB        -2.8950   -8.7330  -32.9430 C.3    90  ILE90       0.0265
     81  CG1       -2.6420   -7.6130  -31.9300 C.3    90  ILE90       0.0019
     82  CG2       -2.8950   -8.2290  -34.3950 C.3    90  ILE90       0.0020
     83  CD1       -1.2940   -6.9820  -32.0250 C.3    90  ILE90       0.0001
     84  N         -5.7630  -10.2370  -34.2940 N.am   91  PRO91      -0.2729
     85  CA        -6.3880  -11.2620  -35.1490 C.3    91  PRO91       0.1401
     86  C         -5.4580  -11.8010  -36.2220 C.2    91  PRO91       0.2269
     87  O         -5.4210  -13.0120  -36.4440 O.2    91  PRO91      -0.2865
     88  CB        -7.5730  -10.5220  -35.7760 C.3    91  PRO91       0.0296
     89  CG        -7.9180   -9.4520  -34.7390 C.3    91  PRO91       0.0237
     90  CD        -6.5740   -9.0080  -34.2120 C.3    91  PRO91       0.0939
     91  N         -2.1670  -11.9610  -36.4070 N.3    93  VAL93      -0.1231
     92  CA        -0.9330  -12.6370  -36.0290 C.3    93  VAL93       0.1692
     93  C         -1.1260  -14.1590  -36.0420 C.2    93  VAL93       0.2592
     94  O         -2.1640  -14.6740  -35.6340 O.2    93  VAL93      -0.2718
     95  CB        -0.4420  -12.1820  -34.6550 C.3    93  VAL93       0.0266
     96  CG1        0.8900  -12.8470  -34.3100 C.3    93  VAL93       0.0020
     97  CG2       -0.3020  -10.6650  -34.6290 C.3    93  VAL93       0.0020
     98  N         -0.1250  -14.8690  -36.5410 N.am   94  GLN94      -0.1966
     99  CA        -0.1960  -16.3160  -36.6540 C.3    94  GLN94       0.1733
    100  C          0.9770  -16.9390  -35.9240 C.2    94  GLN94       0.2616
    101  O          1.9500  -16.2540  -35.6010 O.2    94  GLN94      -0.2715
    102  CB        -0.1900  -16.7560  -38.1220 C.3    94  GLN94       0.0408
    103  CG        -1.3660  -16.2730  -38.9560 C.3    94  GLN94       0.0908
    104  CD        -1.1280  -16.4350  -40.4600 C.2    94  GLN94       0.2608
    105  OE1       -0.6330  -15.5090  -41.1190 O.2    94  GLN94      -0.2717
    106  NE2       -1.5120  -17.5900  -41.0120 N.am   94  GLN94      -0.0878
    107  N          0.8810  -18.2390  -35.6700 N.am   95  PHE95      -0.1974
    108  CA         1.9830  -18.9910  -35.1010 C.3    95  PHE95       0.1639
    109  C          2.4720  -20.0200  -36.1370 C.2    95  PHE95       0.2290
    110  O          1.6660  -20.6700  -36.8250 O.2    95  PHE95      -0.2864
    111  CB         1.5650  -19.7040  -33.8020 C.3    95  PHE95       0.0560
    112  CG         1.2830  -18.7860  -32.6350 C.ar   95  PHE95      -0.0200
    113  CD1        2.2650  -18.5090  -31.6980 C.ar   95  PHE95      -0.0042
    114  CD2        0.0260  -18.2480  -32.4450 C.ar   95  PHE95      -0.0042
    115  CE1        2.0110  -17.6870  -30.5980 C.ar   95  PHE95      -0.0003
    116  CE2       -0.2430  -17.4210  -31.3430 C.ar   95  PHE95      -0.0003
    117  CZ         0.7550  -17.1450  -30.4200 C.ar   95  PHE95      -0.0000
    118  N          1.6140  -24.3710  -33.8690 N.3    98  VAL98      -0.1231
    119  CA         0.6780  -24.1770  -32.7640 C.3    98  VAL98       0.1692
    120  C          1.0170  -25.0390  -31.5420 C.2    98  VAL98       0.2592
    121  O          0.5710  -24.7350  -30.4350 O.2    98  VAL98      -0.2718
    122  CB        -0.7820  -24.4610  -33.1870 C.3    98  VAL98       0.0266
    123  CG1       -1.2060  -23.4820  -34.2500 C.3    98  VAL98       0.0020
    124  CG2       -0.9310  -25.8600  -33.6750 C.3    98  VAL98       0.0020
    125  N          1.8070  -26.0960  -31.7140 N.am   99  SER99      -0.1952
    126  CA         2.1460  -26.9170  -30.5490 C.3    99  SER99       0.1924
    127  C          3.2200  -26.2570  -29.7040 C.2    99  SER99       0.2314
    128  O          3.1110  -26.2470  -28.4810 O.2    99  SER99      -0.2863
    129  CB         2.5950  -28.3220  -30.9650 C.3    99  SER99       0.2116
    130  OG         1.4900  -29.0740  -31.4390 O.3    99  SER99      -0.2180
    131  N          4.1230  -23.0680  -30.2040 N.3   101  MET101     -0.1245
    132  CA         3.7650  -21.6450  -30.2250 C.3   101  MET101      0.1570
    133  C          4.9380  -20.7100  -30.5540 C.2   101  MET101      0.2261
    134  O          5.0770  -19.6470  -29.9500 O.2   101  MET101     -0.2867
    135  CB         3.1320  -21.2400  -28.8920 C.3   101  MET101      0.0387
    136  CG         1.7990  -21.9430  -28.6060 C.3   101  MET101      0.0595
    137  SD         0.9080  -21.3130  -27.1650 S.3   101  MET101     -0.1393
    138  CE         0.7270  -19.5920  -27.5750 C.3   101  MET101      0.0692
    139  N        -11.6690  -14.2790  -23.4670 N.3   160  GLU160     -0.1245
    140  CA       -11.7270  -15.3900  -24.3950 C.3   160  GLU160      0.1567
    141  C        -13.1750  -15.7150  -24.7040 C.2   160  GLU160      0.2260
    142  O        -13.9390  -16.0760  -23.8230 O.2   160  GLU160     -0.2867
    143  CB       -11.0080  -16.6030  -23.8140 C.3   160  GLU160      0.0388
    144  CG        -9.5100  -16.4240  -23.7750 C.3   160  GLU160      0.1160
    145  CD        -8.7790  -17.5780  -23.1100 C.2   160  GLU160      0.3649
    146  OE1       -9.2890  -18.7250  -23.1360 O.co2 160  GLU160     -0.2457
    147  OE2       -7.6690  -17.3330  -22.5850 O.co2 160  GLU160     -0.2457
    148  N        -13.2230  -26.2410  -29.3510 N.3   164  ASP164     -0.1225
    149  CA       -12.6060  -25.0040  -28.8750 C.3   164  ASP164      0.1805
    150  C        -11.9890  -24.1860  -29.9630 C.2   164  ASP164      0.2598
    151  O        -10.8220  -24.2920  -30.2570 O.2   164  ASP164     -0.2718
    152  CB       -11.6530  -25.2040  -27.7090 C.3   164  ASP164      0.1424
    153  CG       -12.3610  -25.1270  -26.3900 C.2   164  ASP164      0.3668
    154  OD1      -12.7280  -24.0350  -25.9510 O.co2 164  ASP164     -0.2456
    155  OD2      -12.5680  -26.1920  -25.8010 O.co2 164  ASP164     -0.2456
    156  N        -12.8080  -23.3680  -30.5960 N.am  165  ASN165     -0.1960
    157  CA       -12.1510  -22.3860  -31.4090 C.3   165  ASN165      0.1819
    158  C        -12.4480  -21.1540  -30.6140 C.2   165  ASN165      0.2621
    159  O        -13.5740  -20.9220  -30.2620 O.2   165  ASN165     -0.2715
    160  CB       -12.7360  -22.3210  -32.8150 C.3   165  ASN165      0.1195
    161  CG       -11.9890  -21.3840  -33.7330 C.2   165  ASN165      0.2630
    162  OD1      -11.0940  -20.6290  -33.3260 O.2   165  ASN165     -0.2716
    163  ND2      -12.4410  -21.3520  -34.9640 N.am  165  ASN165     -0.0877
    164  N        -11.4300  -20.4080  -30.2720 N.am  166  VAL166     -0.1963
    165  CA       -11.5960  -19.3030  -29.3820 C.3   166  VAL166      0.1727
    166  C        -11.3170  -17.9790  -30.0410 C.2   166  VAL166      0.2616
    167  O        -10.3660  -17.8050  -30.7390 O.2   166  VAL166     -0.2715
    168  CB       -10.6800  -19.4970  -28.1840 C.3   166  VAL166      0.0290
    169  CG1      -10.7050  -18.3200  -27.2430 C.3   166  VAL166      0.0023
    170  CG2      -11.0490  -20.7710  -27.4870 C.3   166  VAL166      0.0023
    171  N        -12.1900  -17.0320  -29.8320 N.am  167  GLN167     -0.1963
    172  CA       -11.9060  -15.6890  -30.3140 C.3   167  GLN167      0.1733
    173  C        -11.2420  -14.9300  -29.1830 C.2   167  GLN167      0.2616
    174  O        -11.8460  -14.7100  -28.1390 O.2   167  GLN167     -0.2715
    175  CB       -13.1700  -14.9750  -30.7730 C.3   167  GLN167      0.0408
    176  CG       -12.9000  -13.6560  -31.4970 C.3   167  GLN167      0.0908
    177  CD       -14.1590  -13.0190  -32.0630 C.2   167  GLN167      0.2608
    178  OE1      -15.2410  -13.6130  -32.0580 O.2   167  GLN167     -0.2717
    179  NE2      -14.0230  -11.7920  -32.5370 N.am  167  GLN167     -0.0878
    180  N         -9.9800  -14.5710  -29.3720 N.am  168  TYR168     -0.1974
    181  CA        -9.2800  -13.7970  -28.3710 C.3   168  TYR168      0.1639
    182  C         -9.5000  -12.3390  -28.6850 C.2   168  TYR168      0.2290
    183  O         -8.9890  -11.8310  -29.6810 O.2   168  TYR168     -0.2864
    184  CB        -7.7990  -14.1290  -28.3420 C.3   168  TYR168      0.0560
    185  CG        -7.5070  -15.5640  -27.9890 C.ar  168  TYR168     -0.0198
    186  CD1       -7.3740  -15.9590  -26.6620 C.ar  168  TYR168     -0.0009
    187  CD2       -7.3530  -16.5230  -28.9790 C.ar  168  TYR168     -0.0009
    188  CE1       -7.1060  -17.2730  -26.3290 C.ar  168  TYR168      0.0417
    189  CE2       -7.0790  -17.8480  -28.6550 C.ar  168  TYR168      0.0417
    190  CZ        -6.9590  -18.2140  -27.3280 C.ar  168  TYR168      0.1957
    191  OH        -6.6870  -19.5250  -27.0010 O.3   168  TYR168     -0.2866
@<TRIPOS>BOND
     1   105   104    2
     2   106   104   am
     3   104   103    1
     4   103   102    1
     5   102    99    1
     6   110   109    2
     7    99    98    1
     8    99   100    1
     9    98    93   am
    10    87    86    2
    11    91    92    1
    12    86    85    1
    13   109   108    1
    14    93    92    1
    15    93    94    2
    16    92    95    1
    17   100   107   am
    18   100   101    2
    19    88    85    1
    20    88    89    1
    21   107   108    1
    22    85    84    1
    23   108   111    1
    24   163   161   am
    25    89    90    1
    26    95    97    1
    27    95    96    1
    28    82    80    1
    29    84    90    1
    30    84    78   am
    31   123   122    1
    32   118   119    1
    33    79    78    2
    34   111   112    1
    35   161   162    2
    36   161   160    1
    37   124   122    1
    38    78    77    1
    39   122   119    1
    40    80    77    1
    41    80    81    1
    42   160   157    1
    43   119   120    1
    44   112   114   ar
    45   112   113   ar
    46    77    76    1
    47   179   177   am
    48   114   116   ar
    49   177   178    2
    50   177   176    1
    51    83    81    1
    52    66    65    2
    53   125   120   am
    54   125   126    1
    55   113   115   ar
    56   120   121    2
    57   176   175    1
    58   130   129    1
    59   157   158    1
    60   157   156    1
    61   116   117   ar
    62   129   126    1
    63    67    64    1
    64    65    64    1
    65    65    68   am
    66    64    63    1
    67   175   172    1
    68   167   166    2
    69   158   164   am
    70   158   159    2
    71   115   117   ar
    72   156   150   am
    73   133   132    1
    74   133   134    2
    75   126   127    1
    76    71    70    2
    77   172   171    1
    78   172   173    1
    79   164   165    1
    80   151   150    2
    81   132   131    1
    82   132   135    1
    83   166   171   am
    84   166   165    1
    85   150   149    1
    86    70    69    1
    87   127   128    2
    88   183   182    2
    89    68    69    1
    90    69    72    1
    91   165   168    1
    92   180   173   am
    93   180   181    1
    94   148   149    1
    95   173   174    2
    96   187   189   ar
    97   187   185   ar
    98   135   136    1
    99   149   152    1
   100    75    73    1
   101   182   181    1
   102   189   190   ar
   103   136   137    1
   104   181   184    1
   105   184   185    1
   106    72    73    1
   107   168   170    1
   108   168   169    1
   109   185   186   ar
   110    73    74    1
   111   152   153    1
   112   138   137    1
   113   190   191    1
   114   190   188   ar
   115   186   188   ar
   116   153   154   ar
   117   153   155   ar
   118    62    61    2
   119    60    61    1
   120    60    59    1
   121   141   140    1
   122   141   142    2
   123   140   143    1
   124   140   139    1
   125    51    50    2
   126    56    55    2
   127   143   144    1
   128   144   145    1
   129    55    54    1
   130    50    49    1
   131    50    53   am
   132   146   145   ar
   133   145   147   ar
   134     6     5    1
   135    49    52    1
   136    49    48    1
   137    54    53    1
   138    54    57    1
   139    42    41    2
   140     7     5    1
   141     4     3    2
   142    48    41   am
   143    41    40    1
   144     5     2    1
   145    47    45   am
   146    57    58    1
   147    44    45    1
   148    44    43    1
   149     2     3    1
   150     2     1    1
   151     3     8   am
   152    45    46    2
   153    40    43    1
   154    40    39    1
   155    12     9    1
   156    12    13    1
   157     8     9    1
   158     9    10    1
   159    37    36    2
   160    38    36   am
   161    25    24    2
   162    36    35    1
   163    35    32    1
   164    26    27    1
   165    26    23    1
   166    10    11    2
   167    29    28   ar
   168    21    19   ar
   169    24    23    1
   170    24    31   am
   171    27    28    1
   172    32    31    1
   173    32    33    1
   174    28    30   ar
   175    23    22    1
   176    19    20   ar
   177    19    18    1
   178    33    34    2
   179    14    15    1
   180    18    15    1
   181    15    16    1
   182    17    16    2
