@<TRIPOS>MOLECULE
tmp/5daiA00.pdb
 58 55 0 0 0
SMALL
GASTEIGER

@<TRIPOS>ATOM
      1  N         14.7300   28.2840    3.1440 N.3    40  MET40      -0.1245
      2  CA        13.3950   28.3150    2.5680 C.3    40  MET40       0.1570
      3  C         13.2210   27.1090    1.6780 C.2    40  MET40       0.2261
      4  O         14.1860   26.6230    1.1040 O.2    40  MET40      -0.2867
      5  CB        13.1430   29.5780    1.7530 C.3    40  MET40       0.0387
      6  CG        13.2870   30.8570    2.5080 C.3    40  MET40       0.0595
      7  SD        13.0120   32.2240    1.3840 S.3    40  MET40      -0.1393
      8  CE        11.2480   32.3410    1.4560 C.3    40  MET40       0.0692
      9  N          7.9370   29.7310   -0.1650 N.3    45  VAL45      -0.1231
     10  CA         6.6580   29.9530    0.5000 C.3    45  VAL45       0.1692
     11  C          6.7990   29.7880    2.0170 C.2    45  VAL45       0.2592
     12  O          6.0410   30.3710    2.8070 O.2    45  VAL45      -0.2718
     13  CB         5.5800   28.9720   -0.0500 C.3    45  VAL45       0.0266
     14  CG1        4.3430   28.9610    0.8190 C.3    45  VAL45       0.0020
     15  CG2        5.2330   29.3210   -1.4860 C.3    45  VAL45       0.0020
     16  N          7.7820   28.9890    2.4230 N.am   46  VAL46      -0.1966
     17  CA         7.9880   28.7290    3.8400 C.3    46  VAL46       0.1727
     18  C          9.4540   28.8610    4.2350 C.2    46  VAL46       0.2616
     19  O         10.3710   28.5180    3.4780 O.2    46  VAL46      -0.2715
     20  CB         7.4460   27.3190    4.2490 C.3    46  VAL46       0.0290
     21  CG1        8.2770   26.2240    3.6390 C.3    46  VAL46       0.0023
     22  CG2        7.3950   27.1720    5.7700 C.3    46  VAL46       0.0023
     23  N          9.6510   29.3970    5.4340 N.am   47  LEU47      -0.1977
     24  CA        10.9690   29.5870    6.0070 C.3    47  LEU47       0.1596
     25  C         11.0440   28.7380    7.2550 C.2    47  LEU47       0.2287
     26  O         10.1030   28.7300    8.0540 O.2    47  LEU47      -0.2864
     27  CB        11.2270   31.0610    6.3470 C.3    47  LEU47       0.0297
     28  CG        12.5680   31.4220    7.0250 C.3    47  LEU47       0.0022
     29  CD1       13.7170   31.3460    6.0430 C.3    47  LEU47       0.0001
     30  CD2       12.5010   32.8140    7.6260 C.3    47  LEU47       0.0001
     31  N          2.1130   36.6910    6.6070 N.3   225  PRO225     -0.2116
     32  CA         2.6020   35.3380    6.9010 C.3   225  PRO225      0.1372
     33  C          2.2330   34.8940    8.3120 C.2   225  PRO225      0.2244
     34  O          1.9950   35.7200    9.2110 O.2   225  PRO225     -0.2868
     35  CB         4.1260   35.4610    6.7580 C.3   225  PRO225      0.0268
     36  CG         4.3470   36.7250    5.9360 C.3   225  PRO225      0.0207
     37  CD         3.2170   37.6290    6.3170 C.3   225  PRO225      0.0892
     38  N          7.9570   30.3980    9.1580 N.3   241  LEU241     -0.1231
     39  CA         7.2360   31.5330    8.6300 C.3   241  LEU241      0.1693
     40  C          6.5900   31.0700    7.3380 C.2   241  LEU241      0.2592
     41  O          7.2770   30.5920    6.4390 O.2   241  LEU241     -0.2718
     42  CB         8.1740   32.7230    8.4070 C.3   241  LEU241      0.0284
     43  CG         7.5360   34.1090    8.2610 C.3   241  LEU241      0.0019
     44  CD1        6.7510   34.4850    9.5030 C.3   241  LEU241      0.0001
     45  CD2        8.6200   35.1550    7.9780 C.3   241  LEU241      0.0001
     46  N          5.2670   31.1810    7.2630 N.am  242  LEU242     -0.1966
     47  CA         4.5170   30.6780    6.1140 C.3   242  LEU242      0.1728
     48  C          3.7550   31.7940    5.4330 C.2   242  LEU242      0.2616
     49  O          2.8860   32.4150    6.0460 O.2   242  LEU242     -0.2715
     50  CB         3.5340   29.5860    6.5440 C.3   242  LEU242      0.0311
     51  CG         2.5890   29.0130    5.4860 C.3   242  LEU242      0.0022
     52  CD1        3.3560   28.2840    4.3910 C.3   242  LEU242      0.0001
     53  CD2        1.5660   28.0710    6.1340 C.3   242  LEU242      0.0001
     54  N          4.0470   32.0050    4.1570 N.am  243  ALA243     -0.1977
     55  CA         3.3910   33.0540    3.3790 C.3   243  ALA243      0.1597
     56  C          1.8890   32.7630    3.2350 C.2   243  ALA243      0.2287
     57  O          1.4780   31.6050    3.1580 O.2   243  ALA243     -0.2864
     58  CB         4.0610   33.1990    2.0110 C.3   243  ALA243      0.0319
@<TRIPOS>BOND
     1    15    13    1
     2     9    10    1
     3    13    10    1
     4    13    14    1
     5    10    11    1
     6     4     3    2
     7     7     8    1
     8     7     6    1
     9     3     2    1
    10     5     6    1
    11     5     2    1
    12    58    55    1
    13    11    16   am
    14    11    12    2
    15    16    17    1
    16     2     1    1
    17    57    56    2
    18    56    55    1
    19    55    54    1
    20    19    18    2
    21    21    20    1
    22    17    18    1
    23    17    20    1
    24    54    48   am
    25    18    23   am
    26    20    22    1
    27    52    51    1
    28    48    49    2
    29    48    47    1
    30    23    24    1
    31    51    53    1
    32    51    50    1
    33    36    37    1
    34    36    35    1
    35    24    27    1
    36    24    25    1
    37    29    28    1
    38    47    50    1
    39    47    46    1
    40    37    31    1
    41    27    28    1
    42    41    40    2
    43    31    32    1
    44    35    32    1
    45    32    33    1
    46    28    30    1
    47    25    26    2
    48    46    40   am
    49    40    39    1
    50    45    43    1
    51    43    42    1
    52    43    44    1
    53    33    34    2
    54    42    39    1
    55    39    38    1
