@<TRIPOS>MOLECULE
tmp/5danA00.pdb
 235 233 0 0 0
SMALL
GASTEIGER

@<TRIPOS>ATOM
      1  N         39.6330  -16.2680  -21.3980 N.3    19  GLY19      -0.1210
      2  CA        40.1810  -15.1240  -20.6860 C.3    19  GLY19       0.1956
      3  C         41.2210  -15.5980  -19.6960 C.2    19  GLY19       0.2613
      4  O         41.0250  -16.6350  -19.0700 O.2    19  GLY19      -0.2717
      5  N         42.3350  -14.8580  -19.5870 N.am   20  THR20      -0.1938
      6  CA        43.4810  -15.2670  -18.7570 C.3    20  THR20       0.2028
      7  C         43.9290  -14.2800  -17.6700 C.2    20  THR20       0.2642
      8  O         44.9440  -14.5090  -17.0050 O.2    20  THR20      -0.2714
      9  CB        44.6990  -15.6660  -19.6200 C.3    20  THR20       0.1808
     10  OG1       45.1870  -14.5560  -20.3960 O.3    20  THR20      -0.2208
     11  CG2       44.3340  -16.8310  -20.5480 C.3    20  THR20       0.0379
     12  N         43.1720  -13.2040  -17.4760 N.am   21  TRP21      -0.1973
     13  CA        43.4480  -12.2650  -16.3780 C.3    21  TRP21       0.1640
     14  C         43.3380  -12.9830  -15.0270 C.2    21  TRP21       0.2290
     15  O         42.3120  -13.5800  -14.7210 O.2    21  TRP21      -0.2864
     16  CB        42.4670  -11.0980  -16.4230 C.3    21  TRP21       0.0576
     17  CG        42.6010  -10.0820  -15.2960 C.ar   21  TRP21       0.0006
     18  CD1       41.6260   -9.7360  -14.3850 C.ar   21  TRP21       0.0946
     19  CD2       43.7380   -9.2580  -14.9960 C.ar   21  TRP21       0.0152
     20  NE1       42.0910   -8.7520  -13.5480 N.ar   21  TRP21      -0.2442
     21  CE2       43.3800   -8.4360  -13.8990 C.ar   21  TRP21       0.0810
     22  CE3       45.0150   -9.0990  -15.5710 C.ar   21  TRP21       0.0012
     23  CZ2       44.2630   -7.4880  -13.3480 C.ar   21  TRP21       0.0191
     24  CZ3       45.8880   -8.1740  -15.0170 C.ar   21  TRP21       0.0001
     25  CH2       45.5050   -7.3800  -13.9030 C.ar   21  TRP21       0.0015
     26  N         42.9430  -15.5300  -24.8900 N.3    53  ASP53      -0.1239
     27  CA        43.1140  -14.0890  -24.7260 C.3    53  ASP53       0.1674
     28  C         44.0600  -13.7330  -23.6040 C.2    53  ASP53       0.2266
     29  O         43.7760  -14.0450  -22.4400 O.2    53  ASP53      -0.2867
     30  CB        41.7750  -13.3900  -24.4490 C.3    53  ASP53       0.1410
     31  CG        41.9060  -11.8710  -24.4890 C.2    53  ASP53       0.3668
     32  OD1       41.9750  -11.2240  -23.4070 O.co2  53  ASP53      -0.2456
     33  OD2       42.0060  -11.3500  -25.6170 O.co2  53  ASP53      -0.2456
     34  N         49.3720   -8.9600  -18.2460 N.3    58  TYR58      -0.1241
     35  CA        48.8200  -10.0170  -17.4190 C.3    58  TYR58       0.1605
     36  C         49.9370  -10.7610  -16.6580 C.2    58  TYR58       0.2264
     37  O         50.9020  -11.2590  -17.2510 O.2    58  TYR58      -0.2867
     38  CB        47.9480  -10.9590  -18.2590 C.3    58  TYR58       0.0534
     39  CG        46.6890  -10.3420  -18.9050 C.ar   58  TYR58      -0.0201
     40  CD1       46.3190   -8.9790  -18.7100 C.ar   58  TYR58      -0.0009
     41  CD2       45.8400  -11.1300  -19.6730 C.ar   58  TYR58      -0.0009
     42  CE1       45.1640   -8.4570  -19.2780 C.ar   58  TYR58       0.0417
     43  CE2       44.6920  -10.6060  -20.2630 C.ar   58  TYR58       0.0417
     44  CZ        44.3620   -9.2670  -20.0710 C.ar   58  TYR58       0.1957
     45  OH        43.2370   -8.7500  -20.6560 O.3    58  TYR58      -0.2866
     46  N         48.4000   -8.3100  -26.4520 N.3    84  LYS84      -0.1245
     47  CA        48.0420   -6.8930  -26.4170 C.3    84  LYS84       0.1561
     48  C         49.2130   -6.0760  -25.9320 C.2    84  LYS84       0.2260
     49  O         50.0250   -6.5480  -25.1270 O.2    84  LYS84      -0.2867
     50  CB        46.8330   -6.6290  -25.5070 C.3    84  LYS84       0.0271
     51  CG        45.6480   -7.5450  -25.6620 C.3    84  LYS84       0.0035
     52  CD        44.5250   -7.1180  -24.7310 C.3    84  LYS84       0.0206
     53  CE        43.4270   -8.1770  -24.6310 C.3    84  LYS84       0.1093
     54  NZ        43.6480   -9.1160  -23.5140 N.3    84  LYS84      -0.1314
     55  N         45.8550   -2.2710  -26.3800 N.3   117  HIS117     -0.1226
     56  CA        45.0810   -2.6640  -25.1810 C.3   117  HIS117      0.1752
     57  C         44.1660   -1.5100  -24.7100 C.2   117  HIS117      0.2596
     58  O         42.9940   -1.7080  -24.4130 O.2   117  HIS117     -0.2718
     59  CB        46.0680   -3.0490  -24.0680 C.3   117  HIS117      0.0759
     60  CG        45.5060   -3.9330  -23.0070 C.ar  117  HIS117      0.0818
     61  ND1       46.2700   -4.8880  -22.3670 N.ar  117  HIS117     -0.2268
     62  CD2       44.2800   -3.9920  -22.4400 C.ar  117  HIS117      0.1154
     63  CE1       45.5360   -5.5050  -21.4670 C.ar  117  HIS117      0.1986
     64  NE2       44.3230   -4.9780  -21.4850 N.ar  117  HIS117     -0.2212
     65  N         44.7370   -0.3160  -24.6130 N.am  118  TRP118     -0.1976
     66  CA        44.0030    0.9040  -24.3470 C.3   118  TRP118      0.1640
     67  C         44.5600    2.0060  -25.2140 C.2   118  TRP118      0.2290
     68  O         45.7560    2.0510  -25.4060 O.2   118  TRP118     -0.2864
     69  CB        44.1730    1.3810  -22.9040 C.3   118  TRP118      0.0576
     70  CG        43.5220    0.5220  -21.9000 C.ar  118  TRP118      0.0006
     71  CD1       44.0710   -0.5660  -21.2690 C.ar  118  TRP118      0.0946
     72  CD2       42.2010    0.6720  -21.3840 C.ar  118  TRP118      0.0152
     73  NE1       43.1610   -1.1120  -20.4110 N.ar  118  TRP118     -0.2442
     74  CE2       42.0050   -0.3720  -20.4480 C.ar  118  TRP118      0.0810
     75  CE3       41.1590    1.5810  -21.6250 C.ar  118  TRP118      0.0012
     76  CZ2       40.8030   -0.5400  -19.7550 C.ar  118  TRP118      0.0191
     77  CZ3       39.9640    1.4220  -20.9450 C.ar  118  TRP118      0.0001
     78  CH2       39.7950    0.3580  -20.0060 C.ar  118  TRP118      0.0015
     79  N         41.4170   -2.3820  -28.6810 N.3   147  SER147     -0.1202
     80  CA        40.6350   -2.6610  -27.4700 C.3   147  SER147      0.2020
     81  C         40.3340   -1.3560  -26.7590 C.2   147  SER147      0.2618
     82  O         41.1880   -0.4350  -26.6840 O.2   147  SER147     -0.2717
     83  CB        41.3850   -3.6270  -26.5460 C.3   147  SER147      0.2103
     84  OG        40.5630   -4.1080  -25.5050 O.3   147  SER147     -0.2182
     85  N         39.1240   -1.2840  -26.2230 N.am  148  ASN148     -0.1974
     86  CA        38.6350   -0.1140  -25.4860 C.3   148  ASN148      0.1688
     87  C         38.5970    1.1500  -26.3700 C.2   148  ASN148      0.2292
     88  O         38.8730    2.2600  -25.9010 O.2   148  ASN148     -0.2864
     89  CB        39.4270    0.1220  -24.1680 C.3   148  ASN148      0.1181
     90  CG        39.3350   -1.0670  -23.2020 C.2   148  ASN148      0.2629
     91  OD1       40.3400   -1.7130  -22.8910 O.2   148  ASN148     -0.2716
     92  ND2       38.1390   -1.3440  -22.7280 N.am  148  ASN148     -0.0877
     93  N         37.8460   -5.0730  -28.9820 N.3   169  GLN169     -0.1245
     94  CA        37.5330   -5.7750  -27.7390 C.3   169  GLN169      0.1566
     95  C         37.1410   -4.7600  -26.6620 C.2   169  GLN169      0.2260
     96  O         37.9470   -3.9250  -26.2600 O.2   169  GLN169     -0.2867
     97  CB        38.7230   -6.6370  -27.2770 C.3   169  GLN169      0.0367
     98  CG        38.5890   -7.2160  -25.8670 C.3   169  GLN169      0.0905
     99  CD        39.7150   -8.1780  -25.4440 C.2   169  GLN169      0.2608
    100  OE1       40.1150   -8.1630  -24.2970 O.2   169  GLN169     -0.2717
    101  NE2       40.2200   -9.0150  -26.3690 N.am  169  GLN169     -0.0878
    102  N         34.5710   -8.4520  -23.5730 N.3   198  TYR198     -0.1227
    103  CA        35.2430   -8.7570  -22.3140 C.3   198  TYR198      0.1736
    104  C         34.3570   -8.4910  -21.0970 C.2   198  TYR198      0.2596
    105  O         33.2970   -7.8480  -21.1830 O.2   198  TYR198     -0.2718
    106  CB        36.6130   -8.0900  -22.2640 C.3   198  TYR198      0.0548
    107  CG        36.7390   -6.6370  -21.8320 C.ar  198  TYR198     -0.0200
    108  CD1       36.4390   -6.2280  -20.5300 C.ar  198  TYR198     -0.0009
    109  CD2       37.2720   -5.7000  -22.6900 C.ar  198  TYR198     -0.0009
    110  CE1       36.6440   -4.9070  -20.1280 C.ar  198  TYR198      0.0417
    111  CE2       37.4610   -4.3790  -22.3140 C.ar  198  TYR198      0.0417
    112  CZ        37.1540   -3.9860  -21.0400 C.ar  198  TYR198      0.1957
    113  OH        37.3730   -2.6920  -20.6660 O.3   198  TYR198     -0.2866
    114  N         34.7710   -9.0530  -19.9670 N.am  199  SER199     -0.1938
    115  CA        33.9110   -9.1820  -18.7820 C.3   199  SER199      0.2040
    116  C         32.4610   -9.5690  -19.1280 C.2   199  SER199      0.2485
    117  O         31.5300   -8.8970  -18.7040 O.2   199  SER199     -0.2729
    118  CB        33.9570   -7.9030  -17.9380 C.3   199  SER199      0.2129
    119  OG        35.3100   -7.6320  -17.5760 O.3   199  SER199     -0.2179
    120  N         32.2820  -10.6600  -19.8990 N.am  200  PRO200     -0.2715
    121  CA        30.9580  -11.0480  -20.4110 C.3   200  PRO200      0.1536
    122  C         29.9850  -11.6240  -19.3490 C.2   200  PRO200      0.2598
    123  O         28.7620  -11.6870  -19.5940 O.2   200  PRO200     -0.2715
    124  CB        31.3020  -12.1010  -21.4500 C.3   200  PRO200      0.0310
    125  CG        32.5290  -12.7570  -20.9080 C.3   200  PRO200      0.0237
    126  CD        33.3290  -11.6330  -20.3130 C.3   200  PRO200      0.0939
    127  N         30.5320  -12.0360  -18.1980 N.am  201  LEU201     -0.1978
    128  CA        29.7270  -12.3630  -17.0020 C.3   201  LEU201      0.1596
    129  C         29.6630  -11.2150  -15.9900 C.2   201  LEU201      0.2287
    130  O         29.1130  -11.3770  -14.8940 O.2   201  LEU201     -0.2864
    131  CB        30.3030  -13.6280  -16.3330 C.3   201  LEU201      0.0297
    132  CG        30.4760  -14.8130  -17.2880 C.3   201  LEU201      0.0022
    133  CD1       30.9060  -16.0650  -16.5440 C.3   201  LEU201      0.0001
    134  CD2       29.1910  -15.0660  -18.0590 C.3   201  LEU201      0.0001
    135  N         31.9230  -10.2620  -14.2150 N.3   203  ARG203     -0.1231
    136  CA        32.5780  -10.8740  -13.0490 C.3   203  ARG203      0.1694
    137  C         31.6060  -11.4290  -11.9930 C.2   203  ARG203      0.2592
    138  O         31.9500  -11.5240  -10.8160 O.2   203  ARG203     -0.2718
    139  CB        33.5670   -9.8880  -12.4340 C.3   203  ARG203      0.0321
    140  CG        34.7250   -9.6420  -13.3690 C.3   203  ARG203      0.0489
    141  CD        35.6270   -8.5150  -12.9470 C.3   203  ARG203      0.2205
    142  NE        36.7190   -8.4500  -13.9240 N.pl3 203  ARG203     -0.0865
    143  CZ        37.6980   -7.5430  -13.9580 C.cat 203  ARG203      0.5346
    144  NH1       37.7530   -6.5630  -13.0640 N.pl3 203  ARG203      0.1354
    145  NH2       38.6360   -7.6290  -14.9080 N.pl3 203  ARG203      0.1354
    146  N         30.4220  -11.8260  -12.4650 N.am  204  THR204     -0.1953
    147  CA        29.2750  -12.2850  -11.6620 C.3   204  THR204      0.1897
    148  C         28.5750  -11.2280  -10.8050 C.2   204  THR204      0.2313
    149  O         27.6390  -11.5590  -10.0850 O.2   204  THR204     -0.2863
    150  CB        29.5860  -13.5370  -10.7900 C.3   204  THR204      0.1794
    151  OG1       30.3560  -13.1490   -9.6440 O.3   204  THR204     -0.2208
    152  CG2       30.3280  -14.5990  -11.5910 C.3   204  THR204      0.0378
    153  N         24.5310  -17.8360  -15.9480 N.3   226  TYR226     -0.1241
    154  CA        25.7690  -17.4580  -16.6550 C.3   226  TYR226      0.1605
    155  C         25.7640  -18.0040  -18.0740 C.2   226  TYR226      0.2264
    156  O         26.2120  -17.3400  -19.0210 O.2   226  TYR226     -0.2867
    157  CB        27.0320  -17.9010  -15.8910 C.3   226  TYR226      0.0534
    158  CG        27.0370  -17.3900  -14.4780 C.ar  226  TYR226     -0.0201
    159  CD1       27.0240  -16.0250  -14.2060 C.ar  226  TYR226     -0.0009
    160  CD2       26.9560  -18.2730  -13.4070 C.ar  226  TYR226     -0.0009
    161  CE1       26.9870  -15.5600  -12.9030 C.ar  226  TYR226      0.0417
    162  CE2       26.9210  -17.8270  -12.1070 C.ar  226  TYR226      0.0417
    163  CZ        26.9270  -16.4780  -11.8560 C.ar  226  TYR226      0.1957
    164  OH        26.8900  -16.0670  -10.5570 O.3   226  TYR226     -0.2866
    165  N         34.7540  -13.5480  -24.2280 N.3   242  ILE242     -0.1231
    166  CA        36.0020  -14.0110  -23.6300 C.3   242  ILE242      0.1678
    167  C         35.8380  -14.1640  -22.1150 C.2   242  ILE242      0.2434
    168  O         36.4300  -13.4400  -21.3750 O.2   242  ILE242     -0.2733
    169  CB        37.1110  -13.0050  -23.9830 C.3   242  ILE242      0.0265
    170  CG1       37.4380  -13.1860  -25.4620 C.3   242  ILE242      0.0019
    171  CG2       38.3880  -13.2010  -23.1670 C.3   242  ILE242      0.0020
    172  CD1       38.4610  -12.2020  -25.9320 C.3   242  ILE242      0.0001
    173  N         35.0100  -15.1090  -21.6540 N.am  243  PRO243     -0.2718
    174  CA        34.8980  -15.2780  -20.1990 C.3   243  PRO243      0.1535
    175  C         36.1960  -15.8140  -19.6130 C.2   243  PRO243      0.2598
    176  O         36.9110  -16.5620  -20.2980 O.2   243  PRO243     -0.2715
    177  CB        33.7860  -16.3110  -20.0600 C.3   243  PRO243      0.0310
    178  CG        33.8770  -17.1180  -21.3090 C.3   243  PRO243      0.0237
    179  CD        34.2500  -16.1340  -22.3860 C.3   243  PRO243      0.0939
    180  N         36.5080  -15.4370  -18.3730 N.am  244  LYS244     -0.1964
    181  CA        37.5930  -16.0750  -17.6460 C.3   244  LYS244      0.1728
    182  C         37.0300  -17.1680  -16.7390 C.2   244  LYS244      0.2616
    183  O         36.1730  -16.8870  -15.9180 O.2   244  LYS244     -0.2715
    184  CB        38.3470  -15.0610  -16.7840 C.3   244  LYS244      0.0311
    185  CG        39.5560  -15.6220  -16.0990 C.3   244  LYS244      0.0038
    186  CD        39.2600  -15.9890  -14.6700 C.3   244  LYS244      0.0206
    187  CE        40.4590  -16.6100  -14.0050 C.3   244  LYS244      0.1093
    188  NZ        40.0700  -16.8120  -12.5800 N.3   244  LYS244     -0.1314
    189  N         37.5650  -18.3810  -16.8690 N.am  245  ALA245     -0.1963
    190  CA        37.2040  -19.5200  -16.0350 C.3   245  ALA245      0.1728
    191  C         38.4620  -20.2170  -15.5770 C.2   245  ALA245      0.2617
    192  O         39.1250  -20.9250  -16.3530 O.2   245  ALA245     -0.2715
    193  CB        36.3160  -20.4760  -16.8020 C.3   245  ALA245      0.0334
    194  N         38.8030  -19.9940  -14.3150 N.am  246  GLY246     -0.1940
    195  CA        39.8660  -20.7190  -13.6530 C.3   246  GLY246      0.2014
    196  C         39.5410  -22.0860  -13.0700 C.2   246  GLY246      0.2638
    197  O         40.3840  -22.6660  -12.4060 O.2   246  GLY246     -0.2714
    198  N         38.3460  -22.6060  -13.3100 N.am  247  ARG247     -0.1977
    199  CA        37.9500  -23.9240  -12.8160 C.3   247  ARG247      0.1597
    200  C         37.4150  -24.7650  -13.9410 C.2   247  ARG247      0.2287
    201  O         36.6630  -24.2670  -14.7850 O.2   247  ARG247     -0.2864
    202  CB        36.8510  -23.7880  -11.7510 C.3   247  ARG247      0.0334
    203  CG        37.1980  -22.8600  -10.5990 C.3   247  ARG247      0.0492
    204  CD        35.9740  -22.5590   -9.7660 C.3   247  ARG247      0.2205
    205  NE        36.1930  -22.8340   -8.3540 N.pl3 247  ARG247     -0.0865
    206  CZ        36.1350  -21.9690   -7.3450 C.cat 247  ARG247      0.5346
    207  NH1       35.8680  -20.6840   -7.5040 N.pl3 247  ARG247      0.1354
    208  NH2       36.3340  -22.4310   -6.1390 N.pl3 247  ARG247      0.1354
    209  N         33.5880  -24.5170  -14.5090 N.3   250  HIS250     -0.1241
    210  CA        33.1540  -23.3320  -15.2460 C.3   250  HIS250      0.1621
    211  C         33.5410  -23.3810  -16.7070 C.2   250  HIS250      0.2264
    212  O         32.7290  -23.0080  -17.5380 O.2   250  HIS250     -0.2867
    213  CB        33.6680  -22.0900  -14.5810 C.3   250  HIS250      0.0745
    214  CG        33.0770  -21.8910  -13.2240 C.ar  250  HIS250      0.0817
    215  ND1       33.6070  -21.0280  -12.3030 N.ar  250  HIS250     -0.2268
    216  CD2       31.9940  -22.4560  -12.6340 C.ar  250  HIS250      0.1154
    217  CE1       32.8690  -21.0460  -11.2110 C.ar  250  HIS250      0.1986
    218  NE2       31.8960  -21.9210  -11.3770 N.ar  250  HIS250     -0.2212
    219  N         30.8270  -25.7580  -18.0480 N.3   253  GLU253     -0.1231
    220  CA        29.5430  -25.0890  -18.0160 C.3   253  GLU253      0.1699
    221  C         29.4620  -24.0260  -19.1120 C.2   253  GLU253      0.2592
    222  O         28.4920  -23.9810  -19.8510 O.2   253  GLU253     -0.2718
    223  CB        29.3070  -24.4550  -16.6450 C.3   253  GLU253      0.0402
    224  CG        27.9900  -23.7100  -16.5110 C.3   253  GLU253      0.1161
    225  CD        27.8460  -23.0170  -15.1790 C.2   253  GLU253      0.3649
    226  OE1       27.4000  -21.8420  -15.1780 O.co2 253  GLU253     -0.2457
    227  OE2       28.2040  -23.6280  -14.1510 O.co2 253  GLU253     -0.2457
    228  N         30.4880  -23.1930  -19.2240 N.am  254  ASN254     -0.1974
    229  CA        30.4670  -22.1190  -20.2120 C.3   254  ASN254      0.1688
    230  C         30.4990  -22.6520  -21.6530 C.2   254  ASN254      0.2292
    231  O         29.8760  -22.0670  -22.5230 O.2   254  ASN254     -0.2864
    232  CB        31.5890  -21.1080  -19.9500 C.3   254  ASN254      0.1181
    233  CG        31.4590  -20.4320  -18.5900 C.2   254  ASN254      0.2629
    234  OD1       30.4130  -20.5340  -17.9240 O.2   254  ASN254     -0.2716
    235  ND2       32.5350  -19.7690  -18.1490 N.am  254  ASN254     -0.0877
@<TRIPOS>BOND
     1    93    94    1
     2    79    80    1
     3    94    97    1
     4    94    95    1
     5    80    81    1
     6    80    83    1
     7    97    98    1
     8    81    82    2
     9    81    85   am
    10    95    96    2
    11    83    84    1
    12    46    47    1
    13    47    48    1
    14    47    50    1
    15    55    56    1
    16    87    88    2
    17    87    86    1
    18   101    99   am
    19    85    86    1
    20    48    49    2
    21   172   170    1
    22    98    99    1
    23    51    50    1
    24    51    52    1
    25    33    31   ar
    26    86    89    1
    27   170   169    1
    28    99   100    2
    29    68    67    2
    30    67    66    1
    31    56    57    1
    32    56    59    1
    33    26    27    1
    34    52    53    1
    35    27    30    1
    36    27    28    1
    37    57    65   am
    38    57    58    2
    39    53    54    1
    40    65    66    1
    41    31    30    1
    42    31    32   ar
    43    66    69    1
    44   165   166    1
    45    89    90    1
    46    59    60    1
    47   169   166    1
    48   169   171    1
    49   166   167    1
    50    28    29    2
    51   102   103    1
    52    90    91    2
    53    90    92   am
    54    60    62   ar
    55    60    61   ar
    56    69    70    1
    57   109   111   ar
    58   109   107   ar
    59   231   230    2
    60    62    64   ar
    61   179   173    1
    62   179   178    1
    63    61    63   ar
    64   103   106    1
    65   103   104    1
    66   111   112   ar
    67   106   107    1
    68   167   173   am
    69   167   168    2
    70    70    72   ar
    71    70    71   ar
    72   107   108   ar
    73   173   174    1
    74   230   229    1
    75    75    72   ar
    76    75    77   ar
    77    64    63   ar
    78   124   125    1
    79   124   121    1
    80     1     2    1
    81    72    74   ar
    82   178   177    1
    83    71    73   ar
    84   105   104    2
    85   104   114   am
    86   112   113    1
    87   112   110   ar
    88    77    78   ar
    89   125   126    1
    90     2     3    1
    91    45    44    1
    92    11     9    1
    93   108   110   ar
    94    74    73   ar
    95    74    76   ar
    96   121   120    1
    97   121   122    1
    98    10     9    1
    99   126   120    1
   100   176   175    2
   101    43    44   ar
   102    43    41   ar
   103   229   232    1
   104   229   228    1
   105   174   177    1
   106   174   175    1
   107    44    42   ar
   108    78    76   ar
   109   114   115    1
   110   232   233    1
   111   120   116   am
   112   222   221    2
   113     3     5   am
   114     3     4    2
   115    41    39   ar
   116     9     6    1
   117   175   180   am
   118   123   122    2
   119     5     6    1
   120   122   127   am
   121    42    40   ar
   122   228   221   am
   123   116   115    1
   124   116   117    2
   125   221   220    1
   126   156   155    2
   127    39    40   ar
   128    39    38    1
   129   115   118    1
   130     6     7    1
   131   233   235   am
   132   233   234    2
   133   180   181    1
   134    38    35    1
   135    34    35    1
   136   127   128    1
   137   155   154    1
   138   134   132    1
   139   219   220    1
   140   220   223    1
   141   118   119    1
   142     7    12   am
   143     7     8    2
   144   181   184    1
   145   181   182    1
   146   212   211    2
   147    12    13    1
   148    35    36    1
   149   132   133    1
   150   132   131    1
   151    37    36    2
   152   128   131    1
   153   128   129    1
   154   189   182   am
   155   189   190    1
   156   193   190    1
   157   184   185    1
   158   182   183    2
   159   211   210    1
   160   154   153    1
   161   154   157    1
   162   223   224    1
   163   224   225    1
   164    16    13    1
   165    16    17    1
   166    13    14    1
   167   192   191    2
   168   185   186    1
   169   190   191    1
   170   129   130    2
   171   157   158    1
   172   191   194   am
   173    22    24   ar
   174    22    19   ar
   175    17    19   ar
   176    17    18   ar
   177   210   213    1
   178   210   209    1
   179   225   226   ar
   180   225   227   ar
   181    14    15    2
   182    24    25   ar
   183    19    21   ar
   184   145   143    1
   185   201   200    2
   186   186   187    1
   187   213   214    1
   188   158   159   ar
   189   158   160   ar
   190    18    20   ar
   191   194   195    1
   192   135   136    1
   193   159   161   ar
   194   187   188    1
   195   143   142    2
   196   143   144    1
   197   200   199    1
   198   142   141    1
   199    25    23   ar
   200    21    20   ar
   201    21    23   ar
   202   195   196    1
   203   160   162   ar
   204   140   141    1
   205   140   139    1
   206   198   196   am
   207   198   199    1
   208   214   216   ar
   209   214   215   ar
   210   196   197    2
   211   136   139    1
   212   136   137    1
   213   161   163   ar
   214   199   202    1
   215   216   218   ar
   216   146   137   am
   217   146   147    1
   218   215   217   ar
   219   162   163   ar
   220   137   138    2
   221   163   164    1
   222   202   203    1
   223   147   148    1
   224   147   150    1
   225   152   150    1
   226   218   217   ar
   227   148   149    2
   228   150   151    1
   229   203   204    1
   230   204   205    1
   231   205   206    2
   232   207   206    1
   233   206   208    1
