@<TRIPOS>MOLECULE
tmp/5db2A00.pdb
 210 201 0 0 0
SMALL
GASTEIGER

@<TRIPOS>ATOM
      1  N         23.6040    7.5290    6.1440 N.3   133  SER133     -0.1202
      2  CA        24.0670    7.0320    7.4130 C.3   133  SER133      0.2020
      3  C         23.2270    5.9310    8.0160 C.2   133  SER133      0.2619
      4  O         23.7130    4.8460    8.3100 O.2   133  SER133     -0.2717
      5  CB        24.2160    8.1790    8.4060 C.3   133  SER133      0.2103
      6  OG        24.4970    7.6580    9.7170 O.3   133  SER133     -0.2182
      7  N         21.9400    6.2030    8.2320 N.am  134  SER134     -0.1951
      8  CA        21.1030    5.1580    8.8200 C.3   134  SER134      0.1924
      9  C         20.8290    4.0340    7.8740 C.2   134  SER134      0.2314
     10  O         20.5330    2.9320    8.3100 O.2   134  SER134     -0.2863
     11  CB        19.8120    5.7370    9.4010 C.3   134  SER134      0.2116
     12  OG        19.0480    6.4640    8.4250 O.3   134  SER134     -0.2180
     13  N         17.6540    2.7870   17.3190 N.3   156  LEU156     -0.1231
     14  CA        17.3850    4.0880   16.7610 C.3   156  LEU156      0.1693
     15  C         17.2350    5.1530   17.8290 C.2   156  LEU156      0.2593
     16  O         16.4430    4.9790   18.7780 O.2   156  LEU156     -0.2718
     17  CB        16.0910    4.0790   15.9500 C.3   156  LEU156      0.0284
     18  CG        16.0560    3.1330   14.7490 C.3   156  LEU156      0.0019
     19  CD1       14.6110    3.0480   14.2370 C.3   156  LEU156      0.0001
     20  CD2       17.0000    3.5850   13.6760 C.3   156  LEU156      0.0001
     21  N         17.9710    6.2380   17.6810 N.am  157  SER157     -0.1938
     22  CA        17.6200    7.4250   18.4130 C.3   157  SER157      0.2055
     23  C         16.8830    8.3930   17.5000 C.2   157  SER157      0.2643
     24  O         16.4530    8.0400   16.4100 O.2   157  SER157     -0.2714
     25  CB        18.8350    8.0530   19.0740 C.3   157  SER157      0.2130
     26  OG        19.6690    8.6940   18.1500 O.3   157  SER157     -0.2179
     27  N         16.7390    9.6610   17.9300 N.am  158  GLU158     -0.1963
     28  CA        16.1090   10.6660   17.1000 C.3   158  GLU158      0.1733
     29  C         17.0230   11.2520   16.0270 C.2   158  GLU158      0.2616
     30  O         16.5640   11.9860   15.1390 O.2   158  GLU158     -0.2715
     31  CB        15.4150   11.7390   17.9750 C.3   158  GLU158      0.0429
     32  CG        14.2260   11.1800   18.7350 C.3   158  GLU158      0.1163
     33  CD        13.4360   12.2440   19.4800 C.2   158  GLU158      0.3649
     34  OE1       14.0560   13.0800   20.2050 O.co2 158  GLU158     -0.2457
     35  OE2       12.1720   12.2300   19.3210 O.co2 158  GLU158     -0.2457
     36  N         18.3200   10.9290   16.0780 N.am  159  ASP159     -0.1957
     37  CA        19.2740   11.3990   15.0470 C.3   159  ASP159      0.1840
     38  C         20.3650   10.4190   14.6990 C.2   159  ASP159      0.2622
     39  O         21.3140   10.8360   14.0810 O.2   159  ASP159     -0.2715
     40  CB        19.8990   12.7490   15.4350 C.3   159  ASP159      0.1450
     41  CG        20.5850   13.4700   14.2810 C.2   159  ASP159      0.3671
     42  OD1       20.0180   13.5440   13.1560 O.co2 159  ASP159     -0.2456
     43  OD2       21.7680   13.9020   14.5140 O.co2 159  ASP159     -0.2456
     44  N         20.2470    9.1780   15.1070 N.am  160  HIS160     -0.1959
     45  CA        21.2840    8.1940   14.8470 C.3   160  HIS160      0.1787
     46  C         20.7080    6.7710   14.8900 C.2   160  HIS160      0.2620
     47  O         19.6400    6.5150   15.3930 O.2   160  HIS160     -0.2715
     48  CB        22.4030    8.4160   15.8750 C.3   160  HIS160      0.0785
     49  CG        23.6720    7.6500   15.6150 C.ar  160  HIS160      0.0821
     50  ND1       24.1710    7.4550   14.3470 N.ar  160  HIS160     -0.2267
     51  CD2       24.5100    7.0090   16.4630 C.ar  160  HIS160      0.1154
     52  CE1       25.2970    6.7730   14.4380 C.ar  160  HIS160      0.1986
     53  NE2       25.5100    6.4610   15.7010 N.ar  160  HIS160     -0.2212
     54  N         21.5110    5.8330   14.3740 N.am  161  ALA161     -0.1977
     55  CA        21.1730    4.4400   14.2920 C.3   161  ALA161      0.1597
     56  C         22.4280    3.5840   14.5410 C.2   161  ALA161      0.2287
     57  O         23.5320    3.9650   14.1330 O.2   161  ALA161     -0.2864
     58  CB        20.5970    4.1450   12.9050 C.3   161  ALA161      0.0319
     59  N         10.6080    1.0410   10.1590 N.3   217  PHE217     -0.1241
     60  CA        11.7120    1.9760    9.8810 C.3   217  PHE217      0.1605
     61  C         11.8640    2.1600    8.3680 C.2   217  PHE217      0.2264
     62  O         11.9240    3.2730    7.8890 O.2   217  PHE217     -0.2867
     63  CB        13.0140    1.5480   10.5530 C.3   217  PHE217      0.0534
     64  CG        14.1730    2.3390   10.0680 C.ar  217  PHE217     -0.0203
     65  CD1       14.5230    3.5570   10.6570 C.ar  217  PHE217     -0.0042
     66  CD2       14.9290    1.9110    9.0260 C.ar  217  PHE217     -0.0042
     67  CE1       15.5730    4.3220   10.1800 C.ar  217  PHE217     -0.0003
     68  CE2       15.9880    2.6800    8.5510 C.ar  217  PHE217     -0.0003
     69  CZ        16.3140    3.8860    9.1310 C.ar  217  PHE217     -0.0000
     70  N          9.0080    4.3090    7.0720 N.3   220  CYS220     -0.1235
     71  CA         9.2320    5.7050    7.3960 C.3   220  CYS220      0.1677
     72  C         10.3180    6.2660    6.4690 C.2   220  CYS220      0.2270
     73  O         10.2900    7.4590    6.1170 O.2   220  CYS220     -0.2867
     74  CB         9.6840    5.8800    8.8490 C.3   220  CYS220      0.0956
     75  SG         8.3560    5.6100   10.0510 S.3   220  CYS220     -0.0801
     76  N          6.7230    3.1080   18.4310 N.3   255  TYR255     -0.1241
     77  CA         7.4480    3.8980   17.3900 C.3   255  TYR255      0.1605
     78  C          6.7970    5.3000   17.2970 C.2   255  TYR255      0.2264
     79  O          6.1360    5.6110   16.3470 O.2   255  TYR255     -0.2867
     80  CB         7.4490    3.1750   16.0560 C.3   255  TYR255      0.0534
     81  CG         8.5240    3.5730   15.0900 C.ar  255  TYR255     -0.0201
     82  CD1        9.1590    4.8370   15.1090 C.ar  255  TYR255     -0.0009
     83  CD2        8.9350    2.6660   14.1250 C.ar  255  TYR255     -0.0009
     84  CE1       10.1420    5.1730   14.2090 C.ar  255  TYR255      0.0417
     85  CE2        9.9310    3.0170   13.2180 C.ar  255  TYR255      0.0417
     86  CZ        10.5250    4.2660   13.2650 C.ar  255  TYR255      0.1957
     87  OH        11.4990    4.5410   12.3060 O.3   255  TYR255     -0.2866
     88  N          7.7980    8.3090   16.3230 N.3   257  MET257     -0.1245
     89  CA         7.9950    9.1050   15.1010 C.3   257  MET257      0.1570
     90  C          7.2250    8.5820   13.9220 C.2   257  MET257      0.2261
     91  O          6.8260    9.3850   13.0600 O.2   257  MET257     -0.2867
     92  CB         9.4580    9.3030   14.7820 C.3   257  MET257      0.0387
     93  CG        10.1730   10.2370   15.7420 C.3   257  MET257      0.0595
     94  SD        11.9480   10.4610   15.3410 S.3   257  MET257     -0.1393
     95  CE        12.6550    8.9430   15.7830 C.3   257  MET257      0.0692
     96  N          4.7380   10.6280   11.5070 N.3   261  ASN261     -0.1240
     97  CA         4.7620   10.5460   10.0330 C.3   261  ASN261      0.1653
     98  C          3.3900   10.2460    9.4700 C.2   261  ASN261      0.2266
     99  O          2.9120   10.8630    8.5330 O.2   261  ASN261     -0.2867
    100  CB         5.8000    9.5360    9.6110 C.3   261  ASN261      0.1155
    101  CG         6.1950    9.6110    8.1570 C.2   261  ASN261      0.2627
    102  OD1        5.4940   10.1230    7.2340 O.2   261  ASN261     -0.2716
    103  ND2        7.3790    9.1190    7.9080 N.am  261  ASN261     -0.0877
    104  N          1.1010   13.2400    9.7560 N.3   264  ASP264     -0.1239
    105  CA         1.3970   14.2130    8.7170 C.3   264  ASP264      0.1674
    106  C          0.7820   13.7840    7.3580 C.2   264  ASP264      0.2266
    107  O          0.3030   14.6360    6.5920 O.2   264  ASP264     -0.2867
    108  CB         2.9200   14.3330    8.5160 C.3   264  ASP264      0.1410
    109  CG         3.6460   15.1950    9.5500 C.2   264  ASP264      0.3668
    110  OD1        3.0280   15.7810   10.4790 O.co2 264  ASP264     -0.2456
    111  OD2        4.9020   15.3160    9.3390 O.co2 264  ASP264     -0.2456
    112  N         10.8020   14.7090   19.3050 N.3   298  TYR298     -0.1241
    113  CA        10.0510   14.8660   18.0800 C.3   298  TYR298      0.1605
    114  C          8.5700   14.6310   18.2070 C.2   298  TYR298      0.2264
    115  O          7.8630   15.2440   17.4480 O.2   298  TYR298     -0.2867
    116  CB        10.6560   14.0740   16.8680 C.3   298  TYR298      0.0534
    117  CG        11.8570   14.7420   16.2520 C.ar  298  TYR298     -0.0201
    118  CD1       11.7230   15.9520   15.5680 C.ar  298  TYR298     -0.0009
    119  CD2       13.1060   14.1500   16.2510 C.ar  298  TYR298     -0.0009
    120  CE1       12.8330   16.5720   14.9860 C.ar  298  TYR298      0.0417
    121  CE2       14.2010   14.7760   15.6650 C.ar  298  TYR298      0.0417
    122  CZ        14.0570   15.9690   15.0530 C.ar  298  TYR298      0.1957
    123  OH        15.2590   16.4890   14.5250 O.3   298  TYR298     -0.2866
    124  N          7.4470   18.0740   18.8070 N.3   301  MET301     -0.1230
    125  CA         7.6930   18.8710   17.6180 C.3   301  MET301      0.1702
    126  C          6.6560   18.5840   16.5210 C.2   301  MET301      0.2592
    127  O          6.1190   19.5110   15.8760 O.2   301  MET301     -0.2718
    128  CB         9.0720   18.6390   17.0360 C.3   301  MET301      0.0401
    129  CG        10.1580   19.1920   17.8840 C.3   301  MET301      0.0596
    130  SD        10.2270   21.0010   17.7400 S.3   301  MET301     -0.1393
    131  CE        11.7610   21.2900   18.6250 C.3   301  MET301      0.0692
    132  N          6.3660   17.3060   16.2630 N.am  302  TYR302     -0.1976
    133  CA         5.3350   16.9460   15.2500 C.3   302  TYR302      0.1639
    134  C          4.0130   17.6080   15.5790 C.2   302  TYR302      0.2290
    135  O          3.3480   18.1440   14.6870 O.2   302  TYR302     -0.2864
    136  CB         5.1780   15.4390   15.1830 C.3   302  TYR302      0.0560
    137  CG         6.0220   14.6680   14.1940 C.ar  302  TYR302     -0.0198
    138  CD1        5.8340   14.8060   12.8430 C.ar  302  TYR302     -0.0009
    139  CD2        6.9260   13.6650   14.6290 C.ar  302  TYR302     -0.0009
    140  CE1        6.5340   14.0290   11.9080 C.ar  302  TYR302      0.0417
    141  CE2        7.5610   12.8860   13.7120 C.ar  302  TYR302      0.0417
    142  CZ         7.3660   13.0710   12.3630 C.ar  302  TYR302      0.1957
    143  OH         8.1030   12.2860   11.4460 O.3   302  TYR302     -0.2866
    144  N          4.2170   21.4530   15.0810 N.3   305  GLY305     -0.1225
    145  CA         4.1970   21.8050   13.6800 C.3   305  GLY305      0.1811
    146  C          2.8110   21.7720   13.0770 C.2   305  GLY305      0.2280
    147  O          2.4500   22.6740   12.3280 O.2   305  GLY305     -0.2866
    148  N          1.0500   24.8120   14.3480 N.3   308  CYS308     -0.1221
    149  CA         1.6610   25.9840   13.7140 C.3   308  CYS308      0.1808
    150  C          1.0920   26.1510   12.2860 C.2   308  CYS308      0.2601
    151  O          0.6450   27.2480   11.9130 O.2   308  CYS308     -0.2717
    152  CB         3.1790   25.8680   13.7530 C.3   308  CYS308      0.0970
    153  SG         3.9570   27.2900   13.0200 S.3   308  CYS308     -0.0800
    154  N          0.9770   25.0460   11.5340 N.am  309  ARG309     -0.1979
    155  CA         0.3920   25.1050   10.1710 C.3   309  ARG309      0.1597
    156  C         -1.0600   25.5380   10.1870 C.2   309  ARG309      0.2287
    157  O         -1.5540   26.1420    9.2160 O.2   309  ARG309     -0.2864
    158  CB         0.5390   23.7310    9.4460 C.3   309  ARG309      0.0334
    159  CG         1.9680   23.4660    9.0360 C.3   309  ARG309      0.0492
    160  CD         2.0480   22.2240    8.1430 C.3   309  ARG309      0.2205
    161  NE         1.6260   21.0020    8.8440 N.pl3 309  ARG309     -0.0865
    162  CZ         2.4530   20.3320    9.6480 C.cat 309  ARG309      0.5346
    163  NH1        3.6590   20.8120    9.8590 N.pl3 309  ARG309      0.1354
    164  NH2        2.0480   19.2350   10.2600 N.pl3 309  ARG309      0.1354
    165  N          5.4840   23.3730   22.0430 N.3   320  TRP320     -0.1241
    166  CA         6.9040   23.7530   22.0990 C.3   320  TRP320      0.1605
    167  C          7.3630   23.8880   23.5210 C.2   320  TRP320      0.2264
    168  O          8.4990   23.4490   23.8180 O.2   320  TRP320     -0.2867
    169  CB         7.1680   25.0440   21.3400 C.3   320  TRP320      0.0550
    170  CG         7.1080   24.9160   19.8640 C.ar  320  TRP320      0.0003
    171  CD1        7.6890   23.9540   19.1100 C.ar  320  TRP320      0.0946
    172  CD2        6.4600   25.8120   18.9410 C.ar  320  TRP320      0.0152
    173  NE1        7.4680   24.1940   17.7960 N.ar  320  TRP320     -0.2442
    174  CE2        6.6990   25.3280   17.6570 C.ar  320  TRP320      0.0810
    175  CE3        5.6520   26.9700   19.1010 C.ar  320  TRP320      0.0012
    176  CZ2        6.1990   25.9700   16.5120 C.ar  320  TRP320      0.0191
    177  CZ3        5.1940   27.6280   17.9590 C.ar  320  TRP320      0.0001
    178  CH2        5.4360   27.1000   16.6920 C.ar  320  TRP320      0.0015
    179  N         17.0130   22.5950   15.6330 N.3   342  GLU342     -0.1245
    180  CA        15.5650   22.6350   15.7260 C.3   342  GLU342      0.1567
    181  C         15.0830   23.6870   16.7110 C.2   342  GLU342      0.2260
    182  O         14.2030   24.4770   16.4120 O.2   342  GLU342     -0.2867
    183  CB        14.9860   21.2890   16.1620 C.3   342  GLU342      0.0388
    184  CG        15.3270   20.0790   15.3140 C.3   342  GLU342      0.1160
    185  CD        14.7390   20.0590   13.9280 C.2   342  GLU342      0.3649
    186  OE1       14.8400   18.9270   13.3580 O.co2 342  GLU342     -0.2457
    187  OE2       14.2290   21.1010   13.3660 O.co2 342  GLU342     -0.2457
    188  N         15.7320   27.2470   15.2890 N.3   345  GLU345     -0.1231
    189  CA        14.7570   27.6220   14.2550 C.3   345  GLU345      0.1699
    190  C         13.3790   27.9290   14.8740 C.2   345  GLU345      0.2592
    191  O         12.7020   28.8490   14.4460 O.2   345  GLU345     -0.2718
    192  CB        14.6500   26.5440   13.1680 C.3   345  GLU345      0.0402
    193  CG        13.6180   26.8760   12.0750 C.3   345  GLU345      0.1161
    194  CD        13.3280   25.7670   11.0650 C.2   345  GLU345      0.3649
    195  OE1       14.1320   24.8360   10.9350 O.co2 345  GLU345     -0.2457
    196  OE2       12.2540   25.8160   10.4230 O.co2 345  GLU345     -0.2457
    197  N         12.9510   27.1570   15.8750 N.am  346  VAL346     -0.1980
    198  CA        11.6730   27.4480   16.5030 C.3   346  VAL346      0.1595
    199  C         11.6460   28.7600   17.2440 C.2   346  VAL346      0.2287
    200  O         10.7760   29.6040   17.0490 O.2   346  VAL346     -0.2864
    201  CB        11.2310   26.3060   17.4320 C.3   346  VAL346      0.0276
    202  CG1       10.0360   26.6830   18.2640 C.3   346  VAL346      0.0022
    203  CG2       10.9390   25.0520   16.6180 C.3   346  VAL346      0.0022
    204  N         10.3960   30.4500   13.6450 N.3   350  VAL350     -0.1245
    205  CA         8.9900   29.9870   13.5880 C.3   350  VAL350      0.1561
    206  C          8.1120   30.7610   14.5670 C.2   350  VAL350      0.2260
    207  O          7.0510   31.2450   14.1860 O.2   350  VAL350     -0.2867
    208  CB         8.8740   28.4780   13.8300 C.3   350  VAL350      0.0252
    209  CG1        7.4370   27.9760   13.7110 C.3   350  VAL350      0.0019
    210  CG2        9.7320   27.7100   12.8280 C.3   350  VAL350      0.0019
@<TRIPOS>BOND
     1    73    72    2
     2     1     2    1
     3    72    71    1
     4   107   106    2
     5    70    71    1
     6   102   101    2
     7   106   105    1
     8    71    74    1
     9     2     3    1
    10     2     5    1
    11     9    10    2
    12     9     8    1
    13    62    61    2
    14   103   101   am
    15     3     7   am
    16     3     4    2
    17   160   161    1
    18   160   159    1
    19   101   100    1
    20     7     8    1
    21    61    60    1
    22     5     6    1
    23    12    11    1
    24   108   105    1
    25   108   109    1
    26    99    98    2
    27    68    66   ar
    28    68    69   ar
    29   105   104    1
    30     8    11    1
    31   161   162    2
    32    74    75    1
    33    66    64   ar
    34   159   158    1
    35    69    67   ar
    36   157   156    2
    37   111   109   ar
    38   158   155    1
    39    98    97    1
    40   109   110   ar
    41   100    97    1
    42   162   163    1
    43   162   164    1
    44    60    59    1
    45    60    63    1
    46    97    96    1
    47    64    63    1
    48    64    65   ar
    49   155   156    1
    50   155   154    1
    51    67    65   ar
    52   196   194   ar
    53   195   194   ar
    54   194   193    1
    55   143   142    1
    56   154   150   am
    57   140   142   ar
    58   140   138   ar
    59   151   150    2
    60   193   192    1
    61   150   149    1
    62    87    86    1
    63   147   146    2
    64   142   141   ar
    65   210   208    1
    66   138   137   ar
    67    58    55    1
    68   153   152    1
    69    91    90    2
    70   146   145    1
    71    42    41   ar
    72   192   189    1
    73    85    86   ar
    74    85    83   ar
    75    86    84   ar
    76   186   185   ar
    77   187   185   ar
    78   205   204    1
    79   205   208    1
    80   205   206    1
    81    20    18    1
    82   145   144    1
    83   209   208    1
    84   141   139   ar
    85   149   152    1
    86   149   148    1
    87    90    89    1
    88   185   184    1
    89    39    38    2
    90    83    81   ar
    91    57    56    2
    92   207   206    2
    93   137   139   ar
    94   137   136    1
    95    84    82   ar
    96    19    18    1
    97   189   190    1
    98   189   188    1
    99    41    43   ar
   100    41    40    1
   101    55    54    1
   102    55    56    1
   103    50    52   ar
   104    50    49   ar
   105    54    46   am
   106    52    53   ar
   107   191   190    2
   108   123   122    1
   109   135   134    2
   110    38    37    1
   111    38    44   am
   112    18    17    1
   113    92    89    1
   114    92    93    1
   115    45    46    1
   116    45    44    1
   117    45    48    1
   118   190   197   am
   119    46    47    2
   120   120   122   ar
   121   120   118   ar
   122    37    40    1
   123    37    36    1
   124   122   121   ar
   125    81    82   ar
   126    81    80    1
   127    89    88    1
   128    30    29    2
   129   136   133    1
   130   133   134    1
   131   133   132    1
   132   184   183    1
   133    94    93    1
   134    94    95    1
   135   118   117   ar
   136    49    48    1
   137    49    51   ar
   138   179   180    1
   139   121   119   ar
   140    53    51   ar
   141   180   183    1
   142   180   181    1
   143   197   198    1
   144   127   126    2
   145    17    14    1
   146    29    36   am
   147    29    28    1
   148    80    77    1
   149   119   117   ar
   150   117   116    1
   151   132   126   am
   152    79    78    2
   153    24    23    2
   154   182   181    2
   155   198   199    1
   156   198   201    1
   157   176   178   ar
   158   176   174   ar
   159   126   125    1
   160   203   201    1
   161   178   177   ar
   162    14    13    1
   163    14    15    1
   164   116   113    1
   165   128   125    1
   166   128   129    1
   167   200   199    2
   168    28    27    1
   169    28    31    1
   170    78    77    1
   171    77    76    1
   172   201   202    1
   173   115   114    2
   174    23    27   am
   175    23    22    1
   176   125   124    1
   177   174   173   ar
   178   174   172   ar
   179    21    15   am
   180    21    22    1
   181   130   129    1
   182   130   131    1
   183   173   171   ar
   184    15    16    2
   185   177   175   ar
   186    31    32    1
   187   113   114    1
   188   113   112    1
   189    26    25    1
   190    22    25    1
   191    32    33    1
   192   172   175   ar
   193   172   170   ar
   194   171   170   ar
   195    35    33   ar
   196    33    34   ar
   197   170   169    1
   198   169   166    1
   199   165   166    1
   200   166   167    1
   201   167   168    2
