@<TRIPOS>MOLECULE
tmp/5db3A03.pdb
 96 92 0 0 0
SMALL
GASTEIGER

@<TRIPOS>ATOM
      1  N          0.0600   -0.0160   11.7730 N.3   247  TYR247     -0.1227
      2  CA        -0.7280    0.4880   12.9060 C.3   247  TYR247      0.1736
      3  C         -1.7700   -0.5440   13.3500 C.2   247  TYR247      0.2595
      4  O         -1.8490   -0.8960   14.5440 O.2   247  TYR247     -0.2718
      5  CB        -1.4560    1.7480   12.4750 C.3   247  TYR247      0.0548
      6  CG        -2.3990    2.3690   13.4840 C.ar  247  TYR247     -0.0200
      7  CD1       -3.6880    1.9120   13.6640 C.ar  247  TYR247     -0.0009
      8  CD2       -2.0180    3.4940   14.1710 C.ar  247  TYR247     -0.0009
      9  CE1       -4.5690    2.5140   14.5580 C.ar  247  TYR247      0.0417
     10  CE2       -2.8810    4.1130   15.0640 C.ar  247  TYR247      0.0417
     11  CZ        -4.1480    3.6320   15.2560 C.ar  247  TYR247      0.1957
     12  OH        -5.0060    4.2730   16.1400 O.3   247  TYR247     -0.2866
     13  N         -2.4690   -1.1110   12.3600 N.am  248  ASP248     -0.1960
     14  CA        -3.5460   -2.0790   12.6250 C.3   248  ASP248      0.1840
     15  C         -3.0160   -3.3490   13.2490 C.2   248  ASP248      0.2622
     16  O         -3.7190   -4.0010   14.0540 O.2   248  ASP248     -0.2715
     17  CB        -4.3300   -2.4210   11.3390 C.3   248  ASP248      0.1450
     18  CG        -5.2110   -1.3030   10.8780 C.2   248  ASP248      0.3671
     19  OD1       -5.5160   -0.3930   11.6930 O.co2 248  ASP248     -0.2456
     20  OD2       -5.6540   -1.3410    9.7020 O.co2 248  ASP248     -0.2456
     21  N         -1.7990   -3.7170   12.9010 N.am  249  LEU249     -0.1963
     22  CA        -1.1990   -4.9780   13.3700 C.3   249  LEU249      0.1728
     23  C         -0.5100   -4.7810   14.7190 C.2   249  LEU249      0.2616
     24  O          0.0090   -5.7510   15.3220 O.2   249  LEU249     -0.2715
     25  CB        -0.1950   -5.5110   12.3600 C.3   249  LEU249      0.0311
     26  CG        -0.7710   -6.0950   11.0920 C.3   249  LEU249      0.0022
     27  CD1        0.3500   -6.3370   10.0900 C.3   249  LEU249      0.0001
     28  CD2       -1.5470   -7.3710   11.4400 C.3   249  LEU249      0.0001
     29  N         -0.4620   -3.5410   15.2150 N.am  250  GLY250     -0.1955
     30  CA         0.1390   -3.2730   16.5130 C.3   250  GLY250      0.1869
     31  C          1.5910   -2.8450   16.5290 C.2   250  GLY250      0.2309
     32  O          2.1700   -2.6410   17.6040 O.2   250  GLY250     -0.2863
     33  N          3.2220   -0.1240   15.4810 N.3   252  LEU252     -0.1231
     34  CA         3.6130    1.2890   15.7430 C.3   252  LEU252      0.1693
     35  C          3.4590    1.6450   17.2170 C.2   252  LEU252      0.2591
     36  O          3.7330    2.7840   17.6160 O.2   252  LEU252     -0.2718
     37  CB         2.8080    2.2870   14.8890 C.3   252  LEU252      0.0284
     38  CG         2.8390    2.0690   13.3620 C.3   252  LEU252      0.0019
     39  CD1        2.1590    3.2490   12.6780 C.3   252  LEU252      0.0001
     40  CD2        4.2550    1.8830   12.8670 C.3   252  LEU252      0.0001
     41  N          3.0370    0.6670   18.0220 N.am  253  GLU253     -0.1979
     42  CA         2.7800    0.8990   19.4570 C.3   253  GLU253      0.1602
     43  C          3.9750    1.5500   20.1400 C.2   253  GLU253      0.2287
     44  O          3.7590    2.4140   21.0040 O.2   253  GLU253     -0.2864
     45  CB         2.4720   -0.4400   20.1270 C.3   253  GLU253      0.0415
     46  CG         2.3020   -0.3930   21.6130 C.3   253  GLU253      0.1163
     47  CD         0.9980    0.2120   22.0790 C.2   253  GLU253      0.3649
     48  OE1        0.0590    0.4920   21.2370 O.co2 253  GLU253     -0.2457
     49  OE2        0.9100    0.3670   23.3390 O.co2 253  GLU253     -0.2457
     50  N          4.0980    7.3190   14.2300 N.3   259  LEU259     -0.1245
     51  CA         2.7650    7.8620   14.4790 C.3   259  LEU259      0.1561
     52  C          2.6670    9.3430   14.0310 C.2   259  LEU259      0.2260
     53  O          1.6760    9.7770   13.4220 O.2   259  LEU259     -0.2867
     54  CB         2.3640    7.6630   15.9450 C.3   259  LEU259      0.0270
     55  CG         2.1060    6.1870   16.3180 C.3   259  LEU259      0.0019
     56  CD1        2.1510    5.9580   17.8100 C.3   259  LEU259      0.0001
     57  CD2        0.8170    5.6380   15.7320 C.3   259  LEU259      0.0001
     58  N         -1.3110   10.0110   20.3280 N.3   283  LYS283     -0.1245
     59  CA        -0.9100    8.6150   20.5290 C.3   283  LYS283      0.1561
     60  C          0.6170    8.4660   20.4970 C.2   283  LYS283      0.2260
     61  O          1.2020    7.7200   21.2910 O.2   283  LYS283     -0.2867
     62  CB        -1.5810    7.7080   19.4780 C.3   283  LYS283      0.0271
     63  CG        -3.0510    7.4610   19.7000 C.3   283  LYS283      0.0035
     64  CD        -3.6060    6.5780   18.5880 C.3   283  LYS283      0.0206
     65  CE        -5.0870    6.2160   18.7420 C.3   283  LYS283      0.1093
     66  NZ        -5.3350    5.3960   19.9600 N.3   283  LYS283     -0.1314
     67  N          1.7740    9.5570   23.8000 N.3   286  ALA286     -0.1231
     68  CA         1.4340    8.5220   24.7990 C.3   286  ALA286      0.1694
     69  C          2.4240    7.3820   24.6990 C.2   286  ALA286      0.2592
     70  O          2.8710    6.8640   25.7130 O.2   286  ALA286     -0.2718
     71  CB         0.0150    8.0310   24.6240 C.3   286  ALA286      0.0304
     72  N          2.8120    7.0590   23.4710 N.am  287  SER287     -0.1952
     73  CA         3.8080    6.0030   23.2180 C.3   287  SER287      0.1924
     74  C          5.1340    6.3610   23.8780 C.2   287  SER287      0.2314
     75  O          5.7470    5.5820   24.6010 O.2   287  SER287     -0.2863
     76  CB         3.9700    5.7450   21.7310 C.3   287  SER287      0.2116
     77  OG         5.0300    4.8050   21.5070 O.3   287  SER287     -0.2180
     78  N          4.8040    6.1490   27.6980 N.3   290  THR290     -0.1203
     79  CA         4.6470    4.7290   28.1290 C.3   290  THR290      0.1994
     80  C          5.9190    3.9090   28.0460 C.2   290  THR290      0.2617
     81  O          6.3030    3.1890   29.0010 O.2   290  THR290     -0.2717
     82  CB         3.5020    4.1150   27.3310 C.3   290  THR290      0.1784
     83  OG1        2.2870    4.8090   27.6740 O.3   290  THR290     -0.2211
     84  CG2        3.3080    2.6380   27.6180 C.3   290  THR290      0.0376
     85  N          6.5830    3.9640   26.8900 N.am  291  TYR291     -0.1975
     86  CA         7.7140    3.1150   26.6200 C.3   291  TYR291      0.1639
     87  C          9.1020    3.7420   26.7970 C.2   291  TYR291      0.2290
     88  O         10.0920    3.0090   26.9140 O.2   291  TYR291     -0.2864
     89  CB         7.5850    2.5530   25.2020 C.3   291  TYR291      0.0560
     90  CG         6.3620    1.7250   25.0580 C.ar  291  TYR291     -0.0198
     91  CD1        6.3130    0.4900   25.6280 C.ar  291  TYR291     -0.0009
     92  CD2        5.2410    2.1860   24.3800 C.ar  291  TYR291     -0.0009
     93  CE1        5.1720   -0.2670   25.5290 C.ar  291  TYR291      0.0417
     94  CE2        4.0970    1.4450   24.2740 C.ar  291  TYR291      0.0417
     95  CZ         4.0800    0.1990   24.8430 C.ar  291  TYR291      0.1957
     96  OH         2.9270   -0.5630   24.7360 O.3   291  TYR291     -0.2866
@<TRIPOS>BOND
     1    20    18   ar
     2    27    26    1
     3    18    17    1
     4    18    19   ar
     5    26    28    1
     6    26    25    1
     7    17    14    1
     8     1     2    1
     9    13    14    1
    10    13     3   am
    11    25    22    1
    12     5     2    1
    13     5     6    1
    14    14    15    1
    15    39    38    1
    16    40    38    1
    17    21    15   am
    18    21    22    1
    19     2     3    1
    20    15    16    2
    21     3     4    2
    22    38    37    1
    23    22    23    1
    24    53    52    2
    25     6     7   ar
    26     6     8   ar
    27     7     9   ar
    28    52    51    1
    29     8    10   ar
    30    50    51    1
    31    51    54    1
    32     9    11   ar
    33    23    29   am
    34    23    24    2
    35    37    34    1
    36    10    11   ar
    37    29    30    1
    38    11    12    1
    39    33    34    1
    40    57    55    1
    41    34    35    1
    42    54    55    1
    43    55    56    1
    44    30    31    1
    45    31    32    2
    46    35    36    2
    47    35    41   am
    48    41    42    1
    49    64    65    1
    50    64    63    1
    51    65    66    1
    52    42    45    1
    53    42    43    1
    54    62    63    1
    55    62    59    1
    56    45    46    1
    57    43    44    2
    58    58    59    1
    59    60    59    1
    60    60    61    2
    61    48    47   ar
    62    77    76    1
    63    46    47    1
    64    76    73    1
    65    47    49   ar
    66    73    72    1
    67    73    74    1
    68    72    69   am
    69    67    68    1
    70    74    75    2
    71    94    92   ar
    72    94    95   ar
    73    92    90   ar
    74    71    68    1
    75    69    68    1
    76    69    70    2
    77    96    95    1
    78    95    93   ar
    79    90    89    1
    80    90    91   ar
    81    89    86    1
    82    93    91   ar
    83    86    87    1
    84    86    85    1
    85    87    88    2
    86    85    80   am
    87    82    84    1
    88    82    83    1
    89    82    79    1
    90    78    79    1
    91    80    79    1
    92    80    81    2
