@<TRIPOS>MOLECULE
tmp/5db4A00.pdb
 204 197 0 0 0
SMALL
GASTEIGER

@<TRIPOS>ATOM
      1  N         18.6750   45.0420  -17.1240 N.3     7  MET7       -0.1230
      2  CA        18.8100   43.8520  -17.9770 C.3     7  MET7        0.1702
      3  C         17.8210   42.7570  -17.6120 C.2     7  MET7        0.2593
      4  O         17.9300   42.1130  -16.5500 O.2     7  MET7       -0.2718
      5  CB        20.2240   43.2890  -17.9550 C.3     7  MET7        0.0401
      6  CG        20.4350   42.2300  -19.0210 C.3     7  MET7        0.0596
      7  SD        22.1410   41.7450  -19.0320 S.3     7  MET7       -0.1393
      8  CE        22.3360   41.0880  -20.6870 C.3     7  MET7        0.0692
      9  N         16.8640   42.5680  -18.5210 N.am    8  GLY8       -0.1942
     10  CA        15.8630   41.5330  -18.4260 C.3     8  GLY8        0.2014
     11  C         16.4540   40.2330  -18.9050 C.2     8  GLY8        0.2639
     12  O         17.4250   40.2110  -19.6590 O.2     8  GLY8       -0.2714
     13  N         15.8570   39.1400  -18.4720 N.am    9  GLY9       -0.1939
     14  CA        16.3530   37.8220  -18.8490 C.3     9  GLY9        0.2014
     15  C         15.5880   36.7550  -18.1150 C.2     9  GLY9        0.2640
     16  O         14.9910   37.0110  -17.0540 O.2     9  GLY9       -0.2714
     17  N         15.5830   35.5640  -18.6920 N.am   10  THR10      -0.1936
     18  CA        14.9620   34.4080  -18.0580 C.3    10  THR10       0.2028
     19  C         15.8840   33.9630  -16.9090 C.2    10  THR10       0.2642
     20  O         15.3930   33.5830  -15.8380 O.2    10  THR10      -0.2714
     21  CB        14.6540   33.2880  -19.0950 C.3    10  THR10       0.1808
     22  OG1       13.6050   33.7260  -19.9530 O.3    10  THR10      -0.2208
     23  CG2       14.2040   32.0010  -18.4390 C.3    10  THR10       0.0379
     24  N         17.1980   34.0550  -17.1320 N.am   11  PHE11      -0.1973
     25  CA        18.1940   33.7710  -16.1140 C.3    11  PHE11       0.1639
     26  C         17.9980   32.3640  -15.5280 C.2    11  PHE11       0.2290
     27  O         17.7990   32.1850  -14.3050 O.2    11  PHE11      -0.2864
     28  CB        18.2130   34.8710  -15.0320 C.3    11  PHE11       0.0560
     29  CG        18.5170   36.2650  -15.5640 C.ar   11  PHE11      -0.0200
     30  CD1       19.5770   36.4960  -16.4590 C.ar   11  PHE11      -0.0042
     31  CD2       17.7720   37.3380  -15.1660 C.ar   11  PHE11      -0.0042
     32  CE1       19.8500   37.7660  -16.9400 C.ar   11  PHE11      -0.0003
     33  CE2       18.0450   38.6260  -15.6450 C.ar   11  PHE11      -0.0003
     34  CZ        19.0840   38.8370  -16.5270 C.ar   11  PHE11      -0.0000
     35  N         24.4800   33.6630  -16.4400 N.3    15  HIS15      -0.1241
     36  CA        25.7940   33.1750  -16.8380 C.3    15  HIS15       0.1621
     37  C         26.7430   34.3480  -17.0980 C.2    15  HIS15       0.2264
     38  O         26.3520   35.5280  -16.9920 O.2    15  HIS15      -0.2867
     39  CB        25.6780   32.1910  -18.0200 C.3    15  HIS15       0.0745
     40  CG        25.0360   32.7470  -19.2610 C.ar   15  HIS15       0.0817
     41  ND1       25.6390   33.7050  -20.0460 N.ar   15  HIS15      -0.2268
     42  CD2       23.8940   32.3950  -19.9130 C.ar   15  HIS15       0.1154
     43  CE1       24.8730   33.9640  -21.0950 C.ar   15  HIS15       0.1986
     44  NE2       23.8060   33.1850  -21.0350 N.ar   15  HIS15      -0.2212
     45  N         28.2700   35.4140  -19.7650 N.3    17  GLY17      -0.1210
     46  CA        27.7980   36.2060  -20.9000 C.3    17  GLY17       0.1956
     47  C         26.8620   37.3400  -20.5380 C.2    17  GLY17       0.2611
     48  O         27.0540   38.4730  -21.0010 O.2    17  GLY17      -0.2717
     49  N         25.8450   37.0470  -19.7270 N.am   18  HIS18      -0.1975
     50  CA        24.9220   38.0750  -19.2690 C.3    18  HIS18       0.1656
     51  C         25.6870   39.1170  -18.4450 C.2    18  HIS18       0.2291
     52  O         25.5350   40.3210  -18.6550 O.2    18  HIS18      -0.2864
     53  CB        23.8080   37.4940  -18.3910 C.3    18  HIS18       0.0771
     54  CG        22.9300   36.4900  -19.0720 C.ar   18  HIS18       0.0820
     55  ND1       22.2760   35.4980  -18.3820 N.ar   18  HIS18      -0.2267
     56  CD2       22.5880   36.3280  -20.3700 C.ar   18  HIS18       0.1154
     57  CE1       21.5630   34.7710  -19.2190 C.ar   18  HIS18       0.1986
     58  NE2       21.7380   35.2510  -20.4340 N.ar   18  HIS18      -0.2212
     59  N         29.1040   39.7040  -18.0770 N.3    20  VAL20      -0.1231
     60  CA        30.1680   40.4810  -18.7730 C.3    20  VAL20       0.1692
     61  C         29.5690   41.6010  -19.6550 C.2    20  VAL20       0.2591
     62  O         30.1800   42.6470  -19.8360 O.2    20  VAL20      -0.2718
     63  CB        31.1240   39.5800  -19.5970 C.3    20  VAL20       0.0266
     64  CG1       30.5240   39.2260  -20.9610 C.3    20  VAL20       0.0020
     65  CG2       32.4880   40.2240  -19.7620 C.3    20  VAL20       0.0020
     66  N         28.3610   41.3740  -20.1640 N.am   21  ALA21      -0.1980
     67  CA        27.6870   42.3260  -21.0410 C.3    21  ALA21       0.1597
     68  C         27.2360   43.5340  -20.2420 C.2    21  ALA21       0.2287
     69  O         27.4760   44.6880  -20.6330 O.2    21  ALA21      -0.2864
     70  CB        26.4940   41.6630  -21.7240 C.3    21  ALA21       0.0319
     71  N         10.0960   22.9530  -23.3210 N.3    42  ARG42      -0.1245
     72  CA        10.9170   23.8580  -22.5180 C.3    42  ARG42       0.1563
     73  C         10.3240   24.0780  -21.1230 C.2    42  ARG42       0.2260
     74  O          9.3510   24.8150  -20.9610 O.2    42  ARG42      -0.2867
     75  CB        11.0810   25.2010  -23.2510 C.3    42  ARG42       0.0307
     76  CG        11.8100   26.3180  -22.4940 C.3    42  ARG42       0.0489
     77  CD        13.2910   26.0420  -22.2580 C.3    42  ARG42       0.2205
     78  NE        13.9860   27.2790  -21.8720 N.pl3  42  ARG42      -0.0865
     79  CZ        14.3150   27.6640  -20.6290 C.cat  42  ARG42       0.5346
     80  NH1       14.0620   26.9140  -19.5540 N.pl3  42  ARG42       0.1354
     81  NH2       14.9340   28.8300  -20.4600 N.pl3  42  ARG42       0.1354
     82  N         19.3710   47.1280  -21.4060 N.3    98  ILE98      -0.1231
     83  CA        20.4790   46.3730  -21.9990 C.3    98  ILE98       0.1692
     84  C         19.9370   45.0760  -22.6200 C.2    98  ILE98       0.2593
     85  O         19.1460   44.3520  -21.9950 O.2    98  ILE98      -0.2718
     86  CB        21.5480   46.0400  -20.9340 C.3    98  ILE98       0.0266
     87  CG1       22.0050   47.3330  -20.2190 C.3    98  ILE98       0.0019
     88  CG2       22.7110   45.2600  -21.5520 C.3    98  ILE98       0.0020
     89  CD1       22.9950   47.1140  -19.1010 C.3    98  ILE98       0.0001
     90  N         20.3480   44.7880  -23.8530 N.am   99  THR99      -0.1939
     91  CA        19.7310   43.6970  -24.6180 C.3    99  THR99       0.2028
     92  C         20.6810   43.1770  -25.6700 C.2    99  THR99       0.2642
     93  O         21.2760   43.9610  -26.3790 O.2    99  THR99      -0.2714
     94  CB        18.3860   44.1400  -25.2380 C.3    99  THR99       0.1808
     95  OG1       17.6310   42.9910  -25.6390 O.3    99  THR99      -0.2208
     96  CG2       18.5830   45.0790  -26.4350 C.3    99  THR99       0.0379
     97  N         20.8450   41.8540  -25.7340 N.am  100  GLY100     -0.1954
     98  CA        21.7280   41.2140  -26.7200 C.3   100  GLY100      0.1869
     99  C         21.0740   41.1380  -28.0940 C.2   100  GLY100      0.2309
    100  O         19.8710   41.4180  -28.2500 O.2   100  GLY100     -0.2863
    101  N         20.0310   38.9840  -30.3470 N.3   102  ASP102     -0.1225
    102  CA        18.8310   38.1930  -30.6140 C.3   102  ASP102      0.1805
    103  C         17.5670   38.8190  -30.0460 C.2   102  ASP102      0.2597
    104  O         16.5420   38.8730  -30.7250 O.2   102  ASP102     -0.2718
    105  CB        18.9760   36.7310  -30.1410 C.3   102  ASP102      0.1424
    106  CG        19.2170   36.5950  -28.6350 C.2   102  ASP102      0.3668
    107  OD1       20.2510   37.0850  -28.1670 O.co2 102  ASP102     -0.2456
    108  OD2       18.4010   35.9660  -27.9350 O.co2 102  ASP102     -0.2456
    109  N         17.6330   39.3050  -28.8100 N.am  103  ALA103     -0.1979
    110  CA        16.4410   39.8600  -28.1530 C.3   103  ALA103      0.1597
    111  C         16.1010   41.2550  -28.6870 C.2   103  ALA103      0.2287
    112  O         14.9290   41.6400  -28.7100 O.2   103  ALA103     -0.2864
    113  CB        16.6310   39.8810  -26.6410 C.3   103  ALA103      0.0319
    114  N         23.7370   44.9480  -27.3050 N.3   125  VAL125     -0.1231
    115  CA        25.1030   44.4070  -27.1380 C.3   125  VAL125      0.1692
    116  C         25.3040   43.1960  -28.0360 C.2   125  VAL125      0.2593
    117  O         24.3390   42.5240  -28.4080 O.2   125  VAL125     -0.2718
    118  CB        25.4580   44.0250  -25.6680 C.3   125  VAL125      0.0266
    119  CG1       25.3660   45.2390  -24.7450 C.3   125  VAL125      0.0020
    120  CG2       24.5940   42.8830  -25.1420 C.3   125  VAL125      0.0020
    121  N         26.5640   42.9190  -28.3610 N.am  126  SER126     -0.1938
    122  CA        26.8900   41.7970  -29.2220 C.3   126  SER126      0.2055
    123  C         26.7320   40.4730  -28.4650 C.2   126  SER126      0.2643
    124  O         26.8690   40.4220  -27.2380 O.2   126  SER126     -0.2714
    125  CB        28.2970   41.9270  -29.7970 C.3   126  SER126      0.2130
    126  OG        29.2690   42.0640  -28.7780 O.3   126  SER126     -0.2179
    127  N         26.3910   39.4290  -29.2200 N.am  127  ARG127     -0.1963
    128  CA        26.3700   38.0610  -28.7500 C.3   127  ARG127      0.1714
    129  C         26.9070   37.1810  -29.8780 C.2   127  ARG127      0.2458
    130  O         26.4490   37.3420  -31.0190 O.2   127  ARG127     -0.2730
    131  CB        24.9520   37.6580  -28.4240 C.3   127  ARG127      0.0347
    132  CG        24.8290   36.2810  -27.8090 C.3   127  ARG127      0.0492
    133  CD        23.3840   35.9970  -27.4470 C.3   127  ARG127      0.2205
    134  NE        23.2530   34.7150  -26.7700 N.pl3 127  ARG127     -0.0865
    135  CZ        22.1190   34.2270  -26.2740 C.cat 127  ARG127      0.5346
    136  NH1       20.9740   34.9150  -26.3530 N.pl3 127  ARG127      0.1354
    137  NH2       22.1440   33.0400  -25.6680 N.pl3 127  ARG127      0.1354
    138  N         27.8750   36.2660  -29.5770 N.am  128  PRO128     -0.2727
    139  CA        28.3980   35.3590  -30.6130 C.3   128  PRO128      0.1402
    140  C         27.3060   34.5420  -31.2770 C.2   128  PRO128      0.2269
    141  O         26.4100   34.0570  -30.5890 O.2   128  PRO128     -0.2865
    142  CB        29.3600   34.4510  -29.8380 C.3   128  PRO128      0.0296
    143  CG        29.8330   35.3030  -28.7160 C.3   128  PRO128      0.0237
    144  CD        28.6230   36.1020  -28.3100 C.3   128  PRO128      0.0939
    145  N         30.6390   43.8840  -26.6430 N.3   140  VAL140     -0.1231
    146  CA        31.0580   43.3750  -25.3230 C.3   140  VAL140      0.1678
    147  C         31.9010   42.1340  -25.5720 C.2   140  VAL140      0.2434
    148  O         31.8640   41.6040  -26.6700 O.2   140  VAL140     -0.2733
    149  CB        29.8550   43.1340  -24.3640 C.3   140  VAL140      0.0265
    150  CG1       28.9370   44.3570  -24.3700 C.3   140  VAL140      0.0020
    151  CG2       29.0760   41.8790  -24.7210 C.3   140  VAL140      0.0020
    152  N         32.7040   41.6990  -24.5770 N.am  141  PRO141     -0.2729
    153  CA        33.5520   40.5000  -24.7230 C.3   141  PRO141      0.1401
    154  C         32.7920   39.2900  -25.2630 C.2   141  PRO141      0.2269
    155  O         31.6530   39.0630  -24.8520 O.2   141  PRO141     -0.2865
    156  CB        34.0170   40.2450  -23.2950 C.3   141  PRO141      0.0296
    157  CG        34.1380   41.6120  -22.7420 C.3   141  PRO141      0.0237
    158  CD        32.9640   42.3660  -23.2870 C.3   141  PRO141      0.0939
    159  N         31.7010   35.8770  -25.4550 N.3   143  LEU143     -0.1245
    160  CA        31.6400   34.6720  -24.6140 C.3   143  LEU143      0.1561
    161  C         30.4780   33.8540  -25.1240 C.2   143  LEU143      0.2260
    162  O         29.3010   34.2050  -24.8920 O.2   143  LEU143     -0.2867
    163  CB        31.4640   35.0230  -23.1290 C.3   143  LEU143      0.0270
    164  CG        32.5780   35.8140  -22.4030 C.3   143  LEU143      0.0019
    165  CD1       32.3910   35.6740  -20.8990 C.3   143  LEU143      0.0001
    166  CD2       34.0020   35.4220  -22.7870 C.3   143  LEU143      0.0001
    167  N         28.1980   31.5920  -24.8200 N.3   145  ILE145     -0.1231
    168  CA        27.5350   30.9410  -23.6910 C.3   145  ILE145      0.1692
    169  C         26.0460   31.1980  -23.7750 C.2   145  ILE145      0.2593
    170  O         25.6210   32.3450  -23.9820 O.2   145  ILE145     -0.2718
    171  CB        27.9890   31.5220  -22.3270 C.3   145  ILE145      0.0266
    172  CG1       29.5180   31.4780  -22.1980 C.3   145  ILE145      0.0019
    173  CG2       27.3040   30.7690  -21.1890 C.3   145  ILE145      0.0020
    174  CD1       30.0550   31.9850  -20.8730 C.3   145  ILE145      0.0001
    175  N         25.2640   30.1380  -23.5920 N.am  146  SER146     -0.1938
    176  CA        23.8060   30.2290  -23.5250 C.3   146  SER146      0.2055
    177  C         23.3660   29.4430  -22.3300 C.2   146  SER146      0.2644
    178  O         24.0600   28.5190  -21.9190 O.2   146  SER146     -0.2714
    179  CB        23.1700   29.6050  -24.7670 C.3   146  SER146      0.2130
    180  OG        23.4550   28.2020  -24.8280 O.3   146  SER146     -0.2179
    181  N         22.2090   29.7940  -21.7840 N.am  147  SER147     -0.1935
    182  CA        21.6480   29.0690  -20.6560 C.3   147  SER147      0.2055
    183  C         21.2960   27.6450  -21.0950 C.2   147  SER147      0.2643
    184  O         21.5120   26.6710  -20.3440 O.2   147  SER147     -0.2714
    185  CB        20.4070   29.7700  -20.1350 C.3   147  SER147      0.2130
    186  OG        20.6950   31.0870  -19.7260 O.3   147  SER147     -0.2179
    187  N         20.7750   27.5510  -22.3220 N.am  148  THR148     -0.1950
    188  CA        20.4870   26.2800  -22.9980 C.3   148  THR148      0.1897
    189  C         21.6420   25.3100  -22.9050 C.2   148  THR148      0.2313
    190  O         21.4700   24.1960  -22.4220 O.2   148  THR148     -0.2863
    191  CB        20.0860   26.5030  -24.4830 C.3   148  THR148      0.1794
    192  OG1       18.8440   27.2210  -24.5210 O.3   148  THR148     -0.2208
    193  CG2       19.9170   25.1480  -25.2360 C.3   148  THR148      0.0378
    194  N         22.0190   24.3270  -19.2200 N.3   151  ARG151     -0.1245
    195  CA        20.9730   23.3540  -18.8660 C.3   151  ARG151      0.1563
    196  C         21.2420   21.9280  -19.4140 C.2   151  ARG151      0.2260
    197  O         21.0180   20.9360  -18.7060 O.2   151  ARG151     -0.2867
    198  CB        19.6000   23.8250  -19.3520 C.3   151  ARG151      0.0307
    199  CG        19.0060   24.9760  -18.5730 C.3   151  ARG151      0.0489
    200  CD        17.5590   25.2040  -18.9650 C.3   151  ARG151      0.2205
    201  NE        17.4190   25.4980  -20.3990 N.pl3 151  ARG151     -0.0865
    202  CZ        17.5400   26.7050  -20.9750 C.cat 151  ARG151      0.5346
    203  NH1       17.8060   27.8080  -20.2740 N.pl3 151  ARG151      0.1354
    204  NH2       17.3980   26.8150  -22.2900 N.pl3 151  ARG151      0.1354
@<TRIPOS>BOND
     1   140   139    1
     2   140   141    2
     3   130   129    2
     4   104   103    2
     5   102   101    1
     6   102   105    1
     7   102   103    1
     8   139   142    1
     9   139   138    1
    10   105   106    1
    11   103   109   am
    12   129   138   am
    13   129   128    1
    14   142   143    1
    15   125   122    1
    16   125   126    1
    17   138   144    1
    18   122   123    1
    19   122   121    1
    20   127   128    1
    21   127   123   am
    22   109   110    1
    23   128   131    1
    24   143   144    1
    25   112   111    2
    26   111   110    1
    27   106   107   ar
    28   106   108   ar
    29   123   124    2
    30   131   132    1
    31   117   116    2
    32   121   116   am
    33   100    99    2
    34   110   113    1
    35    99    98    1
    36   116   115    1
    37   132   133    1
    38   133   134    1
    39   114   115    1
    40   115   118    1
    41   134   135    2
    42    98    97    1
    43   148   147    2
    44   145   146    1
    45    96    94    1
    46    93    92    2
    47   136   135    1
    48   135   137    1
    49    97    92   am
    50    92    91    1
    51   118   120    1
    52   118   119    1
    53    95    94    1
    54   147   146    1
    55   147   152   am
    56   159   160    1
    57   146   149    1
    58   154   155    2
    59   154   153    1
    60    94    91    1
    61   193   191    1
    62   161   162    2
    63   161   160    1
    64   180   179    1
    65   167   168    1
    66   179   176    1
    67   153   152    1
    68   153   156    1
    69   151   149    1
    70    91    90    1
    71   160   163    1
    72   152   158    1
    73   192   191    1
    74   191   188    1
    75   150   149    1
    76   170   169    2
    77    90    84   am
    78   169   168    1
    79   169   175   am
    80   168   171    1
    81   175   176    1
    82   176   177    1
    83    71    72    1
    84   156   157    1
    85   158   157    1
    86    75    72    1
    87    75    76    1
    88   163   164    1
    89   188   189    1
    90   188   187    1
    91   189   190    2
    92   166   164    1
    93    84    83    1
    94    84    85    2
    95    72    73    1
    96    76    77    1
    97   164   165    1
    98   177   178    2
    99   177   181   am
   100   171   172    1
   101   171   173    1
   102   187   183   am
   103   204   202    1
   104    77    78    1
   105   172   174    1
   106    83    82    1
   107    83    86    1
   108    78    79    2
   109   181   182    1
   110    70    67    1
   111    88    86    1
   112    73    74    2
   113    43    44   ar
   114    43    41   ar
   115   183   182    1
   116   183   184    2
   117    67    68    1
   118    67    66    1
   119    44    42   ar
   120    48    47    2
   121   202   201    2
   122   202   203    1
   123    64    63    1
   124    86    87    1
   125    46    47    1
   126    46    45    1
   127     8     7    1
   128   182   185    1
   129    69    68    2
   130    79    81    1
   131    79    80    1
   132    47    49   am
   133    58    56   ar
   134    58    57   ar
   135   201   200    1
   136    56    54   ar
   137    87    89    1
   138    66    61   am
   139   185   186    1
   140    41    40   ar
   141    22    21    1
   142    42    40   ar
   143    62    61    2
   144    65    63    1
   145    49    50    1
   146    12    11    2
   147    61    60    1
   148    63    60    1
   149   196   195    1
   150   196   197    2
   151   198   195    1
   152   198   199    1
   153    50    51    1
   154    50    53    1
   155    40    39    1
   156   194   195    1
   157    57    55   ar
   158    21    23    1
   159    21    18    1
   160    54    53    1
   161    54    55   ar
   162     7     6    1
   163     6     5    1
   164   200   199    1
   165    11    13   am
   166    11    10    1
   167    14    13    1
   168    14    15    1
   169    60    59    1
   170    17    15   am
   171    17    18    1
   172    52    51    2
   173     9    10    1
   174     9     3   am
   175    15    16    2
   176    18    19    1
   177    39    36    1
   178     2     5    1
   179     2     3    1
   180     2     1    1
   181     3     4    2
   182    24    19   am
   183    24    25    1
   184    37    38    2
   185    37    36    1
   186    32    34   ar
   187    32    30   ar
   188    19    20    2
   189    36    35    1
   190    34    33   ar
   191    30    29   ar
   192    25    26    1
   193    25    28    1
   194    33    31   ar
   195    29    31   ar
   196    29    28    1
   197    26    27    2
