@<TRIPOS>MOLECULE
tmp/5db4B00.pdb
 204 197 0 0 0
SMALL
GASTEIGER

@<TRIPOS>ATOM
      1  N         16.2200   26.2840   11.5710 N.3     7  MET7       -0.1230
      2  CA        16.6920   27.4060   12.3600 C.3     7  MET7        0.1702
      3  C         16.0000   28.6990   11.9630 C.2     7  MET7        0.2593
      4  O         16.2860   29.2980   10.9090 O.2     7  MET7       -0.2718
      5  CB        18.2030   27.5640   12.2430 C.3     7  MET7        0.0401
      6  CG        18.7610   28.6220   13.1870 C.3     7  MET7        0.0596
      7  SD        20.5100   28.3690   13.4290 S.3     7  MET7       -0.1393
      8  CE        20.8500   29.6610   14.6100 C.3     7  MET7        0.0692
      9  N         15.0900   29.1150   12.8350 N.am    8  GLY8       -0.1942
     10  CA        14.4010   30.3750   12.7100 C.3     8  GLY8        0.2014
     11  C         15.2220   31.5070   13.2600 C.2     8  GLY8        0.2639
     12  O         16.0670   31.3220   14.1190 O.2     8  GLY8       -0.2714
     13  N         14.9640   32.6930   12.7490 N.am    9  GLY9       -0.1939
     14  CA        15.5980   33.8890   13.2540 C.3     9  GLY9        0.2014
     15  C         15.1520   35.1000   12.4790 C.2     9  GLY9        0.2640
     16  O         14.5900   34.9810   11.4000 O.2     9  GLY9       -0.2714
     17  N         15.3850   36.2630   13.0570 N.am   10  THR10      -0.1936
     18  CA        15.2170   37.5170   12.3570 C.3    10  THR10       0.2028
     19  C         16.2710   37.6330   11.2320 C.2    10  THR10       0.2642
     20  O         15.9300   38.0240   10.1120 O.2    10  THR10      -0.2714
     21  CB        15.3070   38.6850   13.3530 C.3    10  THR10       0.1808
     22  OG1       14.4970   38.3760   14.4910 O.3    10  THR10      -0.2208
     23  CG2       14.8420   40.0100   12.7310 C.3    10  THR10       0.0379
     24  N         17.5210   37.2420   11.5320 N.am   11  PHE11      -0.1973
     25  CA        18.6510   37.2650   10.5800 C.3    11  PHE11       0.1639
     26  C         18.8630   38.6560    9.9970 C.2    11  PHE11       0.2290
     27  O         18.9370   38.8580    8.7680 O.2    11  PHE11      -0.2864
     28  CB        18.4760   36.2160    9.4670 C.3    11  PHE11       0.0560
     29  CG        18.3660   34.7930    9.9620 C.ar   11  PHE11      -0.0200
     30  CD1       19.1950   34.3060   10.9680 C.ar   11  PHE11      -0.0042
     31  CD2       17.4450   33.9190    9.3860 C.ar   11  PHE11      -0.0042
     32  CE1       19.0880   32.9940   11.3990 C.ar   11  PHE11      -0.0003
     33  CE2       17.3430   32.5970    9.8060 C.ar   11  PHE11      -0.0003
     34  CZ        18.1660   32.1370   10.8190 C.ar   11  PHE11      -0.0000
     35  N         24.6980   35.7900   10.7070 N.3    15  HIS15      -0.1241
     36  CA        26.0730   35.9700   11.1790 C.3    15  HIS15       0.1621
     37  C         26.7110   34.6110   11.4130 C.2    15  HIS15       0.2264
     38  O         26.0340   33.5700   11.2970 O.2    15  HIS15      -0.2867
     39  CB        26.1790   36.9630   12.3850 C.3    15  HIS15       0.0745
     40  CG        25.5120   36.5260   13.6590 C.ar   15  HIS15       0.0817
     41  ND1       25.7690   35.3200   14.2690 N.ar   15  HIS15      -0.2268
     42  CD2       24.6660   37.1830   14.4860 C.ar   15  HIS15       0.1154
     43  CE1       25.0570   35.2160   15.3750 C.ar   15  HIS15       0.1986
     44  NE2       24.3790   36.3370   15.5310 N.ar   15  HIS15      -0.2212
     45  N         27.8890   33.0950   14.1220 N.3    17  GLY17      -0.1210
     46  CA        27.2540   32.3730   15.2440 C.3    17  GLY17       0.1956
     47  C         26.0340   31.5290   14.8680 C.2    17  GLY17       0.2611
     48  O         25.8810   30.4210   15.3800 O.2    17  GLY17      -0.2717
     49  N         25.1680   32.0370   13.9790 N.am   18  HIS18      -0.1975
     50  CA        23.9990   31.2710   13.5130 C.3    18  HIS18       0.1656
     51  C         24.5030   30.0850   12.7300 C.2    18  HIS18       0.2291
     52  O         24.0880   28.9400   12.9460 O.2    18  HIS18      -0.2864
     53  CB        23.0680   32.1000   12.5880 C.3    18  HIS18       0.0771
     54  CG        22.4530   33.3050   13.2380 C.ar   18  HIS18       0.0820
     55  ND1       22.5110   34.5570   12.6840 N.ar   18  HIS18      -0.2267
     56  CD2       21.7700   33.4480   14.3970 C.ar   18  HIS18       0.1154
     57  CE1       21.8880   35.4250   13.4600 C.ar   18  HIS18       0.1986
     58  NE2       21.4290   34.7780   14.5120 N.ar   18  HIS18      -0.2212
     59  N         27.5410   28.6200   12.5610 N.3    20  VAL20      -0.1231
     60  CA        28.4020   27.6480   13.2420 C.3    20  VAL20       0.1692
     61  C         27.5520   26.7410   14.1190 C.2    20  VAL20       0.2591
     62  O         27.7780   25.5320   14.1850 O.2    20  VAL20      -0.2718
     63  CB        29.5500   28.3330   14.0380 C.3    20  VAL20       0.0266
     64  CG1       29.0910   28.8350   15.4160 C.3    20  VAL20       0.0020
     65  CG2       30.7260   27.3880   14.1840 C.3    20  VAL20       0.0020
     66  N         26.5510   27.3360   14.7590 N.am   21  ALA21      -0.1980
     67  CA        25.6060   26.5840   15.5810 C.3    21  ALA21       0.1597
     68  C         24.8580   25.5670   14.7200 C.2    21  ALA21       0.2287
     69  O         24.7670   24.3980   15.0680 O.2    21  ALA21      -0.2864
     70  CB        24.6370   27.5380   16.2660 C.3    21  ALA21       0.0319
     71  N         13.6060   50.4260   17.1400 N.3    42  ARG42      -0.1245
     72  CA        14.0470   49.1800   16.5210 C.3    42  ARG42       0.1563
     73  C         13.1740   48.8400   15.3030 C.2    42  ARG42       0.2260
     74  O         12.1400   48.1720   15.4220 O.2    42  ARG42      -0.2867
     75  CB        14.0490   48.0400   17.5620 C.3    42  ARG42       0.0307
     76  CG        14.3620   46.6310   17.0440 C.3    42  ARG42       0.0489
     77  CD        15.5560   46.5600   16.0880 C.3    42  ARG42       0.2205
     78  NE        15.7220   45.2050   15.5530 N.pl3  42  ARG42      -0.0865
     79  CZ        16.3310   44.8850   14.4070 C.cat  42  ARG42       0.5346
     80  NH1       16.8630   45.8140   13.6130 N.pl3  42  ARG42       0.1354
     81  NH2       16.4020   43.6060   14.0430 N.pl3  42  ARG42       0.1354
     82  N         16.1670   24.2520   16.0320 N.3    98  ILE98      -0.1231
     83  CA        17.3890   24.7180   16.6570 C.3    98  ILE98       0.1692
     84  C         17.1550   26.1060   17.2010 C.2    98  ILE98       0.2593
     85  O         16.7340   26.9980   16.4610 O.2    98  ILE98      -0.2718
     86  CB        18.5290   24.7780   15.6110 C.3    98  ILE98       0.0266
     87  CG1       18.7390   23.4010   14.9670 C.3    98  ILE98       0.0019
     88  CG2       19.8190   25.3010   16.2390 C.3    98  ILE98       0.0020
     89  CD1       19.5690   23.4250   13.6930 C.3    98  ILE98       0.0001
     90  N         17.4280   26.3050   18.4840 N.am   99  THR99      -0.1939
     91  CA        17.2910   27.6350   19.0940 C.3    99  THR99       0.2028
     92  C         18.4120   27.8360   20.1180 C.2    99  THR99       0.2642
     93  O         18.8480   26.8850   20.7620 O.2    99  THR99      -0.2714
     94  CB        15.8550   27.8640   19.6670 C.3    99  THR99       0.1808
     95  OG1       15.8270   29.0140   20.5380 O.3    99  THR99      -0.2208
     96  CG2       15.3790   26.6520   20.4190 C.3    99  THR99       0.0379
     97  N         18.9020   29.0670   20.2260 N.am  100  GLY100     -0.1954
     98  CA        20.0120   29.3660   21.1120 C.3   100  GLY100      0.1869
     99  C         19.5760   29.6080   22.5370 C.2   100  GLY100      0.2309
    100  O         18.3890   29.8180   22.8100 O.2   100  GLY100     -0.2863
    101  N         19.6430   31.9220   24.8180 N.3   102  ASP102     -0.1225
    102  CA        18.8580   33.1140   25.1670 C.3   102  ASP102      0.1805
    103  C         17.3560   32.9860   24.8120 C.2   102  ASP102      0.2597
    104  O         16.5090   33.5670   25.4890 O.2   102  ASP102     -0.2718
    105  CB        19.4470   34.3700   24.4860 C.3   102  ASP102      0.1424
    106  CG        19.2180   34.3900   22.9600 C.2   102  ASP102      0.3668
    107  OD1       19.7080   33.4700   22.2630 O.co2 102  ASP102     -0.2456
    108  OD2       18.5430   35.3240   22.4670 O.co2 102  ASP102     -0.2456
    109  N         17.0520   32.2280   23.7570 N.am  103  ALA103     -0.1979
    110  CA        15.7100   32.1270   23.1730 C.3   103  ALA103      0.1597
    111  C         14.9820   30.8190   23.5050 C.2   103  ALA103      0.2287
    112  O         13.7920   30.7020   23.2280 O.2   103  ALA103     -0.2864
    113  CB        15.8010   32.2850   21.6510 C.3   103  ALA103      0.0319
    114  N         21.1180   25.2350   21.6260 N.3   118  VAL118     -0.1231
    115  CA        22.5590   25.4700   21.4060 C.3   118  VAL118      0.1692
    116  C         23.0800   26.5370   22.3670 C.2   118  VAL118      0.2593
    117  O         22.3860   27.5430   22.6480 O.2   118  VAL118     -0.2718
    118  CB        22.9400   25.8760   19.9500 C.3   118  VAL118      0.0266
    119  CG1       22.6260   24.7670   18.9530 C.3   118  VAL118      0.0020
    120  CG2       22.2830   27.1770   19.5110 C.3   118  VAL118      0.0020
    121  N         24.3100   26.3010   22.8500 N.am  119  SER119     -0.1938
    122  CA        25.0020   27.2150   23.7470 C.3   119  SER119      0.2055
    123  C         25.1980   28.5500   23.0790 C.2   119  SER119      0.2643
    124  O         25.3520   28.6140   21.8630 O.2   119  SER119     -0.2714
    125  CB        26.3800   26.6580   24.1470 C.3   119  SER119      0.2130
    126  OG        27.1930   26.3590   23.0200 O.3   119  SER119     -0.2179
    127  N         25.2090   29.6080   23.8740 N.am  120  ARG120     -0.1963
    128  CA        25.5300   30.9220   23.3780 C.3   120  ARG120      0.1714
    129  C         26.2950   31.6580   24.4750 C.2   120  ARG120      0.2458
    130  O         25.8550   31.6180   25.6250 O.2   120  ARG120     -0.2730
    131  CB        24.2490   31.6710   22.9820 C.3   120  ARG120      0.0347
    132  CG        24.5010   32.9950   22.2760 C.3   120  ARG120      0.0492
    133  CD        23.2200   33.6270   21.7730 C.3   120  ARG120      0.2205
    134  NE        23.5110   34.8640   21.0730 N.pl3 120  ARG120     -0.0865
    135  CZ        22.6180   35.6610   20.4960 C.cat 120  ARG120      0.5346
    136  NH1       21.3240   35.3570   20.5030 N.pl3 120  ARG120      0.1354
    137  NH2       23.0390   36.7670   19.8710 N.pl3 120  ARG120      0.1354
    138  N         27.4440   32.3040   24.1360 N.am  121  PRO121     -0.2727
    139  CA        28.2280   33.0390   25.1410 C.3   121  PRO121      0.1402
    140  C         27.4330   34.1390   25.8200 C.2   121  PRO121      0.2269
    141  O         26.6590   34.8260   25.1400 O.2   121  PRO121     -0.2865
    142  CB        29.3740   33.6630   24.3240 C.3   121  PRO121      0.0296
    143  CG        29.5150   32.7910   23.1300 C.3   121  PRO121      0.0237
    144  CD        28.1360   32.2820   22.8260 C.3   121  PRO121      0.0939
    145  N         28.1590   24.3660   21.2310 N.3   135  VAL135     -0.1231
    146  CA        28.6410   24.7010   19.8720 C.3   135  VAL135      0.1678
    147  C         29.7470   25.7090   20.0040 C.2   135  VAL135      0.2434
    148  O         29.8640   26.3220   21.0690 O.2   135  VAL135     -0.2733
    149  CB        27.5270   25.2650   18.9520 C.3   135  VAL135      0.0265
    150  CG1       26.3620   24.2800   18.8410 C.3   135  VAL135      0.0020
    151  CG2       27.0360   26.6180   19.4240 C.3   135  VAL135      0.0020
    152  N         30.5500   25.9160   18.9310 N.am  136  PRO136     -0.2729
    153  CA        31.6610   26.8730   19.0470 C.3   136  PRO136      0.1401
    154  C         31.2350   28.2360   19.5890 C.2   136  PRO136      0.2269
    155  O         30.2320   28.7940   19.1250 O.2   136  PRO136     -0.2865
    156  CB        32.1800   26.9580   17.6180 C.3   136  PRO136      0.0296
    157  CG        31.9900   25.5690   17.1360 C.3   136  PRO136      0.0237
    158  CD        30.6270   25.1890   17.6510 C.3   136  PRO136      0.0939
    159  N         31.1040   31.6860   19.6950 N.3   138  LEU138     -0.1245
    160  CA        31.3050   32.9000   18.9090 C.3   138  LEU138      0.1561
    161  C         30.3610   33.9390   19.4550 C.2   138  LEU138      0.2260
    162  O         29.1400   33.8570   19.2440 O.2   138  LEU138     -0.2867
    163  CB        31.0440   32.6450   17.4230 C.3   138  LEU138      0.0270
    164  CG        31.7970   31.4730   16.7790 C.3   138  LEU138      0.0019
    165  CD1       31.5500   31.4760   15.2730 C.3   138  LEU138      0.0001
    166  CD2       33.2950   31.5330   17.0630 C.3   138  LEU138      0.0001
    167  N         28.7920   36.6480   19.0280 N.3   140  ILE140     -0.1231
    168  CA        28.3370   37.4730   17.8920 C.3   140  ILE140      0.1692
    169  C         26.8400   37.6680   18.0400 C.2   140  ILE140      0.2593
    170  O         26.1210   36.7060   18.3000 O.2   140  ILE140     -0.2718
    171  CB        28.6250   36.7800   16.5340 C.3   140  ILE140      0.0266
    172  CG1       30.1160   36.4000   16.4450 C.3   140  ILE140      0.0019
    173  CG2       28.2280   37.6950   15.3730 C.3   140  ILE140      0.0020
    174  CD1       30.5420   35.6750   15.1750 C.3   140  ILE140      0.0001
    175  N         26.3910   38.9110   17.8950 N.am  141  SER141     -0.1938
    176  CA        24.9740   39.2250   17.8720 C.3   141  SER141      0.2055
    177  C         24.6890   40.1900   16.7350 C.2   141  SER141      0.2644
    178  O         25.5180   41.0630   16.4180 O.2   141  SER141     -0.2714
    179  CB        24.5050   39.8440   19.2050 C.3   141  SER141      0.2130
    180  OG        24.7750   41.2310   19.2300 O.3   141  SER141     -0.2179
    181  N         23.5010   40.0520   16.1480 N.am  142  SER142     -0.1935
    182  CA        23.0690   40.9510   15.0860 C.3   142  SER142      0.2055
    183  C         23.0050   42.3840   15.5680 C.2   142  SER142      0.2643
    184  O         23.3750   43.3080   14.8230 O.2   142  SER142     -0.2714
    185  CB        21.7220   40.5230   14.4920 C.3   142  SER142      0.2130
    186  OG        21.6990   39.1410   14.1280 O.3   142  SER142     -0.2179
    187  N         22.5750   42.5830   16.8220 N.am  143  THR143     -0.1950
    188  CA        22.5420   43.9350   17.4190 C.3   143  THR143      0.1897
    189  C         23.9150   44.5950   17.3610 C.2   143  THR143      0.2313
    190  O         24.0410   45.7240   16.8990 O.2   143  THR143     -0.2863
    191  CB        22.0380   43.8930   18.8800 C.3   143  THR143      0.1794
    192  OG1       20.7540   43.2650   18.9130 O.3   143  THR143     -0.2208
    193  CG2       21.9440   45.2930   19.4610 C.3   143  THR143      0.0378
    194  N         24.7430   45.4320   13.7550 N.3   146  ARG146     -0.1245
    195  CA        23.9920   46.6390   13.3620 C.3   146  ARG146      0.1563
    196  C         24.6260   47.9150   13.9080 C.2   146  ARG146      0.2260
    197  O         24.8040   48.9030   13.1710 O.2   146  ARG146     -0.2867
    198  CB        22.5160   46.5500   13.7890 C.3   146  ARG146      0.0307
    199  CG        21.7220   45.4970   13.0140 C.3   146  ARG146      0.0489
    200  CD        20.2280   45.6380   13.2060 C.3   146  ARG146      0.2205
    201  NE        19.8320   45.5290   14.6140 N.pl3 146  ARG146     -0.0865
    202  CZ        19.6020   44.4010   15.2830 C.cat 146  ARG146      0.5346
    203  NH1       19.7480   43.2080   14.7210 N.pl3 146  ARG146      0.1354
    204  NH2       19.2260   44.4600   16.5540 N.pl3 146  ARG146      0.1354
@<TRIPOS>BOND
     1    27    26    2
     2    31    33   ar
     3    31    29   ar
     4    28    29    1
     5    28    25    1
     6    33    34   ar
     7    29    30   ar
     8    26    25    1
     9    20    19    2
    10    25    24    1
    11    35    36    1
    12    34    32   ar
    13     4     3    2
    14    30    32   ar
    15    36    37    1
    16    36    39    1
    17    19    24   am
    18    19    18    1
    19    38    37    2
    20    16    15    2
    21     1     2    1
    22     3     2    1
    23     3     9   am
    24     5     2    1
    25     5     6    1
    26    18    17    1
    27    18    21    1
    28    39    40    1
    29    15    17   am
    30    15    14    1
    31    59    60    1
    32    53    54    1
    33    53    50    1
    34    55    54   ar
    35    55    57   ar
    36    10     9    1
    37    10    11    1
    38    51    52    2
    39    51    50    1
    40    23    21    1
    41    13    14    1
    42    13    11   am
    43   199   200    1
    44   199   198    1
    45   197   196    2
    46     6     7    1
    47   200   201    1
    48    54    56   ar
    49    60    63    1
    50    60    61    1
    51    11    12    2
    52    21    22    1
    53   195   194    1
    54   195   198    1
    55   195   196    1
    56     7     8    1
    57    57    58   ar
    58    50    49    1
    59    80    79    1
    60    40    41   ar
    61    40    42   ar
    62    89    87    1
    63    49    47   am
    64    63    65    1
    65    63    64    1
    66    81    79    1
    67    61    62    2
    68    61    66   am
    69    45    46    1
    70   186   185    1
    71    41    43   ar
    72    56    58   ar
    73    79    78    2
    74    42    44   ar
    75   185   182    1
    76   201   202    2
    77    68    69    2
    78    68    67    1
    79   203   202    1
    80    66    67    1
    81   184   183    2
    82    47    46    1
    83    47    48    2
    84    87    86    1
    85   182   183    1
    86   182   181    1
    87   174   172    1
    88   165   164    1
    89   202   204    1
    90    73    74    2
    91    73    72    1
    92   173   171    1
    93    43    44   ar
    94    78    77    1
    95   183   187   am
    96    67    70    1
    97    86    88    1
    98    86    83    1
    99    82    83    1
   100    77    76    1
   101   181   177   am
   102   178   177    2
   103   172   171    1
   104    85    84    2
   105    72    71    1
   106    72    75    1
   107   171   168    1
   108    83    84    1
   109   177   176    1
   110   164   166    1
   111   164   163    1
   112   187   188    1
   113   190   189    2
   114    76    75    1
   115   157   156    1
   116   157   158    1
   117    84    90   am
   118   189   188    1
   119   188   191    1
   120   163   160    1
   121   156   153    1
   122   158   152    1
   123   176   175    1
   124   176   179    1
   125   168   169    1
   126   168   167    1
   127   175   169   am
   128   169   170    2
   129    90    91    1
   130   150   149    1
   131   191   192    1
   132   191   193    1
   133   160   161    1
   134   160   159    1
   135   152   153    1
   136   152   147   am
   137   149   151    1
   138   149   146    1
   139   119   118    1
   140   153   154    1
   141    91    94    1
   142    91    92    1
   143   155   154    2
   144   179   180    1
   145   162   161    2
   146   120   118    1
   147    94    96    1
   148    94    95    1
   149   137   135    1
   150   146   147    1
   151   146   145    1
   152   118   115    1
   153   147   148    2
   154    92    97   am
   155    92    93    2
   156    97    98    1
   157   135   136    1
   158   135   134    2
   159   134   133    1
   160    98    99    1
   161   115   114    1
   162   115   116    1
   163   113   110    1
   164   133   132    1
   165   124   123    2
   166   107   106   ar
   167   132   131    1
   168   116   117    2
   169   116   121   am
   170   108   106   ar
   171    99   100    2
   172   144   143    1
   173   144   138    1
   174   121   122    1
   175   106   105    1
   176   131   128    1
   177   126   125    1
   178   123   122    1
   179   123   127   am
   180   143   142    1
   181   110   111    1
   182   110   109    1
   183   112   111    2
   184   128   127    1
   185   128   129    1
   186   122   125    1
   187   109   103   am
   188   138   129   am
   189   138   139    1
   190   142   139    1
   191   129   130    2
   192   105   102    1
   193   103   102    1
   194   103   104    2
   195   101   102    1
   196   141   140    2
   197   139   140    1
