@<TRIPOS>MOLECULE
tmp/5db5B02.pdb
 88 83 0 0 0
SMALL
GASTEIGER

@<TRIPOS>ATOM
      1  N        -32.0710   20.5120   66.7100 N.3    29  ALA29      -0.1231
      2  CA       -30.9360   20.2420   65.8260 C.3    29  ALA29       0.1694
      3  C        -29.7370   19.6690   66.5850 C.2    29  ALA29       0.2591
      4  O        -28.9330   18.9370   66.0120 O.2    29  ALA29      -0.2718
      5  CB       -30.5300   21.5030   65.0930 C.3    29  ALA29       0.0304
      6  N        -29.5880   20.0390   67.8530 N.am   30  ALA30      -0.1980
      7  CA       -28.5500   19.4450   68.6890 C.3    30  ALA30       0.1597
      8  C        -28.9360   18.0120   69.0510 C.2    30  ALA30       0.2287
      9  O        -28.1700   17.0750   68.8370 O.2    30  ALA30      -0.2864
     10  CB       -28.3270   20.2700   69.9410 C.3    30  ALA30       0.0319
     11  N        -19.3800   19.6730   59.5230 N.3   122  HIS122     -0.1241
     12  CA       -19.3010   19.3890   60.9460 C.3   122  HIS122      0.1621
     13  C        -17.9440   18.7640   61.2310 C.2   122  HIS122      0.2264
     14  O        -17.3750   18.1030   60.3640 O.2   122  HIS122     -0.2867
     15  CB       -20.4390   18.4500   61.3470 C.3   122  HIS122      0.0745
     16  CG       -20.6350   18.3100   62.8250 C.ar  122  HIS122      0.0817
     17  ND1      -19.8640   17.4750   63.6030 N.ar  122  HIS122     -0.2268
     18  CD2      -21.5400   18.8730   63.6580 C.ar  122  HIS122      0.1154
     19  CE1      -20.2750   17.5410   64.8570 C.ar  122  HIS122      0.1986
     20  NE2      -21.2920   18.3830   64.9180 N.ar  122  HIS122     -0.2212
     21  N        -25.6440   21.7330   59.6690 N.3   174  ASN174     -0.1240
     22  CA       -26.1690   21.7740   61.0290 C.3   174  ASN174      0.1653
     23  C        -26.3270   23.1990   61.5350 C.2   174  ASN174      0.2266
     24  O        -27.0360   23.4440   62.5080 O.2   174  ASN174     -0.2867
     25  CB       -25.2700   20.9780   61.9810 C.3   174  ASN174      0.1155
     26  CG       -23.9260   21.6440   62.2180 C.2   174  ASN174      0.2627
     27  OD1      -23.2210   22.0140   61.2760 O.2   174  ASN174     -0.2716
     28  ND2      -23.5720   21.8120   63.4880 N.am  174  ASN174     -0.0877
     29  N        -28.4650   15.7970   59.6480 N.3   202  GLN202     -0.1245
     30  CA       -29.4970   16.8390   59.6750 C.3   202  GLN202      0.1566
     31  C        -30.5850   16.6920   58.6100 C.2   202  GLN202      0.2260
     32  O        -31.4410   17.5600   58.4780 O.2   202  GLN202     -0.2867
     33  CB       -28.8410   18.2110   59.5510 C.3   202  GLN202      0.0367
     34  CG       -28.0200   18.5660   60.7720 C.3   202  GLN202      0.0905
     35  CD       -28.8660   18.6780   62.0320 C.2   202  GLN202      0.2608
     36  OE1      -30.0850   18.8390   61.9640 O.2   202  GLN202     -0.2717
     37  NE2      -28.2210   18.5810   63.1890 N.am  202  GLN202     -0.0878
     38  N        -30.5990    9.9060   67.5970 N.3   224  HIS224     -0.1226
     39  CA       -31.1110   10.7950   68.6280 C.3   224  HIS224      0.1752
     40  C        -31.6500   12.1000   68.0490 C.2   224  HIS224      0.2595
     41  O        -32.3930   12.8180   68.7210 O.2   224  HIS224     -0.2718
     42  CB       -30.0340   11.0710   69.6820 C.3   224  HIS224      0.0759
     43  CG       -28.8630   11.8620   69.1860 C.ar  224  HIS224      0.0818
     44  ND1      -28.7440   13.2240   69.3900 N.ar  224  HIS224     -0.2268
     45  CD2      -27.7400   11.4840   68.5330 C.ar  224  HIS224      0.1154
     46  CE1      -27.6070   13.6470   68.8730 C.ar  224  HIS224      0.1986
     47  NE2      -26.9760   12.6140   68.3450 N.ar  224  HIS224     -0.2212
     48  N        -31.2890   12.3990   66.8060 N.am  225  LYS225     -0.1980
     49  CA       -31.8680   13.5380   66.1000 C.3   225  LYS225      0.1596
     50  C        -33.1140   13.1370   65.3160 C.2   225  LYS225      0.2287
     51  O        -33.8710   13.9860   64.8490 O.2   225  LYS225     -0.2864
     52  CB       -30.8340   14.1460   65.1640 C.3   225  LYS225      0.0298
     53  CG       -29.6210   14.6570   65.8910 C.3   225  LYS225      0.0038
     54  CD       -28.6150   15.2210   64.9320 C.3   225  LYS225      0.0206
     55  CE       -27.3810   15.6830   65.6650 C.3   225  LYS225      0.1093
     56  NZ       -26.2940   15.9950   64.7050 N.3   225  LYS225     -0.1314
     57  N        -29.2520   27.0600   70.8160 N.3   358  ARG358     -0.1245
     58  CA       -27.8390   26.7700   71.0510 C.3   358  ARG358      0.1563
     59  C        -26.9110   27.8690   70.5420 C.2   358  ARG358      0.2260
     60  O        -27.2370   28.6050   69.6080 O.2   358  ARG358     -0.2867
     61  CB       -27.4440   25.4410   70.4110 C.3   358  ARG358      0.0307
     62  CG       -26.0370   25.0120   70.7990 C.3   358  ARG358      0.0489
     63  CD       -25.8550   23.5280   70.6970 C.3   358  ARG358      0.2205
     64  NE       -26.3630   22.8370   71.8820 N.pl3 358  ARG358     -0.0865
     65  CZ       -25.6190   22.1250   72.7270 C.cat 358  ARG358      0.5346
     66  NH1      -24.3070   21.9790   72.5490 N.pl3 358  ARG358      0.1354
     67  NH2      -26.1990   21.5430   73.7630 N.pl3 358  ARG358      0.1354
     68  N        -20.7930   25.4300   67.1580 N.3   362  HIS362     -0.1241
     69  CA       -21.6530   24.3670   66.6370 C.3   362  HIS362      0.1621
     70  C        -20.8690   23.2450   65.9500 C.2   362  HIS362      0.2264
     71  O        -21.4020   22.5320   65.1010 O.2   362  HIS362     -0.2867
     72  CB       -22.6680   24.9640   65.6630 C.3   362  HIS362      0.0745
     73  CG       -23.5270   26.0240   66.2750 C.ar  362  HIS362      0.0817
     74  ND1      -24.5500   25.7390   67.1530 N.ar  362  HIS362     -0.2268
     75  CD2      -23.5010   27.3730   66.1520 C.ar  362  HIS362      0.1154
     76  CE1      -25.1250   26.8660   67.5360 C.ar  362  HIS362      0.1986
     77  NE2      -24.5060   27.8710   66.9440 N.ar  362  HIS362     -0.2212
     78  N        -28.3760   29.6030   67.2940 N.3   377  ARG377     -0.1245
     79  CA       -29.0970   28.7440   66.3690 C.3   377  ARG377      0.1563
     80  C        -30.4240   28.3110   66.9670 C.2   377  ARG377      0.2260
     81  O        -30.4650   27.7740   68.0740 O.2   377  ARG377     -0.2867
     82  CB       -28.2660   27.5180   66.0020 C.3   377  ARG377      0.0307
     83  CG       -28.8770   26.6820   64.8820 C.3   377  ARG377      0.0489
     84  CD       -28.1540   25.3570   64.7270 C.3   377  ARG377      0.2205
     85  NE       -28.2960   24.5410   65.9280 N.pl3 377  ARG377     -0.0865
     86  CZ       -27.6110   23.4310   66.1680 C.cat 377  ARG377      0.5346
     87  NH1      -26.7160   22.9980   65.2900 N.pl3 377  ARG377      0.1354
     88  NH2      -27.8160   22.7630   67.2950 N.pl3 377  ARG377      0.1354
@<TRIPOS>BOND
     1    32    31    2
     2    31    30    1
     3    11    12    1
     4    33    30    1
     5    33    34    1
     6    29    30    1
     7    21    22    1
     8    14    13    2
     9    34    35    1
    10    12    13    1
    11    12    15    1
    12    22    23    1
    13    22    25    1
    14    27    26    2
    15    15    16    1
    16    23    24    2
    17    36    35    2
    18    25    26    1
    19    35    37   am
    20    26    28   am
    21    16    17   ar
    22    16    18   ar
    23    17    19   ar
    24    18    20   ar
    25    56    55    1
    26    84    83    1
    27    84    85    1
    28    51    50    2
    29    19    20   ar
    30    83    82    1
    31    54    55    1
    32    54    53    1
    33     5     2    1
    34    71    70    2
    35    52    53    1
    36    52    49    1
    37    87    86    1
    38    50    49    1
    39    72    73    1
    40    72    69    1
    41     2     3    1
    42     2     1    1
    43    85    86    2
    44    70    69    1
    45    82    79    1
    46     4     3    2
    47    49    48    1
    48    75    73   ar
    49    75    77   ar
    50    86    88    1
    51    73    74   ar
    52    79    80    1
    53    79    78    1
    54     3     6   am
    55    69    68    1
    56    48    40   am
    57    77    76   ar
    58    80    81    2
    59    74    76   ar
    60    38    39    1
    61     6     7    1
    62    40    39    1
    63    40    41    2
    64    47    45   ar
    65    47    46   ar
    66    45    43   ar
    67    39    42    1
    68     7     8    1
    69     7    10    1
    70     9     8    2
    71    46    44   ar
    72    43    44   ar
    73    43    42    1
    74    60    59    2
    75    61    62    1
    76    61    58    1
    77    59    58    1
    78    63    62    1
    79    63    64    1
    80    57    58    1
    81    64    65    2
    82    66    65    1
    83    65    67    1
