@<TRIPOS>MOLECULE
tmp/5dbhA00.pdb
 189 181 0 0 0
SMALL
GASTEIGER

@<TRIPOS>ATOM
      1  N         -9.4200   -1.2710   -5.4860 N.3    40  VAL40      -0.1231
      2  CA       -10.3480   -1.2810   -6.6080 C.3    40  VAL40       0.1692
      3  C        -11.2820   -0.0660   -6.5820 C.2    40  VAL40       0.2591
      4  O        -11.7720    0.3850   -7.6240 O.2    40  VAL40      -0.2718
      5  CB       -11.1880   -2.5900   -6.5910 C.3    40  VAL40       0.0266
      6  CG1      -12.0020   -2.6860   -5.2850 C.3    40  VAL40       0.0020
      7  CG2      -12.0830   -2.7020   -7.8220 C.3    40  VAL40       0.0020
      8  N        -11.5160    0.4750   -5.3920 N.am   41  LYS41      -0.1980
      9  CA       -12.4960    1.5410   -5.2420 C.3    41  LYS41       0.1596
     10  C        -11.9950    2.8810   -5.7650 C.2    41  LYS41       0.2287
     11  O        -12.7820    3.8010   -5.9290 O.2    41  LYS41      -0.2864
     12  CB       -12.9060    1.6690   -3.7790 C.3    41  LYS41       0.0298
     13  CG       -13.2000    0.3200   -3.1510 C.3    41  LYS41       0.0038
     14  CD       -14.6680    0.0670   -3.0230 C.3    41  LYS41       0.0206
     15  CE       -15.3660   -0.2250   -4.3190 C.3    41  LYS41       0.1093
     16  NZ       -16.8690   -0.2450   -4.1140 N.3    41  LYS41      -0.1314
     17  N        -18.9150    4.1530    4.0330 N.3    68  THR68      -0.1203
     18  CA       -17.9220    3.2270    3.5090 C.3    68  THR68       0.1994
     19  C        -17.4360    2.2390    4.5630 C.2    68  THR68       0.2618
     20  O        -17.5550    2.4860    5.7660 O.2    68  THR68      -0.2717
     21  CB       -16.7070    3.9930    2.9370 C.3    68  THR68       0.1784
     22  OG1      -15.7650    3.0690    2.3770 O.3    68  THR68      -0.2211
     23  CG2      -16.0350    4.8030    4.0350 C.3    68  THR68       0.0376
     24  N        -16.8980    1.1130    4.0970 N.am   69  SER69      -0.1951
     25  CA       -16.1730    0.1920    4.9600 C.3    69  SER69       0.1924
     26  C        -14.6840    0.5160    4.9020 C.2    69  SER69       0.2314
     27  O        -13.8600   -0.1820    5.4930 O.2    69  SER69      -0.2863
     28  CB       -16.4180   -1.2690    4.5540 C.3    69  SER69       0.2116
     29  OG       -16.0130   -1.4970    3.2150 O.3    69  SER69      -0.2180
     30  N        -12.3980    1.4720    1.9360 N.3    71  ASN71      -0.1225
     31  CA       -11.6700    1.6670    0.6940 C.3    71  ASN71       0.1785
     32  C        -12.3090    2.7160   -0.1940 C.2    71  ASN71       0.2597
     33  O        -11.5960    3.5370   -0.7810 O.2    71  ASN71      -0.2718
     34  CB       -11.5270    0.3480   -0.0540 C.3    71  ASN71       0.1169
     35  CG       -10.4530   -0.5270    0.5420 C.2    71  ASN71       0.2627
     36  OD1       -9.4220   -0.0300    1.0110 O.2    71  ASN71      -0.2716
     37  ND2      -10.6940   -1.8290    0.5610 N.am   71  ASN71      -0.0877
     38  N        -13.6380    2.7110   -0.2810 N.am   72  THR72      -0.1953
     39  CA       -14.3320    3.7410   -1.0630 C.3    72  THR72       0.1897
     40  C        -14.0960    5.1190   -0.4560 C.2    72  THR72       0.2313
     41  O        -13.9320    6.1030   -1.1730 O.2    72  THR72      -0.2863
     42  CB       -15.8480    3.4980   -1.1530 C.3    72  THR72       0.1794
     43  OG1      -16.0860    2.2320   -1.7660 O.3    72  THR72      -0.2208
     44  CG2      -16.5170    4.5970   -2.0210 C.3    72  THR72       0.0378
     45  N         -7.4250    2.1730    7.8440 N.3    99  ARG99      -0.1245
     46  CA        -8.4450    2.9390    7.1360 C.3    99  ARG99       0.1563
     47  C         -8.6940    4.2640    7.8490 C.2    99  ARG99       0.2260
     48  O         -8.7050    5.3270    7.2220 O.2    99  ARG99      -0.2867
     49  CB        -9.7460    2.1370    7.0210 C.3    99  ARG99       0.0307
     50  CG        -9.7140    1.0160    5.9810 C.3    99  ARG99       0.0489
     51  CD       -10.8100   -0.0020    6.3090 C.3    99  ARG99       0.2205
     52  NE       -11.1630   -0.8910    5.2030 N.pl3  99  ARG99      -0.0865
     53  CZ       -10.4340   -1.9380    4.8190 C.cat  99  ARG99       0.5346
     54  NH1      -10.8500   -2.7040    3.8160 N.pl3  99  ARG99       0.1354
     55  NH2       -9.2860   -2.2190    5.4370 N.pl3  99  ARG99       0.1354
     56  N        -22.7380   -1.6710    8.0520 N.3   119  MET119     -0.1245
     57  CA       -22.8510   -0.6910    6.9730 C.3   119  MET119      0.1570
     58  C        -24.1910    0.0330    7.0060 C.2   119  MET119      0.2261
     59  O        -24.2660    1.2180    6.6630 O.2   119  MET119     -0.2867
     60  CB       -22.6460   -1.3500    5.6100 C.3   119  MET119      0.0387
     61  CG       -21.1770   -1.5980    5.2690 C.3   119  MET119      0.0595
     62  SD       -20.1230   -0.1350    5.4760 S.3   119  MET119     -0.1393
     63  CE       -20.9480    1.0340    4.3910 C.3   119  MET119      0.0692
     64  N        -22.5480    5.1730   -2.8450 N.3   142  GLN142     -0.1231
     65  CA       -21.9300    4.1120   -3.6420 C.3   142  GLN142      0.1698
     66  C        -22.7690    2.8300   -3.7470 C.2   142  GLN142      0.2592
     67  O        -22.6390    2.0780   -4.7180 O.2   142  GLN142     -0.2718
     68  CB       -20.5460    3.7740   -3.0710 C.3   142  GLN142      0.0381
     69  CG       -20.5560    3.3760   -1.5980 C.3   142  GLN142      0.0905
     70  CD       -19.3290    2.5690   -1.2110 C.2   142  GLN142      0.2608
     71  OE1      -18.6510    2.0100   -2.0750 O.2   142  GLN142     -0.2717
     72  NE2      -19.0360    2.5040    0.0850 N.am  142  GLN142     -0.0878
     73  N        -23.6390    2.5720   -2.7760 N.am  143  PHE143     -0.1976
     74  CA       -24.4040    1.3360   -2.8200 C.3   143  PHE143      0.1639
     75  C        -25.5110    1.3430   -3.8920 C.2   143  PHE143      0.2290
     76  O        -25.9660    0.2850   -4.3070 O.2   143  PHE143     -0.2864
     77  CB       -24.9710    1.0200   -1.4360 C.3   143  PHE143      0.0560
     78  CG       -23.9700    0.3450   -0.5360 C.ar  143  PHE143     -0.0200
     79  CD1      -23.0760    1.0930    0.2120 C.ar  143  PHE143     -0.0042
     80  CD2      -23.8980   -1.0360   -0.4740 C.ar  143  PHE143     -0.0042
     81  CE1      -22.1320    0.4720    1.0260 C.ar  143  PHE143     -0.0003
     82  CE2      -22.9660   -1.6670    0.3450 C.ar  143  PHE143     -0.0003
     83  CZ       -22.0780   -0.9010    1.0980 C.ar  143  PHE143     -0.0000
     84  N        -16.6570    0.2780  -13.8240 N.3   152  HIS152     -0.1241
     85  CA       -16.1490   -1.0920  -13.9700 C.3   152  HIS152      0.1621
     86  C        -16.5020   -1.6340  -15.3470 C.2   152  HIS152      0.2264
     87  O        -15.7550   -2.4270  -15.9200 O.2   152  HIS152     -0.2867
     88  CB       -16.7070   -2.0150  -12.8790 C.3   152  HIS152      0.0745
     89  CG       -16.1910   -1.6990  -11.5090 C.ar  152  HIS152      0.0817
     90  ND1      -14.8590   -1.8180  -11.1680 N.ar  152  HIS152     -0.2268
     91  CD2      -16.8290   -1.2720  -10.3940 C.ar  152  HIS152      0.1154
     92  CE1      -14.7020   -1.4730   -9.9030 C.ar  152  HIS152      0.1986
     93  NE2      -15.8830   -1.1430   -9.4070 N.ar  152  HIS152     -0.2212
     94  N        -15.7510  -10.8160   -4.8040 N.3   174  GLY174     -0.1210
     95  CA       -16.5400  -10.5820   -3.6060 C.3   174  GLY174      0.1956
     96  C        -17.5160   -9.4270   -3.8200 C.2   174  GLY174      0.2612
     97  O        -17.2670   -8.5230   -4.6360 O.2   174  GLY174     -0.2717
     98  N        -18.6310   -9.4530   -3.0980 N.am  175  VAL175     -0.1965
     99  CA       -19.6410   -8.4120   -3.2290 C.3   175  VAL175      0.1727
    100  C        -19.7500   -7.5580   -1.9690 C.2   175  VAL175      0.2617
    101  O        -19.9880   -8.0750   -0.8730 O.2   175  VAL175     -0.2715
    102  CB       -21.0270   -9.0130   -3.5470 C.3   175  VAL175      0.0290
    103  CG1      -22.1280   -7.9490   -3.3760 C.3   175  VAL175      0.0023
    104  CG2      -21.0310   -9.6010   -4.9750 C.3   175  VAL175      0.0023
    105  N        -19.5370   -6.2560   -2.1390 N.am  176  GLY176     -0.1940
    106  CA       -19.8400   -5.2740   -1.1080 C.3   176  GLY176      0.2014
    107  C        -21.0290   -4.4570   -1.5890 C.2   176  GLY176      0.2640
    108  O        -22.1560   -4.6950   -1.1720 O.2   176  GLY176     -0.2714
    109  N        -20.7690   -3.5130   -2.4880 N.am  177  THR177     -0.1936
    110  CA       -21.8260   -2.7830   -3.1890 C.3   177  THR177      0.2028
    111  C        -22.3600   -3.5730   -4.3800 C.2   177  THR177      0.2643
    112  O        -23.4650   -3.3140   -4.8500 O.2   177  THR177     -0.2714
    113  CB       -21.3370   -1.4430   -3.7360 C.3   177  THR177      0.1808
    114  OG1      -20.3980   -1.6920   -4.7940 O.3   177  THR177     -0.2208
    115  CG2      -20.6820   -0.6060   -2.6250 C.3   177  THR177      0.0379
    116  N        -21.5560   -4.5160   -4.8790 N.am  178  GLY178     -0.1939
    117  CA       -21.9070   -5.2740   -6.0670 C.3   178  GLY178      0.2014
    118  C        -21.4200   -4.6390   -7.3650 C.2   178  GLY178      0.2639
    119  O        -21.5340   -5.2330   -8.4390 O.2   178  GLY178     -0.2714
    120  N        -20.8750   -3.4320   -7.2730 N.am  179  GLY179     -0.1939
    121  CA       -20.5020   -2.6800   -8.4620 C.3   179  GLY179      0.2014
    122  C        -19.4680   -3.3730   -9.3350 C.2   179  GLY179      0.2640
    123  O        -19.5790   -3.3660  -10.5670 O.2   179  GLY179     -0.2714
    124  N        -18.4610   -3.9780   -8.7010 N.am  180  SER180     -0.1935
    125  CA       -17.3960   -4.6410   -9.4460 C.3   180  SER180      0.2055
    126  C        -17.9490   -5.7840  -10.2760 C.2   180  SER180      0.2642
    127  O        -17.7490   -5.8130  -11.4900 O.2   180  SER180     -0.2714
    128  CB       -16.2930   -5.1610   -8.5060 C.3   180  SER180      0.2130
    129  OG       -15.6610   -4.0720   -7.8370 O.3   180  SER180     -0.2179
    130  N        -18.6490   -6.7230   -9.6400 N.am  181  ILE181     -0.1977
    131  CA       -19.0850   -7.8980  -10.3930 C.3   181  ILE181      0.1596
    132  C        -20.1150   -7.4690  -11.4360 C.2   181  ILE181      0.2287
    133  O        -20.1150   -7.9760  -12.5490 O.2   181  ILE181     -0.2864
    134  CB       -19.6430   -9.0260   -9.4810 C.3   181  ILE181      0.0276
    135  CG1      -19.8910  -10.3070  -10.2980 C.3   181  ILE181      0.0022
    136  CG2      -20.9150   -8.5950   -8.7420 C.3   181  ILE181      0.0022
    137  CD1      -18.6180  -10.8720  -10.9710 C.3   181  ILE181      0.0001
    138  N        -13.4640   -8.0760    5.7510 N.3   226  GLN226     -0.1231
    139  CA       -13.6790   -6.6440    5.6510 C.3   226  GLN226      0.1698
    140  C        -13.8920   -6.1960    4.2070 C.2   226  GLN226      0.2593
    141  O        -13.0910   -6.5100    3.3290 O.2   226  GLN226     -0.2718
    142  CB       -12.4900   -5.9100    6.2760 C.3   226  GLN226      0.0381
    143  CG       -12.8750   -4.6060    6.9270 C.3   226  GLN226      0.0905
    144  CD       -11.7810   -4.0400    7.8150 C.2   226  GLN226      0.2608
    145  OE1      -11.3050   -2.9340    7.5810 O.2   226  GLN226     -0.2717
    146  NE2      -11.3750   -4.7970    8.8380 N.am  226  GLN226     -0.0878
    147  N        -14.9990   -5.5050    3.9550 N.am  227  GLY227     -0.1942
    148  CA       -15.2600   -4.9720    2.6290 C.3   227  GLY227      0.2014
    149  C        -16.3780   -5.6680    1.8780 C.2   227  GLY227      0.2638
    150  O        -16.9980   -5.0690    1.0020 O.2   227  GLY227     -0.2714
    151  N        -16.6400   -6.9340    2.2010 N.am  228  ILE228     -0.1977
    152  CA       -17.7840   -7.6170    1.6020 C.3   228  ILE228      0.1596
    153  C        -18.7870   -8.0410    2.6690 C.2   228  ILE228      0.2287
    154  O        -18.5500   -7.8590    3.8680 O.2   228  ILE228     -0.2864
    155  CB       -17.3570   -8.8520    0.7820 C.3   228  ILE228      0.0276
    156  CG1      -16.9620  -10.0180    1.6960 C.3   228  ILE228      0.0022
    157  CG2      -16.2130   -8.4900   -0.1650 C.3   228  ILE228      0.0022
    158  CD1      -16.6830  -11.3250    0.9500 C.3   228  ILE228      0.0001
    159  N        -10.3640   -9.7690    1.7950 N.3   271  SER271     -0.1217
    160  CA       -11.3900  -10.1480    0.8290 C.3   271  SER271      0.1889
    161  C        -10.7650  -10.7730   -0.4190 C.2   271  SER271      0.2288
    162  O        -11.4230  -11.5420   -1.1310 O.2   271  SER271     -0.2866
    163  CB       -12.2490   -8.9370    0.4470 C.3   271  SER271      0.2089
    164  OG       -11.5710   -8.0970   -0.4670 O.3   271  SER271     -0.2183
    165  N         -9.3250   -7.0530   -4.3640 N.3   298  PRO298     -0.2102
    166  CA        -9.7200   -5.6490   -4.1720 C.3   298  PRO298      0.1504
    167  C         -8.7050   -4.7610   -3.4750 C.2   298  PRO298      0.2576
    168  O         -8.7030   -3.5690   -3.7590 O.2   298  PRO298     -0.2718
    169  CB       -10.9870   -5.7530   -3.3080 C.3   298  PRO298      0.0282
    170  CG       -11.5490   -7.1130   -3.6290 C.3   298  PRO298      0.0208
    171  CD       -10.3180   -7.9890   -3.8020 C.3   298  PRO298      0.0893
    172  N         -7.8740   -5.3040   -2.5880 N.am  299  SER299     -0.1953
    173  CA        -6.9960   -4.4510   -1.8010 C.3   299  SER299      0.1924
    174  C         -5.6590   -5.1040   -1.4100 C.2   299  SER299      0.2314
    175  O         -5.3920   -6.2700   -1.7310 O.2   299  SER299     -0.2863
    176  CB        -7.7460   -3.9770   -0.5410 C.3   299  SER299      0.2116
    177  OG        -8.1890   -5.0720    0.2450 O.3   299  SER299     -0.2180
    178  N         -4.2530   -3.7930    6.3850 N.3   304  TYR304     -0.1241
    179  CA        -4.8340   -4.7420    7.3350 C.3   304  TYR304      0.1605
    180  C         -3.8650   -5.2070    8.4280 C.2   304  TYR304      0.2264
    181  O         -4.1030   -6.2320    9.0760 O.2   304  TYR304     -0.2867
    182  CB        -5.3690   -5.9700    6.5840 C.3   304  TYR304      0.0534
    183  CG        -6.3560   -5.6170    5.4980 C.ar  304  TYR304     -0.0201
    184  CD1       -5.9180   -5.2670    4.2270 C.ar  304  TYR304     -0.0009
    185  CD2       -7.7270   -5.6260    5.7460 C.ar  304  TYR304     -0.0009
    186  CE1       -6.8250   -4.9280    3.2200 C.ar  304  TYR304      0.0417
    187  CE2       -8.6410   -5.2950    4.7520 C.ar  304  TYR304      0.0417
    188  CZ        -8.1850   -4.9430    3.4930 C.ar  304  TYR304      0.1957
    189  OH        -9.0780   -4.6060    2.5040 O.3   304  TYR304     -0.2866
@<TRIPOS>BOND
     1    87    86    2
     2    86    85    1
     3    85    84    1
     4    85    88    1
     5    88    89    1
     6   133   132    2
     7    89    90   ar
     8    89    91   ar
     9   127   126    2
    10   132   131    1
    11    90    92   ar
    12   137   135    1
    13   123   122    2
    14    91    93   ar
    15   131   130    1
    16   131   134    1
    17   135   134    1
    18   126   130   am
    19   126   125    1
    20    92    93   ar
    21   134   136    1
    22   125   124    1
    23   125   128    1
    24   122   124   am
    25   122   121    1
    26   128   129    1
    27   121   120    1
    28   119   118    2
    29     7     5    1
    30     4     3    2
    31   118   120   am
    32   118   117    1
    33     2     5    1
    34     2     3    1
    35     2     1    1
    36     5     6    1
    37     3     8   am
    38   117   116    1
    39    11    10    2
    40    10     9    1
    41     8     9    1
    42     9    12    1
    43   104   102    1
    44   116   111   am
    45   112   111    2
    46    94    95    1
    47   114   113    1
    48    67    66    2
    49    97    96    2
    50   111   110    1
    51   165   166    1
    52   165   171    1
    53    15    16    1
    54    15    14    1
    55    76    75    2
    56   166   167    1
    57   166   169    1
    58    75    74    1
    59    96    95    1
    60    96    98   am
    61   171   170    1
    62    12    13    1
    63   168   167    2
    64    66    65    1
    65    66    73   am
    66   113   110    1
    67   113   115    1
    68    65    68    1
    69    65    64    1
    70   170   169    1
    71   102   103    1
    72   102    99    1
    73   167   172   am
    74    99    98    1
    75    99   100    1
    76   110   109    1
    77    13    14    1
    78    68    69    1
    79    74    73    1
    80    74    77    1
    81   172   173    1
    82   109   107   am
    83   105   100   am
    84   105   106    1
    85    71    70    2
    86    44    42    1
    87   100   101    2
    88   173   174    1
    89   173   176    1
    90    43    42    1
    91   175   174    2
    92    69    70    1
    93   107   108    2
    94   107   106    1
    95    77    78    1
    96    70    72   am
    97    41    40    2
    98    42    39    1
    99   162   161    2
   100    39    40    1
   101    39    38    1
   102    33    32    2
   103   176   177    1
   104    78    80   ar
   105    78    79   ar
   106    80    82   ar
   107   164   163    1
   108   161   160    1
   109    38    32   am
   110    32    31    1
   111   157   155    1
   112    34    35    1
   113    34    31    1
   114    79    81   ar
   115    82    83   ar
   116   163   160    1
   117    35    37   am
   118    35    36    2
   119    31    30    1
   120   155   152    1
   121   155   156    1
   122   160   159    1
   123   158   156    1
   124   150   149    2
   125    81    83   ar
   126   152   151    1
   127   152   153    1
   128   149   151   am
   129   149   148    1
   130    22    21    1
   131   189   188    1
   132   148   147    1
   133   153   154    2
   134    21    18    1
   135    21    23    1
   136    29    28    1
   137   186   188   ar
   138   186   184   ar
   139   141   140    2
   140   188   187   ar
   141    18    17    1
   142    18    19    1
   143    54    53    1
   144   147   140   am
   145    24    19   am
   146    24    25    1
   147   140   139    1
   148   184   183   ar
   149    63    62    1
   150    28    25    1
   151    19    20    2
   152   187   185   ar
   153    53    52    2
   154    53    55    1
   155    26    25    1
   156    26    27    2
   157    52    51    1
   158    61    62    1
   159    61    60    1
   160   183   185   ar
   161   183   182    1
   162    60    57    1
   163   139   138    1
   164   139   142    1
   165    50    51    1
   166    50    49    1
   167   142   143    1
   168   178   179    1
   169   182   179    1
   170    59    58    2
   171   143   144    1
   172    57    58    1
   173    57    56    1
   174    49    46    1
   175    46    45    1
   176    46    47    1
   177    48    47    2
   178   179   180    1
   179   145   144    2
   180   144   146   am
   181   180   181    2
