@<TRIPOS>MOLECULE
tmp/5dbiA01.pdb
 162 157 0 0 0
SMALL
GASTEIGER

@<TRIPOS>ATOM
      1  N        -27.4900    3.5660   33.8710 N.3   118  THR118     -0.1203
      2  CA       -27.3370    2.1290   33.8830 C.3   118  THR118      0.1994
      3  C        -28.7180    1.5230   33.9780 C.2   118  THR118      0.2618
      4  O        -29.5440    1.7560   33.0830 O.2   118  THR118     -0.2717
      5  CB       -26.4450    1.6630   35.0320 C.3   118  THR118      0.1784
      6  OG1      -27.0010    2.0750   36.2920 O.3   118  THR118     -0.2211
      7  CG2      -25.0770    2.2450   34.8590 C.3   118  THR118      0.0376
      8  N        -29.0290    0.7860   35.0550 N.am  119  GLY119     -0.1942
      9  CA       -30.2940    0.0580   35.0450 C.3   119  GLY119      0.2014
     10  C        -30.5020   -0.8610   36.2140 C.2   119  GLY119      0.2639
     11  O        -29.6020   -1.0130   37.0550 O.2   119  GLY119     -0.2714
     12  N        -31.6920   -1.4740   36.2810 N.am  120  ILE120     -0.1963
     13  CA       -31.9960   -2.3460   37.4340 C.3   120  ILE120      0.1727
     14  C        -31.2240   -3.6980   37.4210 C.2   120  ILE120      0.2616
     15  O        -31.2380   -4.3950   38.4100 O.2   120  ILE120     -0.2715
     16  CB       -33.5080   -2.5590   37.6200 C.3   120  ILE120      0.0290
     17  CG1      -34.1320   -3.1220   36.3510 C.3   120  ILE120      0.0022
     18  CG2      -34.1640   -1.2430   38.0170 C.3   120  ILE120      0.0023
     19  CD1      -35.3810   -3.9500   36.5680 C.3   120  ILE120      0.0001
     20  N        -30.5440   -4.0390   36.3220 N.am  121  LYS121     -0.1977
     21  CA       -29.6530   -5.1930   36.3100 C.3   121  LYS121      0.1596
     22  C        -28.6540   -5.0740   37.4620 C.2   121  LYS121      0.2287
     23  O        -28.1910   -6.0620   37.9880 O.2   121  LYS121     -0.2864
     24  CB       -28.8390   -5.3080   35.0050 C.3   121  LYS121      0.0298
     25  CG       -29.5200   -5.9760   33.8630 C.3   121  LYS121      0.0038
     26  CD       -28.4940   -6.5020   32.8360 C.3   121  LYS121      0.0206
     27  CE       -27.8940   -5.4070   31.9460 C.3   121  LYS121      0.1093
     28  NZ       -26.8880   -5.9180   30.9620 N.3   121  LYS121     -0.1314
     29  N        -29.8560   -7.4490   40.1240 N.3   124  PHE124     -0.1241
     30  CA       -30.1470   -8.9040   39.9680 C.3   124  PHE124      0.1605
     31  C        -29.1900   -9.7090   39.1140 C.2   124  PHE124      0.2264
     32  O        -29.2580  -10.9140   39.1350 O.2   124  PHE124     -0.2867
     33  CB       -31.5680   -9.1400   39.4810 C.3   124  PHE124      0.0534
     34  CG       -31.8480   -8.6340   38.1130 C.ar  124  PHE124     -0.0203
     35  CD1      -31.5860   -9.4210   36.9940 C.ar  124  PHE124     -0.0042
     36  CD2      -32.4860   -7.4030   37.9250 C.ar  124  PHE124     -0.0042
     37  CE1      -31.9200   -8.9640   35.7180 C.ar  124  PHE124     -0.0003
     38  CE2      -32.7970   -6.9520   36.6460 C.ar  124  PHE124     -0.0003
     39  CZ       -32.5080   -7.7430   35.5460 C.ar  124  PHE124     -0.0000
     40  N        -27.2070  -10.5380   31.7920 N.3   127  PHE127     -0.1241
     41  CA       -27.9390  -11.4120   30.8830 C.3   127  PHE127      0.1605
     42  C        -27.2050  -12.7200   30.4690 C.2   127  PHE127      0.2264
     43  O        -27.8580  -13.6570   30.0340 O.2   127  PHE127     -0.2867
     44  CB       -28.4270  -10.6480   29.6530 C.3   127  PHE127      0.0534
     45  CG       -29.4010   -9.5420   29.9590 C.ar  127  PHE127     -0.0203
     46  CD1      -30.2800   -9.6070   31.0670 C.ar  127  PHE127     -0.0042
     47  CD2      -29.4640   -8.4200   29.1240 C.ar  127  PHE127     -0.0042
     48  CE1      -31.1810   -8.5710   31.3290 C.ar  127  PHE127     -0.0003
     49  CE2      -30.3550   -7.3910   29.3870 C.ar  127  PHE127     -0.0003
     50  CZ       -31.2200   -7.4640   30.4830 C.ar  127  PHE127     -0.0000
     51  N        -21.8250   -2.1670   34.6400 N.3   149  TYR149     -0.1241
     52  CA       -22.3090   -0.9950   35.4170 C.3   149  TYR149      0.1605
     53  C        -21.3210   -0.6130   36.5260 C.2   149  TYR149      0.2264
     54  O        -21.1730    0.5670   36.8310 O.2   149  TYR149     -0.2867
     55  CB       -23.6890   -1.2610   36.0610 C.3   149  TYR149      0.0534
     56  CG       -24.8510   -1.4420   35.1160 C.ar  149  TYR149     -0.0201
     57  CD1      -24.7510   -1.1300   33.7610 C.ar  149  TYR149     -0.0009
     58  CD2      -26.0620   -1.8960   35.5840 C.ar  149  TYR149     -0.0009
     59  CE1      -25.8420   -1.2810   32.8920 C.ar  149  TYR149      0.0417
     60  CE2      -27.1720   -2.0040   34.7450 C.ar  149  TYR149      0.0417
     61  CZ       -27.0600   -1.6890   33.4060 C.ar  149  TYR149      0.1957
     62  OH       -28.1310   -1.8560   32.5770 O.3   149  TYR149     -0.2866
     63  N        -32.8570    3.0350   35.4440 N.3   172  PRO172     -0.2102
     64  CA       -34.1930    2.7980   34.9950 C.3   172  PRO172      0.1504
     65  C        -34.6540    1.3440   35.0190 C.2   172  PRO172      0.2576
     66  O        -33.9080    0.4040   34.8110 O.2   172  PRO172     -0.2718
     67  CB       -34.1690    3.2560   33.5420 C.3   172  PRO172      0.0282
     68  CG       -32.7400    3.4660   33.1870 C.3   172  PRO172      0.0208
     69  CD       -31.9910    3.6530   34.4290 C.3   172  PRO172      0.0893
     70  N        -35.9460    1.2260   35.1220 N.am  173  ALA173     -0.1966
     71  CA       -36.6010   -0.0320   34.9270 C.3   173  ALA173      0.1728
     72  C        -36.6950   -0.2410   33.4110 C.2   173  ALA173      0.2616
     73  O        -36.1370    0.5120   32.6340 O.2   173  ALA173     -0.2715
     74  CB       -37.9920    0.0540   35.5650 C.3   173  ALA173      0.0334
     75  N        -37.3690   -1.3000   33.0230 N.am  174  LEU174     -0.1963
     76  CA       -37.6300   -1.6280   31.6670 C.3   174  LEU174      0.1728
     77  C        -38.2460   -0.4340   30.9920 C.2   174  LEU174      0.2616
     78  O        -39.2460    0.0880   31.4820 O.2   174  LEU174     -0.2715
     79  CB       -38.6280   -2.7740   31.6350 C.3   174  LEU174      0.0311
     80  CG       -39.1910   -3.2050   30.2770 C.3   174  LEU174      0.0022
     81  CD1      -38.1500   -3.8760   29.3890 C.3   174  LEU174      0.0001
     82  CD2      -40.3140   -4.1740   30.5540 C.3   174  LEU174      0.0001
     83  N        -37.7070   -0.0530   29.8370 N.am  175  VAL175     -0.1977
     84  CA       -38.1380    1.1520   29.1730 C.3   175  VAL175      0.1596
     85  C        -39.2430    0.9870   28.1640 C.2   175  VAL175      0.2287
     86  O        -39.1540    0.1830   27.2720 O.2   175  VAL175     -0.2864
     87  CB       -36.9370    1.9100   28.5410 C.3   175  VAL175      0.0276
     88  CG1      -37.4130    3.2220   27.8940 C.3   175  VAL175      0.0022
     89  CG2      -35.9110    2.2340   29.6220 C.3   175  VAL175      0.0022
     90  N        -32.8830   -2.7450   22.7370 N.3   184  MET184     -0.1245
     91  CA       -33.7710   -3.2910   23.7730 C.3   184  MET184      0.1570
     92  C        -35.0220   -2.4430   23.9030 C.2   184  MET184      0.2261
     93  O        -35.1360   -1.6220   24.8200 O.2   184  MET184     -0.2867
     94  CB       -33.0630   -3.3390   25.1060 C.3   184  MET184      0.0387
     95  CG       -31.9580   -4.3980   25.1820 C.3   184  MET184      0.0595
     96  SD       -31.2240   -4.7010   26.8150 S.3   184  MET184     -0.1393
     97  CE       -30.7820   -3.0310   27.3030 C.3   184  MET184      0.0692
     98  N        -45.1410   -6.2960   37.6400 N.3   217  ALA217     -0.1231
     99  CA       -43.9670   -5.8160   36.9060 C.3   217  ALA217      0.1694
    100  C        -43.9980   -4.2970   36.9010 C.2   217  ALA217      0.2592
    101  O        -45.0700   -3.7030   37.0670 O.2   217  ALA217     -0.2718
    102  CB       -43.9950   -6.3070   35.4630 C.3   217  ALA217      0.0304
    103  N        -42.8480   -3.6660   36.6320 N.am  218  ASP218     -0.1974
    104  CA       -42.8570   -2.2550   36.4270 C.3   218  ASP218      0.1709
    105  C        -42.0030   -1.8370   35.2500 C.2   218  ASP218      0.2293
    106  O        -41.2420   -2.6280   34.7130 O.2   218  ASP218     -0.2864
    107  CB       -42.4910   -1.5320   37.7040 C.3   218  ASP218      0.1436
    108  CG       -41.0800   -1.7900   38.1610 C.2   218  ASP218      0.3671
    109  OD1      -40.3430   -2.5390   37.4760 O.co2 218  ASP218     -0.2456
    110  OD2      -40.7060   -1.2180   39.2490 O.co2 218  ASP218     -0.2456
    111  N        -48.2210   -8.2430   32.8920 N.3   253  TRP253     -0.1241
    112  CA       -48.1770   -8.5170   31.4390 C.3   253  TRP253      0.1605
    113  C        -49.5100   -9.0150   30.9100 C.2   253  TRP253      0.2264
    114  O        -49.9390   -8.6750   29.7860 O.2   253  TRP253     -0.2867
    115  CB       -47.0440   -9.5130   31.1050 C.3   253  TRP253      0.0550
    116  CG       -45.7550   -8.8490   31.1150 C.ar  253  TRP253      0.0003
    117  CD1      -44.7540   -9.0210   32.0040 C.ar  253  TRP253      0.0946
    118  CD2      -45.3390   -7.7990   30.2410 C.ar  253  TRP253      0.0152
    119  NE1      -43.7240   -8.1610   31.7430 N.ar  253  TRP253     -0.2442
    120  CE2      -44.0710   -7.3750   30.6750 C.ar  253  TRP253      0.0810
    121  CE3      -45.9040   -7.1960   29.1300 C.ar  253  TRP253      0.0012
    122  CZ2      -43.3410   -6.3880   30.0160 C.ar  253  TRP253      0.0191
    123  CZ3      -45.1850   -6.1860   28.4740 C.ar  253  TRP253      0.0001
    124  CH2      -43.9290   -5.7900   28.9270 C.ar  253  TRP253      0.0015
    125  N        -35.0520  -10.2920   23.9820 N.3   313  PHE313     -0.1241
    126  CA       -35.2080   -9.4660   25.1790 C.3   313  PHE313      0.1605
    127  C        -36.6000   -9.6390   25.6990 C.2   313  PHE313      0.2264
    128  O        -36.8120   -9.6660   26.8900 O.2   313  PHE313     -0.2867
    129  CB       -34.9220   -8.0360   24.8090 C.3   313  PHE313      0.0534
    130  CG       -35.1040   -7.0600   25.9080 C.ar  313  PHE313     -0.0203
    131  CD1      -34.2550   -7.0590   26.9980 C.ar  313  PHE313     -0.0042
    132  CD2      -36.0710   -6.0530   25.7950 C.ar  313  PHE313     -0.0042
    133  CE1      -34.3890   -6.1220   27.9990 C.ar  313  PHE313     -0.0003
    134  CE2      -36.1770   -5.0860   26.7600 C.ar  313  PHE313     -0.0003
    135  CZ       -35.3620   -5.1410   27.8880 C.ar  313  PHE313     -0.0000
    136  N        -36.5450  -12.7900   27.7920 N.3   316  ILE316     -0.1231
    137  CA       -36.0980  -12.4950   29.1300 C.3   316  ILE316      0.1692
    138  C        -37.2000  -11.7950   29.9680 C.2   316  ILE316      0.2591
    139  O        -37.4870  -12.1990   31.0840 O.2   316  ILE316     -0.2718
    140  CB       -34.8600  -11.6300   29.0750 C.3   316  ILE316      0.0266
    141  CG1      -33.6560  -12.4740   28.6460 C.3   316  ILE316      0.0019
    142  CG2      -34.5500  -11.0050   30.4240 C.3   316  ILE316      0.0020
    143  CD1      -32.3740  -11.6700   28.5890 C.3   316  ILE316      0.0001
    144  N        -37.8030  -10.7450   29.4420 N.am  317  ALA317     -0.1980
    145  CA       -38.9410  -10.1230   30.1500 C.3   317  ALA317      0.1597
    146  C        -39.9710  -11.1560   30.5630 C.2   317  ALA317      0.2287
    147  O        -40.4840  -11.1130   31.6680 O.2   317  ALA317     -0.2864
    148  CB       -39.6020   -9.0760   29.2820 C.3   317  ALA317      0.0319
    149  N        -39.1480  -13.3390   33.6620 N.3   320  SER320     -0.1217
    150  CA       -38.6600  -12.5530   34.8010 C.3   320  SER320      0.1889
    151  C        -39.8030  -12.3220   35.7990 C.2   320  SER320      0.2288
    152  O        -40.9690  -12.2490   35.4290 O.2   320  SER320     -0.2866
    153  CB       -38.1240  -11.1970   34.3200 C.3   320  SER320      0.2089
    154  OG       -36.9750  -11.3000   33.5020 O.3   320  SER320     -0.2183
    155  N        -38.9540   -8.1300   40.0510 N.3   323  LEU323     -0.1245
    156  CA       -37.9620   -7.0860   39.7380 C.3   323  LEU323      0.1561
    157  C        -38.4140   -5.6410   40.0590 C.2   323  LEU323      0.2260
    158  O        -37.8080   -4.6900   39.5710 O.2   323  LEU323     -0.2867
    159  CB       -37.5470   -7.2010   38.2570 C.3   323  LEU323      0.0270
    160  CG       -37.0150   -8.5710   37.8340 C.3   323  LEU323      0.0019
    161  CD1      -36.7210   -8.5710   36.3520 C.3   323  LEU323      0.0001
    162  CD2      -35.7980   -8.9420   38.6700 C.3   323  LEU323      0.0001
@<TRIPOS>BOND
     1    90    91    1
     2    91    92    1
     3    91    94    1
     4    92    93    2
     5   125   126    1
     6   129   126    1
     7   129   130    1
     8    94    95    1
     9   126   127    1
    10    95    96    1
    11   127   128    2
    12   132   130   ar
    13   132   134   ar
    14   130   131   ar
    15   134   135   ar
    16    96    97    1
    17   131   133   ar
    18    86    85    2
    19   136   137    1
    20   135   133   ar
    21    88    87    1
    22    85    84    1
    23   123   124   ar
    24   123   121   ar
    25    87    84    1
    26    87    89    1
    27   143   141    1
    28   141   140    1
    29   124   122   ar
    30   140   137    1
    31   140   142    1
    32    47    49   ar
    33    47    45   ar
    34   137   138    1
    35   121   118   ar
    36    84    83    1
    37   148   145    1
    38    49    50   ar
    39    81    80    1
    40   144   138   am
    41   144   145    1
    42    44    45    1
    43    44    41    1
    44   114   113    2
    45    83    77   am
    46    45    46   ar
    47   138   139    2
    48   122   120   ar
    49    43    42    2
    50   145   146    1
    51   118   120   ar
    52   118   116   ar
    53    80    82    1
    54    80    79    1
    55    42    41    1
    56    50    48   ar
    57   146   147    2
    58   120   119   ar
    59    41    40    1
    60   113   112    1
    61    28    27    1
    62    77    78    2
    63    77    76    1
    64    46    48   ar
    65   115   116    1
    66   115   112    1
    67   116   117   ar
    68   112   111    1
    69    79    76    1
    70    76    75    1
    71   119   117   ar
    72    27    26    1
    73    62    61    1
    74    73    72    2
    75    26    25    1
    76    59    61   ar
    77    59    57   ar
    78    75    72   am
    79     4     3    2
    80    68    67    1
    81    68    69    1
    82    61    60   ar
    83    72    71    1
    84   154   153    1
    85    67    64    1
    86   149   150    1
    87    57    56   ar
    88    25    24    1
    89     1     2    1
    90     2     3    1
    91     2     5    1
    92     3     8   am
    93   153   150    1
    94    69    63    1
    95    51    52    1
    96   106   105    2
    97    60    58   ar
    98   150   151    1
    99    66    65    2
   100     7     5    1
   101    71    70    1
   102    71    74    1
   103    64    65    1
   104    64    63    1
   105    24    21    1
   106    65    70   am
   107     5     6    1
   108     9     8    1
   109     9    10    1
   110    56    58   ar
   111    56    55    1
   112   105   104    1
   113    52    55    1
   114    52    53    1
   115   152   151    2
   116   102    99    1
   117    39    37   ar
   118    39    38   ar
   119    37    35   ar
   120    10    12   am
   121    10    11    2
   122    12    13    1
   123    21    20    1
   124    21    22    1
   125    20    14   am
   126    17    19    1
   127    17    16    1
   128   161   160    1
   129   104   103    1
   130   104   107    1
   131    53    54    2
   132   103   100   am
   133    38    36   ar
   134   100    99    1
   135   100   101    2
   136    99    98    1
   137    35    34   ar
   138    14    13    1
   139    14    15    2
   140    13    16    1
   141    22    23    2
   142   109   108   ar
   143    16    18    1
   144   107   108    1
   145   160   159    1
   146   160   162    1
   147    36    34   ar
   148    34    33    1
   149   108   110   ar
   150   159   156    1
   151    31    32    2
   152    31    30    1
   153    33    30    1
   154   158   157    2
   155   156   155    1
   156   156   157    1
   157    30    29    1
