@<TRIPOS>MOLECULE
tmp/5dbmC00.pdb
 110 105 0 0 0
SMALL
GASTEIGER

@<TRIPOS>ATOM
      1  N         61.3000   58.5660   33.2760 N.3    30  LEU30      -0.1231
      2  CA        62.1280   59.7150   33.6670 C.3    30  LEU30       0.1678
      3  C         62.0990   60.9010   32.6920 C.2    30  LEU30       0.2434
      4  O         61.9990   62.0870   33.1470 O.2    30  LEU30      -0.2733
      5  CB        63.5580   59.2850   33.9900 C.3    30  LEU30       0.0284
      6  CG        63.6880   58.3530   35.1740 C.3    30  LEU30       0.0019
      7  CD1       65.1280   58.0450   35.4960 C.3    30  LEU30       0.0001
      8  CD2       63.0330   58.9230   36.3890 C.3    30  LEU30       0.0001
      9  N         62.1670   60.6200   31.3770 N.am   31  PRO31      -0.2718
     10  CA        62.1260   61.6950   30.4060 C.3    31  PRO31       0.1535
     11  C         60.7640   62.4020   30.2740 C.2    31  PRO31       0.2598
     12  O         60.6810   63.4380   29.5900 O.2    31  PRO31      -0.2715
     13  CB        62.4460   61.0000   29.0800 C.3    31  PRO31       0.0310
     14  CG        63.2140   59.7940   29.4800 C.3    31  PRO31       0.0237
     15  CD        62.4710   59.3420   30.7110 C.3    31  PRO31       0.0939
     16  N         59.7330   61.8580   30.9130 N.am   32  PHE32      -0.1974
     17  CA        58.3890   62.3660   30.8480 C.3    32  PHE32       0.1639
     18  C         57.8610   62.9680   32.1310 C.2    32  PHE32       0.2290
     19  O         56.7450   63.4310   32.1560 O.2    32  PHE32      -0.2864
     20  CB        57.4130   61.2050   30.5090 C.3    32  PHE32       0.0560
     21  CG        57.7570   60.5070   29.2560 C.ar   32  PHE32      -0.0200
     22  CD1       57.2780   60.9700   28.0320 C.ar   32  PHE32      -0.0042
     23  CD2       58.6320   59.4010   29.2720 C.ar   32  PHE32      -0.0042
     24  CE1       57.6470   60.3260   26.8500 C.ar   32  PHE32      -0.0003
     25  CE2       58.9860   58.7480   28.0970 C.ar   32  PHE32      -0.0003
     26  CZ        58.5200   59.2570   26.8740 C.ar   32  PHE32      -0.0000
     27  N         58.8700   65.6810   33.8130 N.3    34  GLN34      -0.1245
     28  CA        58.9200   67.1240   33.8900 C.3    34  GLN34       0.1566
     29  C         58.6180   67.7340   32.5010 C.2    34  GLN34       0.2260
     30  O         58.8160   67.0920   31.4720 O.2    34  GLN34      -0.2867
     31  CB        60.3060   67.5950   34.3510 C.3    34  GLN34       0.0367
     32  CG        60.7920   67.1130   35.7110 C.3    34  GLN34       0.0905
     33  CD        59.7810   67.3760   36.8200 C.2    34  GLN34       0.2608
     34  OE1       59.0340   68.3640   36.7930 O.2    34  GLN34      -0.2717
     35  NE2       59.7080   66.4470   37.7640 N.am   34  GLN34      -0.0878
     36  N         59.1960   69.4730   29.1230 N.3    36  VAL36      -0.1245
     37  CA        60.3880   69.5280   28.2830 C.3    36  VAL36       0.1561
     38  C         60.9330   70.9480   28.3210 C.2    36  VAL36       0.2260
     39  O         60.1940   71.9220   28.0540 O.2    36  VAL36      -0.2867
     40  CB        60.0510   69.1900   26.8250 C.3    36  VAL36       0.0252
     41  CG1       61.2850   69.3760   25.9580 C.3    36  VAL36       0.0019
     42  CG2       59.5090   67.7820   26.7190 C.3    36  VAL36       0.0019
     43  N         67.8860   70.4020   27.4490 N.3    41  LEU41      -0.1245
     44  CA        68.1230   69.0640   26.9730 C.3    41  LEU41       0.1561
     45  C         68.8000   69.0680   25.6460 C.2    41  LEU41       0.2260
     46  O         68.9920   67.9960   25.0890 O.2    41  LEU41      -0.2867
     47  CB        66.8230   68.2880   26.8180 C.3    41  LEU41       0.0270
     48  CG        65.9520   68.2780   28.0660 C.3    41  LEU41       0.0019
     49  CD1       64.5260   67.9780   27.6560 C.3    41  LEU41       0.0001
     50  CD2       66.4920   67.2840   29.0740 C.3    41  LEU41       0.0001
     51  N         67.6740   69.9660   22.6510 N.3    43  ILE43      -0.1245
     52  CA        66.8360   69.6610   21.5200 C.3    43  ILE43       0.1561
     53  C         66.0820   70.9330   21.0700 C.2    43  ILE43       0.2260
     54  O         64.8820   71.0120   21.1930 O.2    43  ILE43      -0.2867
     55  CB        65.8660   68.5130   21.8650 C.3    43  ILE43       0.0252
     56  CG1       65.0640   68.8160   23.1420 C.3    43  ILE43       0.0019
     57  CG2       66.6510   67.2140   22.0430 C.3    43  ILE43       0.0019
     58  CD1       64.0160   67.7620   23.4300 C.3    43  ILE43       0.0001
     59  N         62.4310   71.5860   19.4370 N.3    46  TYR46      -0.1241
     60  CA        61.3160   70.8050   19.9490 C.3    46  TYR46       0.1605
     61  C         59.9720   71.4630   19.6810 C.2    46  TYR46       0.2264
     62  O         59.0760   70.8060   19.1510 O.2    46  TYR46      -0.2867
     63  CB        61.5070   70.5430   21.4350 C.3    46  TYR46       0.0534
     64  CG        60.4760   69.6390   22.0390 C.ar   46  TYR46      -0.0201
     65  CD1       60.5000   68.2540   21.8190 C.ar   46  TYR46      -0.0009
     66  CD2       59.4770   70.1680   22.8350 C.ar   46  TYR46      -0.0009
     67  CE1       59.5420   67.4250   22.3840 C.ar   46  TYR46       0.0417
     68  CE2       58.5060   69.3730   23.3750 C.ar   46  TYR46       0.0417
     69  CZ        58.5300   68.0090   23.1620 C.ar   46  TYR46       0.1957
     70  OH        57.5540   67.2870   23.8000 O.3    46  TYR46      -0.2866
     71  N         53.2470   62.9770   21.2020 N.3    84  ASN84      -0.1225
     72  CA        54.3260   63.9350   21.0590 C.3    84  ASN84       0.1785
     73  C         55.6630   63.1790   20.9520 C.2    84  ASN84       0.2597
     74  O         56.5320   63.5590   20.0890 O.2    84  ASN84      -0.2718
     75  CB        54.3460   64.9640   22.2100 C.3    84  ASN84       0.1169
     76  CG        53.1740   65.9030   22.1870 C.2    84  ASN84       0.2627
     77  OD1       52.4860   66.0510   21.1570 O.2    84  ASN84      -0.2716
     78  ND2       52.9720   66.6140   23.2850 N.am   84  ASN84      -0.0877
     79  N         55.8920   62.1820   21.7990 N.am   85  ALA85      -0.1979
     80  CA        57.1820   61.4700   21.7830 C.3    85  ALA85       0.1597
     81  C         57.3560   60.5810   20.5580 C.2    85  ALA85       0.2287
     82  O         58.4480   60.4800   20.0090 O.2    85  ALA85      -0.2864
     83  CB        57.4120   60.6560   23.0830 C.3    85  ALA85       0.0319
     84  N         58.2320   63.2240   17.8120 N.3    88  TYR88      -0.1227
     85  CA        59.4830   63.9470   17.8530 C.3    88  TYR88       0.1736
     86  C         60.7060   63.0450   17.7050 C.2    88  TYR88       0.2595
     87  O         61.6960   63.4180   17.0810 O.2    88  TYR88      -0.2718
     88  CB        59.6100   64.7230   19.1580 C.3    88  TYR88       0.0548
     89  CG        60.8820   65.5100   19.1350 C.ar   88  TYR88      -0.0200
     90  CD1       61.0050   66.6320   18.3090 C.ar   88  TYR88      -0.0009
     91  CD2       62.0180   65.0760   19.8560 C.ar   88  TYR88      -0.0009
     92  CE1       62.2090   67.3280   18.2580 C.ar   88  TYR88       0.0417
     93  CE2       63.2320   65.7320   19.7650 C.ar   88  TYR88       0.0417
     94  CZ        63.3160   66.8500   18.9880 C.ar   88  TYR88       0.1957
     95  OH        64.4960   67.5020   18.9740 O.3    88  TYR88      -0.2866
     96  N         60.6250   61.8570   18.2900 N.am   89  ASN89      -0.1974
     97  CA        61.8150   60.9550   18.4360 C.3    89  ASN89       0.1688
     98  C         61.8350   59.9000   17.3610 C.2    89  ASN89       0.2292
     99  O         60.7860   59.4680   16.8730 O.2    89  ASN89      -0.2864
    100  CB        61.8250   60.3030   19.8340 C.3    89  ASN89       0.1181
    101  CG        61.8120   61.3190   20.9410 C.2    89  ASN89       0.2629
    102  OD1       62.8490   61.8230   21.3250 O.2    89  ASN89      -0.2716
    103  ND2       60.6280   61.6140   21.4890 N.am   89  ASN89      -0.0877
    104  N         64.1140   57.2600   23.9080 N.3    95  VAL95      -0.1245
    105  CA        62.9070   57.9080   24.2930 C.3    95  VAL95       0.1561
    106  C         61.6660   57.3500   23.5910 C.2    95  VAL95       0.2260
    107  O         60.6630   57.1000   24.2480 O.2    95  VAL95      -0.2867
    108  CB        63.0280   59.4440   24.2020 C.3    95  VAL95       0.0252
    109  CG1       61.7020   60.1200   24.5230 C.3    95  VAL95       0.0019
    110  CG2       64.0620   59.8840   25.2370 C.3    95  VAL95       0.0019
@<TRIPOS>BOND
     1    99    98    2
     2    87    86    2
     3    98    97    1
     4    86    85    1
     5    86    96   am
     6    84    85    1
     7    85    88    1
     8    92    90   ar
     9    92    94   ar
    10    96    97    1
    11    90    89   ar
    12    97   100    1
    13    95    94    1
    14    94    93   ar
    15    89    88    1
    16    89    91   ar
    17    62    61    2
    18    59    60    1
    19    61    60    1
    20    93    91   ar
    21   100   101    1
    22    60    63    1
    23    82    81    2
    24    74    73    2
    25    81    80    1
    26   101   102    2
    27   101   103   am
    28    73    72    1
    29    73    79   am
    30    72    71    1
    31    72    75    1
    32    53    54    2
    33    53    52    1
    34    77    76    2
    35    63    64    1
    36    52    55    1
    37    52    51    1
    38    80    79    1
    39    80    83    1
    40    65    64   ar
    41    65    67   ar
    42    55    57    1
    43    55    56    1
    44    64    66   ar
    45    76    75    1
    46    76    78   am
    47    67    69   ar
    48    66    68   ar
    49    56    58    1
    50    69    68   ar
    51    69    70    1
    52   106   107    2
    53   106   105    1
    54   104   105    1
    55   108   105    1
    56   108   109    1
    57   108   110    1
    58    46    45    2
    59    45    44    1
    60    41    40    1
    61    42    40    1
    62    47    44    1
    63    47    48    1
    64    40    37    1
    65    24    26   ar
    66    24    22   ar
    67    26    25   ar
    68    44    43    1
    69    49    48    1
    70    22    21   ar
    71    39    38    2
    72    48    50    1
    73    25    23   ar
    74    37    38    1
    75    37    36    1
    76    13    14    1
    77    13    10    1
    78    21    23   ar
    79    21    20    1
    80    14    15    1
    81    12    11    2
    82    11    10    1
    83    11    16   am
    84    10     9    1
    85    20    17    1
    86    15     9    1
    87    17    16    1
    88    17    18    1
    89     9     3   am
    90    30    29    2
    91    18    19    2
    92    29    28    1
    93     3     4    2
    94     3     2    1
    95     1     2    1
    96     2     5    1
    97    27    28    1
    98    28    31    1
    99     5     6    1
   100    31    32    1
   101     6     7    1
   102     6     8    1
   103    32    33    1
   104    34    33    2
   105    33    35   am
