@<TRIPOS>MOLECULE
tmp/5dbnB00.pdb
 76 74 0 0 0
SMALL
GASTEIGER

@<TRIPOS>ATOM
      1  N         -8.7960   98.8250    5.7340 N.3    98  GLY98      -0.1210
      2  CA       -10.2330   99.0010    5.7370 C.3    98  GLY98       0.1956
      3  C        -10.5710  100.4180    6.1480 C.2    98  GLY98       0.2612
      4  O         -9.6790  101.2180    6.4410 O.2    98  GLY98      -0.2717
      5  N        -11.8590  100.7370    6.1730 N.am   99  GLY99      -0.1942
      6  CA       -12.2850  102.0720    6.5390 C.3    99  GLY99       0.2014
      7  C        -13.6950  102.1320    7.0820 C.2    99  GLY99       0.2638
      8  O        -14.5690  101.3660    6.6750 O.2    99  GLY99      -0.2714
      9  N        -13.9030  103.0430    8.0270 N.am  100  LEU100     -0.1977
     10  CA       -15.2350  103.3530    8.5230 C.3   100  LEU100      0.1596
     11  C        -15.7340  104.5870    7.7940 C.2   100  LEU100      0.2287
     12  O        -16.8990  104.6640    7.4100 O.2   100  LEU100     -0.2864
     13  CB       -15.2230  103.5980   10.0330 C.3   100  LEU100      0.0297
     14  CG       -14.7450  102.4440   10.9120 C.3   100  LEU100      0.0022
     15  CD1      -14.3650  102.9500   12.2930 C.3   100  LEU100      0.0001
     16  CD2      -15.8290  101.3780   11.0090 C.3   100  LEU100      0.0001
     17  N        -10.7980  104.7710   10.9260 N.3   110  ASN110     -0.1225
     18  CA       -10.9440  103.3220   10.8000 C.3   110  ASN110      0.1785
     19  C        -10.4280  102.5480   12.0090 C.2   110  ASN110      0.2597
     20  O        -10.0200  101.3920   11.8780 O.2   110  ASN110     -0.2718
     21  CB       -10.2290  102.8280    9.5340 C.3   110  ASN110      0.1169
     22  CG        -8.7170  102.7300    9.6990 C.2   110  ASN110      0.2627
     23  OD1       -8.1110  103.4450   10.4930 O.2   110  ASN110     -0.2716
     24  ND2       -8.1040  101.8390    8.9320 N.am  110  ASN110     -0.0877
     25  N        -10.4550  103.1750   13.1830 N.am  111  TRP111     -0.1962
     26  CA        -9.9880  102.5170   14.4010 C.3   111  TRP111      0.1771
     27  C        -10.9710  102.6200   15.5630 C.2   111  TRP111      0.2619
     28  O        -10.7840  101.9660   16.5870 O.2   111  TRP111     -0.2715
     29  CB        -8.6300  103.0860   14.8240 C.3   111  TRP111      0.0590
     30  CG        -8.6690  104.4730   15.3940 C.ar  111  TRP111      0.0006
     31  CD1       -8.7120  105.6440   14.6970 C.ar  111  TRP111      0.0946
     32  CD2       -8.6480  104.8340   16.7810 C.ar  111  TRP111      0.0152
     33  NE1       -8.7230  106.7110   15.5620 N.ar  111  TRP111     -0.2442
     34  CE2       -8.6840  106.2400   16.8480 C.ar  111  TRP111      0.0810
     35  CE3       -8.6040  104.1030   17.9720 C.ar  111  TRP111      0.0012
     36  CZ2       -8.6800  106.9310   18.0580 C.ar  111  TRP111      0.0191
     37  CZ3       -8.5990  104.7920   19.1720 C.ar  111  TRP111      0.0001
     38  CH2       -8.6370  106.1910   19.2060 C.ar  111  TRP111      0.0015
     39  N        -12.0170  103.4270   15.4170 N.am  112  VAL112     -0.1963
     40  CA       -13.0040  103.5410   16.4840 C.3   112  VAL112      0.1727
     41  C        -14.3390  104.0960   15.9950 C.2   112  VAL112      0.2616
     42  O        -14.3900  105.0220   15.1820 O.2   112  VAL112     -0.2715
     43  CB       -12.4690  104.4260   17.6400 C.3   112  VAL112      0.0290
     44  CG1      -12.1060  105.8170   17.1360 C.3   112  VAL112      0.0023
     45  CG2      -13.4800  104.5050   18.7810 C.3   112  VAL112      0.0023
     46  N        -15.4140  103.4960   16.5000 N.am  113  VAL113     -0.1977
     47  CA       -16.7740  103.9560   16.2580 C.3   113  VAL113      0.1596
     48  C        -17.3500  104.4650   17.5780 C.2   113  VAL113      0.2287
     49  O        -17.3520  103.7340   18.5690 O.2   113  VAL113     -0.2864
     50  CB       -17.6750  102.8340   15.6950 C.3   113  VAL113      0.0276
     51  CG1      -19.0870  103.3500   15.4470 C.3   113  VAL113      0.0022
     52  CG2      -17.0870  102.2680   14.4160 C.3   113  VAL113      0.0022
     53  N        -17.1510   99.7580   21.8590 N.3   117  MET117     -0.1245
     54  CA       -15.9220   99.6580   22.6380 C.3   117  MET117      0.1570
     55  C        -14.7160  100.0030   21.7750 C.2   117  MET117      0.2261
     56  O        -14.6430   99.6160   20.6090 O.2   117  MET117     -0.2867
     57  CB       -15.7660   98.2520   23.2230 C.3   117  MET117      0.0387
     58  CG       -16.8110   97.7610   24.1780 C.3   117  MET117      0.0595
     59  SD       -16.6450   98.7330   25.7220 S.3   117  MET117     -0.1393
     60  CE       -14.9620   98.7320   26.0970 C.3   117  MET117      0.0692
     61  N        -11.1680   99.6370   20.3670 N.3   119  PRO119     -0.2116
     62  CA       -10.2010   98.5410   20.2540 C.3   119  PRO119      0.1372
     63  C         -8.7490   99.0130   20.2740 C.2   119  PRO119      0.2244
     64  O         -7.8600   98.2200   20.5820 O.2   119  PRO119     -0.2868
     65  CB       -10.5470   97.9250   18.8980 C.3   119  PRO119      0.0268
     66  CG       -11.0100   99.0900   18.0860 C.3   119  PRO119      0.0207
     67  CD       -11.6880  100.0410   19.0460 C.3   119  PRO119      0.0892
     68  N        -20.6430  106.5720    4.0830 N.3   148  LYS148     -0.1245
     69  CA       -19.3260  106.4410    4.6970 C.3   148  LYS148      0.1561
     70  C        -18.3070  107.3560    4.0230 C.2   148  LYS148      0.2260
     71  O        -17.2790  107.6880    4.6080 O.2   148  LYS148     -0.2867
     72  CB       -18.8590  104.9850    4.6400 C.3   148  LYS148      0.0271
     73  CG       -19.8300  104.0200    5.3090 C.3   148  LYS148      0.0035
     74  CD       -19.1470  102.7530    5.7920 C.3   148  LYS148      0.0206
     75  CE       -18.6200  101.9160    4.6500 C.3   148  LYS148      0.1093
     76  NZ       -17.7330  100.8310    5.1490 N.3   148  LYS148     -0.1314
@<TRIPOS>BOND
     1    70    71    2
     2    70    69    1
     3    68    69    1
     4    72    69    1
     5    72    73    1
     6    75    76    1
     7    75    74    1
     8    73    74    1
     9     1     2    1
    10     2     3    1
    11     3     5   am
    12     3     4    2
    13     5     6    1
    14     6     7    1
    15     8     7    2
    16     7     9   am
    17    12    11    2
    18    11    10    1
    19     9    10    1
    20    10    13    1
    21    24    22   am
    22    21    22    1
    23    21    18    1
    24    22    23    2
    25    13    14    1
    26    18    17    1
    27    18    19    1
    28    14    16    1
    29    14    15    1
    30    20    19    2
    31    19    25   am
    32    25    26    1
    33    26    29    1
    34    26    27    1
    35    52    50    1
    36    31    30   ar
    37    31    33   ar
    38    29    30    1
    39    42    41    2
    40    30    32   ar
    41    39    27   am
    42    39    40    1
    43    51    50    1
    44    33    34   ar
    45    27    28    2
    46    50    47    1
    47    41    40    1
    48    41    46   am
    49    47    46    1
    50    47    48    1
    51    40    43    1
    52    32    34   ar
    53    32    35   ar
    54    34    36   ar
    55    44    43    1
    56    48    49    2
    57    43    45    1
    58    35    37   ar
    59    36    38   ar
    60    66    65    1
    61    66    67    1
    62    65    62    1
    63    67    61    1
    64    37    38   ar
    65    62    63    1
    66    62    61    1
    67    63    64    2
    68    56    55    2
    69    55    54    1
    70    53    54    1
    71    54    57    1
    72    57    58    1
    73    58    59    1
    74    59    60    1
