@<TRIPOS>MOLECULE
tmp/5dbyA06.pdb
 80 73 0 0 0
SMALL
GASTEIGER

@<TRIPOS>ATOM
      1  N         46.5770   18.1530   63.4610 N.3   186  LEU186     -0.1231
      2  CA        45.1970   17.6620   63.3760 C.3   186  LEU186      0.1693
      3  C         44.8110   16.8900   64.6260 C.2   186  LEU186      0.2591
      4  O         43.6850   16.9640   65.0450 O.2   186  LEU186     -0.2718
      5  CB        44.9490   16.8100   62.0980 C.3   186  LEU186      0.0284
      6  CG        44.8450   17.5980   60.7590 C.3   186  LEU186      0.0019
      7  CD1       45.0360   16.6800   59.5730 C.3   186  LEU186      0.0001
      8  CD2       43.5090   18.3000   60.6260 C.3   186  LEU186      0.0001
      9  N         45.7380   16.1030   65.1430 N.am  187  LEU187     -0.1980
     10  CA        45.5580   15.3600   66.3760 C.3   187  LEU187      0.1596
     11  C         45.3450   16.3320   67.6050 C.2   187  LEU187      0.2287
     12  O         44.4150   16.1650   68.4100 O.2   187  LEU187     -0.2864
     13  CB        46.7640   14.4320   66.5660 C.3   187  LEU187      0.0297
     14  CG        46.7960   13.5730   67.8260 C.3   187  LEU187      0.0022
     15  CD1       45.7200   12.5150   67.7770 C.3   187  LEU187      0.0001
     16  CD2       48.1520   12.9350   68.0190 C.3   187  LEU187      0.0001
     17  N         42.0630   18.0730   67.4440 N.3   190  ALA190     -0.1245
     18  CA        41.0510   17.1080   67.8430 C.3   190  ALA190      0.1562
     19  C         40.9840   16.9550   69.3950 C.2   190  ALA190      0.2260
     20  O         39.8810   16.8950   69.9220 O.2   190  ALA190     -0.2867
     21  CB        41.2660   15.7690   67.1900 C.3   190  ALA190      0.0290
     22  N         39.8100    8.6370   59.1760 N.3   425  THR425     -0.1218
     23  CA        40.4040    8.9570   60.4990 C.3   425  THR425      0.1862
     24  C         40.4340    7.6950   61.4350 C.2   425  THR425      0.2287
     25  O         41.4850    7.2040   61.8470 O.2   425  THR425     -0.2866
     26  CB        39.6480   10.1400   61.1440 C.3   425  THR425      0.1770
     27  OG1       39.9040   11.3270   60.3500 O.3   425  THR425     -0.2211
     28  CG2       40.0610   10.3580   62.5930 C.3   425  THR425      0.0375
     29  N         43.4780    5.1800   63.2440 N.3   429  VAL429     -0.1245
     30  CA        43.5590    4.7570   64.6850 C.3   429  VAL429      0.1561
     31  C         44.0870    3.3270   64.6560 C.2   429  VAL429      0.2260
     32  O         44.9250    2.9520   65.4830 O.2   429  VAL429     -0.2867
     33  CB        42.1710    4.8480   65.3710 C.3   429  VAL429      0.0252
     34  CG1       42.1220    4.1760   66.7120 C.3   429  VAL429      0.0019
     35  CG2       41.7190    6.3000   65.4630 C.3   429  VAL429      0.0019
     36  N         47.9200    3.4550   64.1650 N.3   432  ARG432     -0.1245
     37  CA        48.6640    4.0260   65.2820 C.3   432  ARG432      0.1563
     38  C         48.6780    3.0580   66.4130 C.2   432  ARG432      0.2260
     39  O         49.7200    2.8740   67.0150 O.2   432  ARG432     -0.2867
     40  CB        48.0140    5.3630   65.6700 C.3   432  ARG432      0.0307
     41  CG        48.4400    5.9870   66.9830 C.3   432  ARG432      0.0489
     42  CD        47.4990    7.1350   67.3640 C.3   432  ARG432      0.2205
     43  NE        48.0530    8.3510   66.7960 N.pl3 432  ARG432     -0.0865
     44  CZ        49.1300    9.0000   67.2680 C.cat 432  ARG432      0.5346
     45  NH1       49.7510    8.6180   68.4050 N.pl3 432  ARG432      0.1354
     46  NH2       49.5960   10.0640   66.5900 N.pl3 432  ARG432      0.1354
     47  N         41.6370    7.7030   71.0830 N.3   448  HIS448     -0.1241
     48  CA        41.6560    8.3290   69.7130 C.3   448  HIS448      0.1621
     49  C         40.2920    8.3010   69.0750 C.2   448  HIS448      0.2264
     50  O         39.8720    9.2740   68.5510 O.2   448  HIS448     -0.2867
     51  CB        42.7220    7.7040   68.8520 C.3   448  HIS448      0.0745
     52  CG        44.0770    8.2400   69.1480 C.ar  448  HIS448      0.0817
     53  ND1       44.8760    7.7410   70.1470 N.ar  448  HIS448     -0.2268
     54  CD2       44.7430    9.2930   68.6350 C.ar  448  HIS448      0.1154
     55  CE1       45.9980    8.4380   70.2000 C.ar  448  HIS448      0.1986
     56  NE2       45.9370    9.3880   69.2980 N.ar  448  HIS448     -0.2212
     57  N         38.1890   11.1370   70.1100 N.3   451  LEU451     -0.1231
     58  CA        38.5830   12.3170   69.2970 C.3   451  LEU451      0.1693
     59  C         37.8490   12.3860   67.9480 C.2   451  LEU451      0.2591
     60  O         37.3010   13.3990   67.5890 O.2   451  LEU451     -0.2718
     61  CB        40.1170   12.3950   69.0750 C.3   451  LEU451      0.0284
     62  CG        41.0200   12.3980   70.3240 C.3   451  LEU451      0.0019
     63  CD1       42.4720   12.4000   69.8910 C.3   451  LEU451      0.0001
     64  CD2       40.7040   13.5590   71.2210 C.3   451  LEU451      0.0001
     65  N         37.7930   11.2610   67.2680 N.am  452  ALA452     -0.1980
     66  CA        37.0680   11.0870   66.0120 C.3   452  ALA452      0.1597
     67  C         35.5480   11.1740   66.1120 C.2   452  ALA452      0.2287
     68  O         34.8980   11.7350   65.1970 O.2   452  ALA452     -0.2864
     69  CB        37.4510    9.7520   65.4530 C.3   452  ALA452      0.0319
     70  N         34.6470   14.8070   66.6130 N.3   455  ARG455     -0.1245
     71  CA        34.7220   15.4400   65.2870 C.3   455  ARG455      0.1563
     72  C         33.3710   15.2270   64.5690 C.2   455  ARG455      0.2260
     73  O         32.6680   16.1680   64.2020 O.2   455  ARG455     -0.2867
     74  CB        35.8820   14.8080   64.5340 C.3   455  ARG455      0.0307
     75  CG        36.1460   15.2650   63.0880 C.3   455  ARG455      0.0489
     76  CD        35.9970   16.7780   62.9570 C.3   455  ARG455      0.2205
     77  NE        36.5450   17.2550   61.6960 N.pl3 455  ARG455     -0.0865
     78  CZ        36.6340   18.5350   61.3200 C.cat 455  ARG455      0.5346
     79  NH1       36.2590   19.5220   62.1400 N.pl3 455  ARG455      0.1354
     80  NH2       37.1430   18.8180   60.1350 N.pl3 455  ARG455      0.1354
@<TRIPOS>BOND
     1    22    23    1
     2     7     6    1
     3    80    78    1
     4    27    26    1
     5    23    26    1
     6    23    24    1
     7     8     6    1
     8     6     5    1
     9    26    28    1
    10    78    77    2
    11    78    79    1
    12    24    25    2
    13    77    76    1
    14     5     2    1
    15    76    75    1
    16    75    74    1
    17    29    30    1
    18     2     1    1
    19     2     3    1
    20    36    37    1
    21    73    72    2
    22    74    71    1
    23    72    71    1
    24     3     4    2
    25     3     9   am
    26    31    30    1
    27    31    32    2
    28    30    33    1
    29     9    10    1
    30    68    67    2
    31    37    40    1
    32    37    38    1
    33    71    70    1
    34    33    35    1
    35    33    34    1
    36    69    66    1
    37    40    41    1
    38    66    67    1
    39    66    65    1
    40    10    13    1
    41    10    11    1
    42    38    39    2
    43    13    14    1
    44    46    44    1
    45    43    44    2
    46    43    42    1
    47    41    42    1
    48    21    18    1
    49    44    45    1
    50    65    59   am
    51    17    18    1
    52    60    59    2
    53    11    12    2
    54    15    14    1
    55    14    16    1
    56    18    19    1
    57    59    58    1
    58    50    49    2
    59    54    52   ar
    60    54    56   ar
    61    51    52    1
    62    51    48    1
    63    61    58    1
    64    61    62    1
    65    49    48    1
    66    52    53   ar
    67    58    57    1
    68    56    55   ar
    69    19    20    2
    70    48    47    1
    71    63    62    1
    72    53    55   ar
    73    62    64    1
