@<TRIPOS>MOLECULE
tmp/5dc7A00.pdb
 215 212 0 0 0
SMALL
GASTEIGER

@<TRIPOS>ATOM
      1  N        -17.7290   -2.9480   -4.6440 N.3    21  LYS21      -0.1245
      2  CA       -17.6940   -2.3130   -3.3330 C.3    21  LYS21       0.1561
      3  C        -16.5170   -1.3470   -3.1830 C.2    21  LYS21       0.2260
      4  O        -16.4700   -0.5540   -2.2420 O.2    21  LYS21      -0.2867
      5  CB       -17.6470   -3.3820   -2.2400 C.3    21  LYS21       0.0271
      6  CG       -18.9950   -3.7180   -1.6080 C.3    21  LYS21       0.0035
      7  CD       -20.1200   -3.8010   -2.6240 C.3    21  LYS21       0.0206
      8  CE       -21.3960   -4.3200   -1.9800 C.3    21  LYS21       0.1093
      9  NZ       -22.5920   -4.1240   -2.8400 N.3    21  LYS21      -0.1314
     10  N        -27.8830  -17.3190   -4.6740 N.3    82  ILE82      -0.1231
     11  CA       -27.9210  -17.1760   -3.2250 C.3    82  ILE82       0.1692
     12  C        -27.2580  -18.3680   -2.5240 C.2    82  ILE82       0.2591
     13  O        -26.6550  -18.2120   -1.4600 O.2    82  ILE82      -0.2718
     14  CB       -29.3720  -16.9940   -2.7200 C.3    82  ILE82       0.0266
     15  CG1      -29.3810  -16.6140   -1.2410 C.3    82  ILE82       0.0019
     16  CG2      -30.2100  -18.2430   -2.9670 C.3    82  ILE82       0.0020
     17  CD1      -30.7450  -16.2470   -0.7290 C.3    82  ILE82       0.0001
     18  N        -27.3490  -19.5470   -3.1340 N.am   83  GLU83      -0.1979
     19  CA       -26.7010  -20.7470   -2.6100 C.3    83  GLU83       0.1602
     20  C        -25.1850  -20.5900   -2.5870 C.2    83  GLU83       0.2287
     21  O        -24.5110  -21.0770   -1.6810 O.2    83  GLU83      -0.2864
     22  CB       -27.0790  -21.9650   -3.4500 C.3    83  GLU83       0.0415
     23  CG       -26.3020  -23.2180   -3.1020 C.3    83  GLU83       0.1163
     24  CD       -26.4470  -24.2970   -4.1560 C.2    83  GLU83       0.3649
     25  OE1      -27.0380  -24.0080   -5.2190 O.co2  83  GLU83      -0.2457
     26  OE2      -25.9680  -25.4300   -3.9240 O.co2  83  GLU83      -0.2457
     27  N        -23.6540  -17.7600   -2.3070 N.3    85  GLY85      -0.1225
     28  CA       -23.3140  -16.5580   -1.5680 C.3    85  GLY85       0.1811
     29  C        -23.2600  -15.2760   -2.3780 C.2    85  GLY85       0.2280
     30  O        -22.7680  -14.2560   -1.8920 O.2    85  GLY85      -0.2866
     31  N        -26.1590   -9.2990   -2.3530 N.3    88  TYR88      -0.1227
     32  CA       -25.8910   -7.9150   -1.9810 C.3    88  TYR88       0.1736
     33  C        -24.4010   -7.6300   -1.7670 C.2    88  TYR88       0.2595
     34  O        -23.8340   -6.7450   -2.4090 O.2    88  TYR88      -0.2718
     35  CB       -26.6760   -7.5510   -0.7220 C.3    88  TYR88       0.0548
     36  CG       -26.4690   -6.1230   -0.2830 C.ar   88  TYR88      -0.0200
     37  CD1      -26.6600   -5.0720   -1.1680 C.ar   88  TYR88      -0.0009
     38  CD2      -26.0900   -5.8240    1.0170 C.ar   88  TYR88      -0.0009
     39  CE1      -26.4740   -3.7640   -0.7730 C.ar   88  TYR88       0.0417
     40  CE2      -25.9000   -4.5180    1.4210 C.ar   88  TYR88       0.0417
     41  CZ       -26.0940   -3.4940    0.5230 C.ar   88  TYR88       0.1957
     42  OH       -25.9100   -2.1940    0.9270 O.3    88  TYR88      -0.2866
     43  N        -23.7770   -8.3690   -0.8570 N.am   89  ASP89      -0.1974
     44  CA       -22.3510   -8.2030   -0.5830 C.3    89  ASP89       0.1709
     45  C        -21.5020   -8.5460   -1.7970 C.2    89  ASP89       0.2293
     46  O        -20.5070   -7.8780   -2.0810 O.2    89  ASP89      -0.2864
     47  CB       -21.9160   -9.0760    0.5960 C.3    89  ASP89       0.1436
     48  CG       -22.2620   -8.4650    1.9330 C.2    89  ASP89       0.3671
     49  OD1      -22.4800   -7.2340    1.9890 O.co2  89  ASP89      -0.2456
     50  OD2      -22.3050   -9.2180    2.9300 O.co2  89  ASP89      -0.2456
     51  N         -6.1880  -10.1660   -0.8390 N.3   128  GLY128     -0.1210
     52  CA        -6.5290  -10.1950    0.5710 C.3   128  GLY128      0.1956
     53  C         -8.0030  -10.4300    0.8260 C.2   128  GLY128      0.2612
     54  O         -8.5250  -10.0490    1.8750 O.2   128  GLY128     -0.2717
     55  N         -8.6720  -11.0690   -0.1310 N.am  129  TRP129     -0.1962
     56  CA       -10.1120  -11.2950   -0.0410 C.3   129  TRP129      0.1771
     57  C        -10.3790  -12.6100    0.6730 C.2   129  TRP129      0.2620
     58  O        -10.7340  -13.6240    0.0650 O.2   129  TRP129     -0.2715
     59  CB       -10.7370  -11.2520   -1.4360 C.3   129  TRP129      0.0590
     60  CG       -10.4320   -9.9360   -2.0890 C.ar  129  TRP129      0.0006
     61  CD1       -9.5570   -9.7100   -3.1080 C.ar  129  TRP129      0.0946
     62  CD2      -10.9460   -8.6540   -1.7100 C.ar  129  TRP129      0.0152
     63  NE1       -9.5140   -8.3690   -3.4070 N.ar  129  TRP129     -0.2442
     64  CE2      -10.3590   -7.6990   -2.5640 C.ar  129  TRP129      0.0810
     65  CE3      -11.8570   -8.2220   -0.7400 C.ar  129  TRP129      0.0012
     66  CZ2      -10.6520   -6.3420   -2.4790 C.ar  129  TRP129      0.0191
     67  CZ3      -12.1460   -6.8710   -0.6550 C.ar  129  TRP129      0.0001
     68  CH2      -11.5450   -5.9470   -1.5210 C.ar  129  TRP129      0.0015
     69  N        -10.2140  -12.5650    1.9900 N.am  130  HIS130     -0.1959
     70  CA       -10.0410  -13.7740    2.7780 C.3   130  HIS130      0.1787
     71  C        -11.3300  -14.3440    3.3500 C.2   130  HIS130      0.2620
     72  O        -11.2840  -15.2230    4.2100 O.2   130  HIS130     -0.2715
     73  CB        -9.0460  -13.5030    3.9130 C.3   130  HIS130      0.0785
     74  CG        -9.4780  -12.4330    4.8670 C.ar  130  HIS130      0.0821
     75  ND1       -8.7070  -12.0440    5.9420 N.ar  130  HIS130     -0.2267
     76  CD2      -10.5980  -11.6730    4.9130 C.ar  130  HIS130      0.1154
     77  CE1       -9.3330  -11.0890    6.6070 C.ar  130  HIS130      0.1986
     78  NE2      -10.4830  -10.8470    6.0060 N.ar  130  HIS130     -0.2212
     79  N        -12.4750  -13.8580    2.8710 N.am  131  HIS131     -0.1973
     80  CA       -13.7650  -14.3260    3.3750 C.3   131  HIS131      0.1656
     81  C        -14.3520  -15.4660    2.5470 C.2   131  HIS131      0.2291
     82  O        -15.1080  -16.2850    3.0680 O.2   131  HIS131     -0.2864
     83  CB       -14.7740  -13.1770    3.4300 C.3   131  HIS131      0.0771
     84  CG       -14.4190  -12.1050    4.4120 C.ar  131  HIS131      0.0820
     85  ND1      -14.2020  -12.3610    5.7480 N.ar  131  HIS131     -0.2267
     86  CD2      -14.2530  -10.7700    4.2530 C.ar  131  HIS131      0.1154
     87  CE1      -13.9140  -11.2320    6.3700 C.ar  131  HIS131      0.1986
     88  NE2      -13.9380  -10.2510    5.4850 N.ar  131  HIS131     -0.2212
     89  N        -18.7010  -20.7940   -1.7340 N.3   136  GLU136     -0.1245
     90  CA       -19.5340  -19.5980   -1.7310 C.3   136  GLU136      0.1567
     91  C        -18.7330  -18.3080   -1.6350 C.2   136  GLU136      0.2260
     92  O        -17.7310  -18.2270   -0.9210 O.2   136  GLU136     -0.2867
     93  CB       -20.5620  -19.6530   -0.5910 C.3   136  GLU136      0.0388
     94  CG       -19.9840  -19.6740    0.8090 C.3   136  GLU136      0.1160
     95  CD       -21.0650  -19.6390    1.8770 C.2   136  GLU136      0.3649
     96  OE1      -21.7350  -18.5930    2.0150 O.co2 136  GLU136     -0.2457
     97  OE2      -21.2500  -20.6580    2.5750 O.co2 136  GLU136     -0.2457
     98  N        -18.5470  -11.6010    1.7900 N.3   139  GLY139     -0.1210
     99  CA       -17.9040  -10.3790    2.2440 C.3   139  GLY139      0.1956
    100  C        -17.0520   -9.6750    1.2050 C.2   139  GLY139      0.2612
    101  O        -15.9040   -9.3160    1.4790 O.2   139  GLY139     -0.2717
    102  N        -17.6250   -9.4920    0.0160 N.am  140  PHE140     -0.1962
    103  CA       -16.9850   -8.8130   -1.1180 C.3   140  PHE140      0.1771
    104  C        -15.9020   -9.6950   -1.7420 C.2   140  PHE140      0.2619
    105  O        -15.1640   -9.2490   -2.6180 O.2   140  PHE140     -0.2715
    106  CB       -16.3740   -7.4520   -0.7210 C.3   140  PHE140      0.0574
    107  CG       -17.2470   -6.6060    0.1850 C.ar  140  PHE140     -0.0200
    108  CD1      -16.6730   -5.6470    1.0030 C.ar  140  PHE140     -0.0042
    109  CD2      -18.6270   -6.7530    0.2120 C.ar  140  PHE140     -0.0042
    110  CE1      -17.4560   -4.8580    1.8350 C.ar  140  PHE140     -0.0003
    111  CE2      -19.4140   -5.9750    1.0480 C.ar  140  PHE140     -0.0003
    112  CZ       -18.8300   -5.0250    1.8580 C.ar  140  PHE140     -0.0000
    113  N        -15.8130  -10.9440   -1.2920 N.am  141  CYS141     -0.1968
    114  CA       -14.8180  -11.8810   -1.8100 C.3   141  CYS141      0.1712
    115  C        -15.4720  -12.9450   -2.6810 C.2   141  CYS141      0.2296
    116  O        -16.4560  -13.5600   -2.2780 O.2   141  CYS141     -0.2864
    117  CB       -14.0560  -12.5510   -0.6640 C.3   141  CYS141      0.0983
    118  SG       -13.5660  -11.4220    0.6600 S.3   141  CYS141     -0.0798
    119  N         -7.1870   -7.2000    9.1940 N.3   166  ASP166     -0.1239
    120  CA        -8.4340   -6.6480    8.6950 C.3   166  ASP166      0.1674
    121  C         -9.4280   -6.4330    9.8330 C.2   166  ASP166      0.2266
    122  O         -9.3380   -7.0810   10.8750 O.2   166  ASP166     -0.2867
    123  CB        -9.0280   -7.5780    7.6410 C.3   166  ASP166      0.1410
    124  CG       -10.0220   -6.8810    6.7510 C.2   166  ASP166      0.3668
    125  OD1       -9.6470   -6.4970    5.6230 O.co2 166  ASP166     -0.2456
    126  OD2      -11.1780   -6.7130    7.1840 O.co2 166  ASP166     -0.2456
    127  N        -12.4190   -7.2890    9.7210 N.3   168  HIS168     -0.1241
    128  CA       -13.2590   -8.4730    9.7320 C.3   168  HIS168      0.1621
    129  C        -12.4320   -9.7450    9.8530 C.2   168  HIS168      0.2264
    130  O        -11.3570   -9.8590    9.2680 O.2   168  HIS168     -0.2867
    131  CB       -14.1230   -8.5140    8.4730 C.3   168  HIS168      0.0745
    132  CG       -14.9970   -7.3110    8.3120 C.ar  168  HIS168      0.0817
    133  ND1      -14.5870   -6.1780    7.6470 N.ar  168  HIS168     -0.2268
    134  CD2      -16.2530   -7.0550    8.7500 C.ar  168  HIS168      0.1154
    135  CE1      -15.5550   -5.2800    7.6690 C.ar  168  HIS168      0.1986
    136  NE2      -16.5770   -5.7860    8.3340 N.ar  168  HIS168     -0.2212
    137  N        -23.5730   -9.7400   15.4800 N.3   194  GLY194     -0.1210
    138  CA       -24.1990   -8.9680   14.4290 C.3   194  GLY194      0.1956
    139  C        -23.1800   -8.3020   13.5280 C.2   194  GLY194      0.2612
    140  O        -23.5410   -7.7310   12.5000 O.2   194  GLY194     -0.2717
    141  N        -21.9080   -8.3620   13.9130 N.am  195  PHE195     -0.1962
    142  CA       -20.8480   -7.8020   13.0840 C.3   195  PHE195      0.1771
    143  C        -20.1770   -8.8840   12.2360 C.2   195  PHE195      0.2620
    144  O        -19.7560   -9.9230   12.7450 O.2   195  PHE195     -0.2715
    145  CB       -19.8050   -7.0770   13.9380 C.3   195  PHE195      0.0574
    146  CG       -18.7900   -6.3240   13.1300 C.ar  195  PHE195     -0.0200
    147  CD1      -19.0670   -5.0510   12.6620 C.ar  195  PHE195     -0.0042
    148  CD2      -17.5670   -6.8980   12.8200 C.ar  195  PHE195     -0.0042
    149  CE1      -18.1390   -4.3610   11.9110 C.ar  195  PHE195     -0.0003
    150  CE2      -16.6370   -6.2130   12.0690 C.ar  195  PHE195     -0.0003
    151  CZ       -16.9240   -4.9430   11.6140 C.ar  195  PHE195     -0.0000
    152  N        -20.0830   -8.6160   10.9380 N.am  196  PHE196     -0.1960
    153  CA       -19.5990   -9.5790    9.9570 C.3   196  PHE196      0.1756
    154  C        -18.1770  -10.0460   10.2570 C.2   196  PHE196      0.2461
    155  O        -17.3210   -9.2380   10.6120 O.2   196  PHE196     -0.2730
    156  CB       -19.6690   -8.9540    8.5590 C.3   196  PHE196      0.0574
    157  CG       -19.2450   -9.8760    7.4550 C.ar  196  PHE196     -0.0200
    158  CD1      -20.1770  -10.6620    6.8040 C.ar  196  PHE196     -0.0042
    159  CD2      -17.9180   -9.9500    7.0610 C.ar  196  PHE196     -0.0042
    160  CE1      -19.7970  -11.5100    5.7850 C.ar  196  PHE196     -0.0003
    161  CE2      -17.5330  -10.7920    6.0430 C.ar  196  PHE196     -0.0003
    162  CZ       -18.4740  -11.5750    5.4060 C.ar  196  PHE196     -0.0000
    163  N        -17.9140  -11.3530   10.1060 N.am  197  PRO197     -0.2716
    164  CA       -18.8640  -12.4010    9.7180 C.3   197  PRO197      0.1536
    165  C        -19.5080  -13.1250   10.9030 C.2   197  PRO197      0.2599
    166  O        -20.2460  -14.0900   10.6990 O.2   197  PRO197     -0.2715
    167  CB       -17.9950  -13.3620    8.9080 C.3   197  PRO197      0.0310
    168  CG       -16.6470  -13.2440    9.5320 C.3   197  PRO197      0.0237
    169  CD       -16.5220  -11.8380   10.0770 C.3   197  PRO197      0.0939
    170  N        -19.2300  -12.6670   12.1190 N.am  198  GLY198     -0.1941
    171  CA       -19.8800  -13.2030   13.3030 C.3   198  GLY198      0.2014
    172  C        -19.0660  -14.2810   13.9880 C.2   198  GLY198      0.2639
    173  O        -19.4460  -14.7990   15.0340 O.2   198  GLY198     -0.2714
    174  N        -17.9290  -14.6100   13.3930 N.am  199  THR199     -0.1950
    175  CA       -17.0770  -15.6710   13.8960 C.3   199  THR199      0.1897
    176  C        -15.7440  -15.1330   14.4070 C.2   199  THR199      0.2313
    177  O        -15.4700  -13.9350   14.3200 O.2   199  THR199     -0.2863
    178  CB       -16.8120  -16.7090   12.8050 C.3   199  THR199      0.1794
    179  OG1      -16.2780  -16.0460   11.6500 O.3   199  THR199     -0.2208
    180  CG2      -18.1050  -17.4080   12.4240 C.3   199  THR199      0.0378
    181  N         -9.7490   -1.0540    6.6850 N.3   255  ASP255     -0.1239
    182  CA       -11.0520   -0.6960    7.2360 C.3   255  ASP255      0.1674
    183  C        -11.0080   -0.5260    8.7510 C.2   255  ASP255      0.2266
    184  O        -12.0430   -0.3790    9.4020 O.2   255  ASP255     -0.2867
    185  CB       -12.1100   -1.7380    6.8620 C.3   255  ASP255      0.1410
    186  CG       -11.5600   -3.1500    6.8120 C.2   255  ASP255      0.3668
    187  OD1      -10.5090   -3.4320    7.4260 O.co2 255  ASP255     -0.2456
    188  OD2      -12.1920   -3.9850    6.1430 O.co2 255  ASP255     -0.2456
    189  N        -17.1710    2.5050    8.0810 N.3   262  MET262     -0.1245
    190  CA       -17.5750    1.4750    9.0290 C.3   262  MET262      0.1570
    191  C        -17.3820    1.9470   10.4620 C.2   262  MET262      0.2261
    192  O        -18.0560    1.4670   11.3710 O.2   262  MET262     -0.2867
    193  CB       -16.8100    0.1790    8.7710 C.3   262  MET262      0.0387
    194  CG       -17.1960   -0.4470    7.4420 C.3   262  MET262      0.0595
    195  SD       -16.7700   -2.1840    7.2970 S.3   262  MET262     -0.1393
    196  CE       -17.6960   -2.6270    5.8260 C.3   262  MET262      0.0692
    197  N         -7.0650   -5.7060    1.2580 N.3   291  GLY291     -0.1210
    198  CA        -8.3140   -6.2060    1.8020 C.3   291  GLY291      0.1956
    199  C         -9.3760   -5.1250    1.8380 C.2   291  GLY291      0.2612
    200  O         -9.5290   -4.3610    0.8850 O.2   291  GLY291     -0.2717
    201  N        -10.1140   -5.0600    2.9410 N.am  292  GLY292     -0.1956
    202  CA       -11.1120   -4.0240    3.1210 C.3   292  GLY292      0.1869
    203  C        -10.4880   -2.6470    3.2310 C.2   292  GLY292      0.2309
    204  O         -9.2730   -2.5120    3.3590 O.2   292  GLY292     -0.2863
    205  N        -12.7200    1.3090    2.9050 N.3   294  PHE294     -0.1241
    206  CA       -13.8460    1.8810    2.1810 C.3   294  PHE294      0.1605
    207  C        -13.9040    3.3990    2.3150 C.2   294  PHE294      0.2264
    208  O        -14.8700    4.0330    1.9010 O.2   294  PHE294     -0.2867
    209  CB       -15.1370    1.2220    2.6600 C.3   294  PHE294      0.0534
    210  CG       -15.0380   -0.2740    2.7240 C.ar  294  PHE294     -0.0203
    211  CD1      -15.1270   -1.0340    1.5680 C.ar  294  PHE294     -0.0042
    212  CD2      -14.8000   -0.9170    3.9300 C.ar  294  PHE294     -0.0042
    213  CE1      -15.0050   -2.4100    1.6180 C.ar  294  PHE294     -0.0003
    214  CE2      -14.6810   -2.2920    3.9850 C.ar  294  PHE294     -0.0003
    215  CZ       -14.7860   -3.0410    2.8300 C.ar  294  PHE294     -0.0000
@<TRIPOS>BOND
     1    25    24   ar
     2    10    11    1
     3     1     2    1
     4    24    26   ar
     5    24    23    1
     6    22    23    1
     7    22    19    1
     8    63    61   ar
     9    63    64   ar
    10     2     3    1
    11     2     5    1
    12    11    14    1
    13    11    12    1
    14     3     4    2
    15    18    19    1
    16    18    12   am
    17    61    60   ar
    18    16    14    1
    19     9     8    1
    20    14    15    1
    21   115   116    2
    22   115   114    1
    23     7     8    1
    24     7     6    1
    25   105   104    2
    26    19    20    1
    27    20    21    2
    28    64    66   ar
    29    64    62   ar
    30    12    13    2
    31    66    68   ar
    32    34    33    2
    33    29    30    2
    34    29    28    1
    35    31    32    1
    36    27    28    1
    37     5     6    1
    38    60    62   ar
    39    60    59    1
    40    46    45    2
    41    32    33    1
    42    32    35    1
    43   114   113    1
    44   114   117    1
    45    45    44    1
    46    33    43   am
    47   104   113   am
    48   104   103    1
    49    89    90    1
    50    90    91    1
    51    90    93    1
    52    62    65   ar
    53    91    92    2
    54    68    67   ar
    55    59    56    1
    56    15    17    1
    57    37    39   ar
    58    37    36   ar
    59   103   106    1
    60   103   102    1
    61    43    44    1
    62    51    52    1
    63    39    41   ar
    64    65    67   ar
    65    35    36    1
    66   106   107    1
    67   117   118    1
    68    93    94    1
    69    44    47    1
    70    36    38   ar
    71    55    56    1
    72    55    53   am
    73    56    57    1
    74   102   100   am
    75    58    57    2
    76   107   109   ar
    77   107   108   ar
    78   109   111   ar
    79    41    42    1
    80    41    40   ar
    81    52    53    1
    82    47    48    1
    83    57    69   am
    84    94    95    1
    85    53    54    2
    86   200   199    2
    87   108   110   ar
    88    38    40   ar
    89   111   112   ar
    90   100   101    2
    91   100    99    1
    92   197   198    1
    93   211   213   ar
    94   211   210   ar
    95   213   215   ar
    96    98    99    1
    97   198   199    1
    98   110   112   ar
    99   199   201   am
   100    95    96   ar
   101    95    97   ar
   102   208   207    2
   103    48    49   ar
   104    48    50   ar
   105    69    70    1
   106   206   207    1
   107   206   209    1
   108   206   205    1
   109    81    82    2
   110    81    80    1
   111   209   210    1
   112   210   212   ar
   113    70    71    1
   114    70    73    1
   115   215   214   ar
   116    79    71   am
   117    79    80    1
   118   201   202    1
   119   202   203    1
   120   203   204    2
   121    71    72    2
   122    80    83    1
   123    83    84    1
   124    73    74    1
   125   212   214   ar
   126    86    84   ar
   127    86    88   ar
   128    84    85   ar
   129    74    76   ar
   130    74    75   ar
   131    76    78   ar
   132   162   160   ar
   133   162   161   ar
   134    88    87   ar
   135   125   124   ar
   136    85    87   ar
   137   160   158   ar
   138   196   195    1
   139    75    77   ar
   140    78    77   ar
   141   161   159   ar
   142   188   186   ar
   143   181   182    1
   144   124   126   ar
   145   124   123    1
   146   158   157   ar
   147   186   185    1
   148   186   187   ar
   149   185   182    1
   150   159   157   ar
   151   182   183    1
   152   195   194    1
   153   194   193    1
   154   157   156    1
   155   123   120    1
   156   133   135   ar
   157   133   132   ar
   158   135   136   ar
   159   189   190    1
   160   132   131    1
   161   132   134   ar
   162   136   134   ar
   163   131   128    1
   164   156   153    1
   165   120   119    1
   166   120   121    1
   167   183   184    2
   168   193   190    1
   169   167   168    1
   170   167   164    1
   171   190   191    1
   172   130   129    2
   173   168   169    1
   174   164   163    1
   175   164   165    1
   176   127   128    1
   177   128   129    1
   178   121   122    2
   179   153   154    1
   180   153   152    1
   181   169   163    1
   182   163   154   am
   183   154   155    2
   184   191   192    2
   185   166   165    2
   186   165   170   am
   187   152   143   am
   188   151   149   ar
   189   151   150   ar
   190   179   178    1
   191   149   147   ar
   192   150   148   ar
   193   170   171    1
   194   143   144    2
   195   143   142    1
   196   180   178    1
   197   140   139    2
   198   147   146   ar
   199   178   175    1
   200   148   146   ar
   201   142   141    1
   202   142   145    1
   203   146   145    1
   204   171   172    1
   205   174   175    1
   206   174   172   am
   207   139   141   am
   208   139   138    1
   209   175   176    1
   210   172   173    2
   211   177   176    2
   212   138   137    1
