@<TRIPOS>MOLECULE
tmp/5dc7A01.pdb
 107 102 0 0 0
SMALL
GASTEIGER

@<TRIPOS>ATOM
      1  N        -17.3010   -4.0300   -7.2200 N.3    20  ALA20      -0.1231
      2  CA       -18.4980   -3.2430   -6.9330 C.3    20  ALA20       0.1694
      3  C        -18.4000   -2.4090   -5.6570 C.2    20  ALA20       0.2591
      4  O        -18.9250   -1.2960   -5.5940 O.2    20  ALA20      -0.2718
      5  CB       -19.7090   -4.1630   -6.8580 C.3    20  ALA20       0.0304
      6  N        -17.7290   -2.9480   -4.6440 N.am   21  LYS21      -0.1980
      7  CA       -17.6940   -2.3130   -3.3330 C.3    21  LYS21       0.1596
      8  C        -16.5170   -1.3470   -3.1830 C.2    21  LYS21       0.2287
      9  O        -16.4700   -0.5540   -2.2420 O.2    21  LYS21      -0.2864
     10  CB       -17.6470   -3.3820   -2.2400 C.3    21  LYS21       0.0298
     11  CG       -18.9950   -3.7180   -1.6080 C.3    21  LYS21       0.0038
     12  CD       -20.1200   -3.8010   -2.6240 C.3    21  LYS21       0.0206
     13  CE       -21.3960   -4.3200   -1.9800 C.3    21  LYS21       0.1093
     14  NZ       -22.5920   -4.1240   -2.8400 N.3    21  LYS21      -0.1314
     15  N        -14.9310    0.7570   -6.0810 N.3    23  PRO23      -0.2116
     16  CA       -14.6030    1.2940   -7.4070 C.3    23  PRO23       0.1372
     17  C        -13.4520    2.2980   -7.3610 C.2    23  PRO23       0.2244
     18  O        -13.4080    3.1310   -6.4550 O.2    23  PRO23      -0.2868
     19  CB       -15.9040    1.9830   -7.8420 C.3    23  PRO23       0.0268
     20  CG       -16.9660    1.4440   -6.9300 C.3    23  PRO23       0.0207
     21  CD       -16.2740    1.1720   -5.6420 C.3    23  PRO23       0.0892
     22  N         -6.3230    4.4920   -7.3720 N.3    28  MET28      -0.1245
     23  CA        -5.9250    5.4840   -6.3760 C.3    28  MET28       0.1570
     24  C         -4.7400    5.0060   -5.5540 C.2    28  MET28       0.2261
     25  O         -3.8350    5.7840   -5.2400 O.2    28  MET28      -0.2867
     26  CB        -7.0890    5.8130   -5.4460 C.3    28  MET28       0.0387
     27  CG        -8.3090    6.3710   -6.1430 C.3    28  MET28       0.0595
     28  SD        -9.5850    6.8380   -4.9630 S.3    28  MET28      -0.1393
     29  CE        -8.6970    8.0610   -4.0010 C.3    28  MET28       0.0692
     30  N        -17.6250   -9.4920    0.0160 N.3   140  PHE140     -0.1241
     31  CA       -16.9850   -8.8130   -1.1180 C.3   140  PHE140      0.1605
     32  C        -15.9020   -9.6950   -1.7420 C.2   140  PHE140      0.2264
     33  O        -15.1640   -9.2490   -2.6180 O.2   140  PHE140     -0.2867
     34  CB       -16.3740   -7.4520   -0.7210 C.3   140  PHE140      0.0534
     35  CG       -17.2470   -6.6060    0.1850 C.ar  140  PHE140     -0.0203
     36  CD1      -16.6730   -5.6470    1.0030 C.ar  140  PHE140     -0.0042
     37  CD2      -18.6270   -6.7530    0.2120 C.ar  140  PHE140     -0.0042
     38  CE1      -17.4560   -4.8580    1.8350 C.ar  140  PHE140     -0.0003
     39  CE2      -19.4140   -5.9750    1.0480 C.ar  140  PHE140     -0.0003
     40  CZ       -18.8300   -5.0250    1.8580 C.ar  140  PHE140     -0.0000
     41  N        -11.7690    7.2300    9.9720 N.3   259  GLY259     -0.1225
     42  CA       -12.3110    7.8400    8.7710 C.3   259  GLY259      0.1811
     43  C        -12.9710    6.8470    7.8310 C.2   259  GLY259      0.2280
     44  O        -13.6090    7.2370    6.8540 O.2   259  GLY259     -0.2866
     45  N        -15.9000    4.5600    6.7160 N.3   261  PRO261     -0.2102
     46  CA       -17.3390    4.6740    6.9700 C.3   261  PRO261      0.1504
     47  C        -17.8580    3.6390    7.9650 C.2   261  PRO261      0.2575
     48  O        -18.8730    3.8820    8.6200 O.2   261  PRO261     -0.2718
     49  CB       -17.9570    4.4580    5.5850 C.3   261  PRO261      0.0282
     50  CG       -16.8780    3.8190    4.7650 C.3   261  PRO261      0.0208
     51  CD       -15.6070    4.3880    5.2840 C.3   261  PRO261      0.0893
     52  N        -17.1710    2.5050    8.0810 N.am  262  MET262     -0.1980
     53  CA       -17.5750    1.4750    9.0290 C.3   262  MET262      0.1605
     54  C        -17.3820    1.9470   10.4620 C.2   262  MET262      0.2287
     55  O        -18.0560    1.4670   11.3710 O.2   262  MET262     -0.2864
     56  CB       -16.8100    0.1790    8.7710 C.3   262  MET262      0.0413
     57  CG       -17.1960   -0.4470    7.4420 C.3   262  MET262      0.0598
     58  SD       -16.7700   -2.1840    7.2970 S.3   262  MET262     -0.1393
     59  CE       -17.6960   -2.6270    5.8260 C.3   262  MET262      0.0692
     60  N        -12.7200    1.3090    2.9050 N.3   294  PHE294     -0.1227
     61  CA       -13.8460    1.8810    2.1810 C.3   294  PHE294      0.1736
     62  C        -13.9040    3.3990    2.3150 C.2   294  PHE294      0.2595
     63  O        -14.8700    4.0330    1.9010 O.2   294  PHE294     -0.2718
     64  CB       -15.1370    1.2220    2.6600 C.3   294  PHE294      0.0547
     65  CG       -15.0380   -0.2740    2.7240 C.ar  294  PHE294     -0.0202
     66  CD1      -15.1270   -1.0340    1.5680 C.ar  294  PHE294     -0.0042
     67  CD2      -14.8000   -0.9170    3.9300 C.ar  294  PHE294     -0.0042
     68  CE1      -15.0050   -2.4100    1.6180 C.ar  294  PHE294     -0.0003
     69  CE2      -14.6810   -2.2920    3.9850 C.ar  294  PHE294     -0.0003
     70  CZ       -14.7860   -3.0410    2.8300 C.ar  294  PHE294     -0.0000
     71  N        -12.8670    3.9610    2.9250 N.am  295  ASN295     -0.1960
     72  CA       -12.4820    5.3440    2.6870 C.3   295  ASN295      0.1819
     73  C        -11.3100    5.2460    1.7290 C.2   295  ASN295      0.2621
     74  O        -10.2170    4.8520    2.1230 O.2   295  ASN295     -0.2715
     75  CB       -12.1060    6.0650    3.9840 C.3   295  ASN295      0.1195
     76  CG       -11.8570    7.5590    3.7850 C.2   295  ASN295      0.2630
     77  OD1      -11.1580    7.9760    2.8610 O.2   295  ASN295     -0.2716
     78  ND2      -12.4280    8.3690    4.6650 N.am  295  ASN295     -0.0877
     79  N        -11.5480    5.5660    0.4630 N.am  296  LEU296     -0.1963
     80  CA       -10.6050    5.2130   -0.5940 C.3   296  LEU296      0.1728
     81  C         -9.2960    5.9800   -0.4920 C.2   296  LEU296      0.2616
     82  O         -8.2210    5.3950   -0.6320 O.2   296  LEU296     -0.2715
     83  CB       -11.2370    5.4410   -1.9670 C.3   296  LEU296      0.0311
     84  CG       -12.5600    4.7110   -2.2040 C.3   296  LEU296      0.0022
     85  CD1      -12.9030    4.6880   -3.6910 C.3   296  LEU296      0.0001
     86  CD2      -12.5290    3.2950   -1.6270 C.3   296  LEU296      0.0001
     87  N         -9.3920    7.2810   -0.2420 N.am  297  ALA297     -0.1977
     88  CA        -8.2100    8.1210   -0.0810 C.3   297  ALA297      0.1597
     89  C         -7.3790    7.6520    1.1050 C.2   297  ALA297      0.2287
     90  O         -6.1570    7.5260    1.0090 O.2   297  ALA297     -0.2864
     91  CB        -8.6100    9.5790    0.0920 C.3   297  ALA297      0.0319
     92  N         -3.7250    6.2450    1.3730 N.3   301  ARG301     -0.1245
     93  CA        -2.7780    6.8380    2.3150 C.3   301  ARG301      0.1563
     94  C         -2.1040    5.7560    3.1450 C.2   301  ARG301      0.2260
     95  O         -0.9010    5.8050    3.4010 O.2   301  ARG301     -0.2867
     96  CB        -3.4670    7.8350    3.2530 C.3   301  ARG301      0.0307
     97  CG        -3.7910    9.1890    2.6590 C.3   301  ARG301      0.0489
     98  CD        -4.3100   10.1070    3.7570 C.3   301  ARG301      0.2205
     99  NE        -4.7520   11.4070    3.2700 N.pl3 301  ARG301     -0.0865
    100  CZ        -5.9950   11.6710    2.8830 C.cat 301  ARG301      0.5346
    101  NH1       -6.3120   12.8850    2.4560 N.pl3 301  ARG301      0.1354
    102  NH2       -6.9170   10.7180    2.9180 N.pl3 301  ARG301      0.1354
    103  N         -8.7190   14.2860   -4.3780 N.3   327  ALA327     -0.1245
    104  CA        -9.3930   13.3910   -3.4390 C.3   327  ALA327      0.1562
    105  C         -8.8280   13.5100   -2.0200 C.2   327  ALA327      0.2260
    106  O         -9.3950   12.9700   -1.0720 O.2   327  ALA327     -0.2867
    107  CB        -9.2990   11.9550   -3.9200 C.3   327  ALA327      0.0290
@<TRIPOS>BOND
     1    19    16    1
     2    19    20    1
     3    16    17    1
     4    16    15    1
     5    22    23    1
     6    17    18    2
     7     1     2    1
     8     2     5    1
     9     2     3    1
    10    20    21    1
    11    23    24    1
    12    23    26    1
    13    27    26    1
    14    27    28    1
    15    15    21    1
    16     3     4    2
    17     3     6   am
    18    24    25    2
    19    28    29    1
    20     6     7    1
    21   103   104    1
    22   107   104    1
    23    85    84    1
    24   104   105    1
    25     7     8    1
    26     7    10    1
    27     8     9    2
    28    14    13    1
    29    12    13    1
    30    12    11    1
    31    33    32    2
    32    10    11    1
    33    84    83    1
    34    84    86    1
    35   105   106    2
    36    83    80    1
    37    32    31    1
    38    31    34    1
    39    31    30    1
    40    34    35    1
    41    82    81    2
    42    80    81    1
    43    80    79    1
    44    81    87   am
    45    87    88    1
    46    88    91    1
    47    88    89    1
    48    35    37   ar
    49    35    36   ar
    50    37    39   ar
    51    79    73   am
    52    36    38   ar
    53    90    89    2
    54    39    40   ar
    55    92    93    1
    56    66    68   ar
    57    66    65   ar
    58    68    70   ar
    59    73    74    2
    60    73    72    1
    61    38    40   ar
    62    63    62    2
    63    61    62    1
    64    61    64    1
    65    61    60    1
    66    62    71   am
    67    93    94    1
    68    93    96    1
    69   101   100    1
    70    97    96    1
    71    97    98    1
    72    64    65    1
    73    72    71    1
    74    72    75    1
    75    65    67   ar
    76    70    69   ar
    77    77    76    2
    78   100   102    1
    79   100    99    2
    80    94    95    2
    81    99    98    1
    82    76    75    1
    83    76    78   am
    84    67    69   ar
    85    50    51    1
    86    50    49    1
    87    51    45    1
    88    49    46    1
    89    59    58    1
    90    45    46    1
    91    44    43    2
    92    46    47    1
    93    58    57    1
    94    57    56    1
    95    43    42    1
    96    47    52   am
    97    47    48    2
    98    52    53    1
    99    56    53    1
   100    42    41    1
   101    53    54    1
   102    54    55    2
