@<TRIPOS>MOLECULE
tmp/5dc8B00.pdb
 100 95 0 0 0
SMALL
GASTEIGER

@<TRIPOS>ATOM
      1  N        -27.1970    0.8010   -6.8950 N.3    19  ALA19      -0.1231
      2  CA       -26.1870   -0.1780   -6.5070 C.3    19  ALA19       0.1694
      3  C        -25.9430   -0.2730   -5.0010 C.2    19  ALA19       0.2591
      4  O        -25.3930   -1.2720   -4.5520 O.2    19  ALA19      -0.2718
      5  CB       -24.8700    0.0720   -7.2520 C.3    19  ALA19       0.0304
      6  N        -26.3870    0.7170   -4.2070 N.am   20  LYS20      -0.1980
      7  CA       -26.2490    0.5760   -2.7480 C.3    20  LYS20       0.1596
      8  C        -27.3320   -0.3130   -2.1480 C.2    20  LYS20       0.2287
      9  O        -27.2120   -0.7410   -1.0040 O.2    20  LYS20      -0.2864
     10  CB       -26.2550    1.9220   -2.0280 C.3    20  LYS20       0.0298
     11  CG       -25.1960    2.8990   -2.5010 C.3    20  LYS20       0.0038
     12  CD       -23.7990    2.4440   -2.1370 C.3    20  LYS20       0.0206
     13  CE       -22.7850    3.5230   -2.4690 C.3    20  LYS20       0.1093
     14  NZ       -21.5560    3.0330   -3.1060 N.3    20  LYS20      -0.1314
     15  N        -29.3250   -2.9160   -4.3310 N.3    22  PRO22      -0.2116
     16  CA       -29.9020   -3.5880   -5.5050 C.3    22  PRO22       0.1372
     17  C        -30.9920   -4.5920   -5.1340 C.2    22  PRO22       0.2244
     18  O        -30.8100   -5.3660   -4.1930 O.2    22  PRO22      -0.2868
     19  CB       -28.6950   -4.3090   -6.1240 C.3    22  PRO22       0.0268
     20  CG       -27.7640   -4.5070   -4.9760 C.3    22  PRO22       0.0207
     21  CD       -27.9180   -3.2980   -4.1070 C.3    22  PRO22       0.0892
     22  N        -37.8190   -6.7800   -3.2510 N.3    27  MET27      -0.1245
     23  CA       -38.0040   -7.6360   -2.0790 C.3    27  MET27       0.1570
     24  C        -39.0850   -7.0920   -1.1640 C.2    27  MET27       0.2261
     25  O        -39.9160   -7.8500   -0.6460 O.2    27  MET27      -0.2867
     26  CB       -36.6940   -7.7960   -1.3330 C.3    27  MET27       0.0387
     27  CG       -35.6890   -8.5760   -2.1440 C.3    27  MET27       0.0595
     28  SD       -34.1290   -8.8420   -1.2910 S.3    27  MET27      -0.1393
     29  CE       -34.6750  -10.0160   -0.0450 C.3    27  MET27       0.0692
     30  N        -26.0300    8.4730   -0.3940 N.3   139  PHE139     -0.1241
     31  CA       -26.8070    7.6120   -1.3000 C.3   139  PHE139      0.1605
     32  C        -28.0350    8.3380   -1.8310 C.2   139  PHE139      0.2264
     33  O        -28.8650    7.7300   -2.5180 O.2   139  PHE139     -0.2867
     34  CB       -27.2410    6.2600   -0.6810 C.3   139  PHE139      0.0534
     35  CG       -26.1850    5.5730    0.1780 C.ar  139  PHE139     -0.0203
     36  CD1      -26.5820    4.6880    1.1670 C.ar  139  PHE139     -0.0042
     37  CD2      -24.8210    5.7530   -0.0330 C.ar  139  PHE139     -0.0042
     38  CE1      -25.6610    4.0280    1.9770 C.ar  139  PHE139     -0.0003
     39  CE2      -23.8830    5.0920    0.7710 C.ar  139  PHE139     -0.0003
     40  CZ       -24.3130    4.2390    1.7750 C.ar  139  PHE139     -0.0000
     41  N        -29.2490   -6.9430   12.8100 N.3   258  GLY258     -0.1225
     42  CA       -28.9080   -7.6800   11.6040 C.3   258  GLY258      0.1811
     43  C        -28.4570   -6.8010   10.4400 C.2   258  GLY258      0.2280
     44  O        -27.9580   -7.2950    9.4210 O.2   258  GLY258     -0.2866
     45  N        -25.9270   -4.6880    8.3790 N.3   260  PRO260     -0.2102
     46  CA       -24.4630   -4.7370    8.4250 C.3   260  PRO260      0.1504
     47  C        -23.8460   -3.5520    9.1470 C.2   260  PRO260      0.2575
     48  O        -22.7240   -3.6810    9.6420 O.2   260  PRO260     -0.2718
     49  CB       -24.0560   -4.7560    6.9470 C.3   260  PRO260      0.0282
     50  CG       -25.2340   -4.1840    6.2070 C.3   260  PRO260      0.0208
     51  CD       -26.4240   -4.6640    6.9900 C.3   260  PRO260      0.0893
     52  N        -24.5460   -2.4200    9.2260 N.am  261  MET261     -0.1980
     53  CA       -23.9850   -1.2890    9.9530 C.3   261  MET261      0.1605
     54  C        -23.9020   -1.5410   11.4600 C.2   261  MET261      0.2287
     55  O        -23.1680   -0.8490   12.1580 O.2   261  MET261     -0.2864
     56  CB       -24.7370   -0.0100    9.6410 C.3   261  MET261      0.0413
     57  CG       -24.5720    0.3970    8.1930 C.3   261  MET261      0.0598
     58  SD       -25.2130    2.0450    7.8880 S.3   261  MET261     -0.1393
     59  CE       -24.6050    2.2880    6.2120 C.3   261  MET261      0.0692
     60  N        -29.8950   -2.0080    5.0150 N.3   293  PHE293     -0.1227
     61  CA       -28.8710   -2.6790    4.2280 C.3   293  PHE293      0.1736
     62  C        -28.7910   -4.1680    4.5020 C.2   293  PHE293      0.2595
     63  O        -27.9000   -4.8410    3.9900 O.2   293  PHE293     -0.2718
     64  CB       -27.5190   -1.9470    4.4090 C.3   293  PHE293      0.0547
     65  CG       -27.6680   -0.4730    4.1890 C.ar  293  PHE293     -0.0202
     66  CD1      -27.8950    0.0180    2.9120 C.ar  293  PHE293     -0.0042
     67  CD2      -27.7320    0.4240    5.2630 C.ar  293  PHE293     -0.0042
     68  CE1      -28.1250    1.3720    2.6860 C.ar  293  PHE293     -0.0003
     69  CE2      -27.9790    1.7770    5.0450 C.ar  293  PHE293     -0.0003
     70  CZ       -28.1650    2.2460    3.7680 C.ar  293  PHE293     -0.0000
     71  N        -29.7240   -4.6760    5.3020 N.am  294  ASN294     -0.1960
     72  CA       -30.0360   -6.0940    5.2890 C.3   294  ASN294      0.1819
     73  C        -31.3700   -6.1430    4.5560 C.2   294  ASN294      0.2621
     74  O        -32.3660   -5.6270    5.0680 O.2   294  ASN294     -0.2715
     75  CB       -30.1210   -6.6510    6.7080 C.3   294  ASN294      0.1195
     76  CG       -30.4770   -8.1210    6.7220 C.2   294  ASN294      0.2630
     77  OD1      -31.3780   -8.5630    5.9870 O.2   294  ASN294     -0.2716
     78  ND2      -29.7820   -8.8860    7.5510 N.am  294  ASN294     -0.0877
     79  N        -31.3630   -6.6240    3.3170 N.am  295  LEU295     -0.1963
     80  CA       -32.5000   -6.4160    2.4420 C.3   295  LEU295      0.1728
     81  C        -33.7180   -7.1990    2.9010 C.2   295  LEU295      0.2616
     82  O        -34.8280   -6.6730    2.9330 O.2   295  LEU295     -0.2715
     83  CB       -32.1470   -6.7190    0.9910 C.3   295  LEU295      0.0311
     84  CG       -30.8540   -6.0510    0.4670 C.3   295  LEU295      0.0022
     85  CD1      -30.7830   -6.2540   -1.0390 C.3   295  LEU295      0.0001
     86  CD2      -30.6730   -4.5830    0.8340 C.3   295  LEU295      0.0001
     87  N        -33.5200   -8.4470    3.3090 N.am  296  ALA296     -0.1977
     88  CA       -34.6370   -9.2300    3.8170 C.3   296  ALA296      0.1597
     89  C        -35.1880   -8.6220    5.1080 C.2   296  ALA296      0.2287
     90  O        -36.3960   -8.5940    5.3140 O.2   296  ALA296     -0.2864
     91  CB       -34.2280  -10.7000    4.0180 C.3   296  ALA296      0.0319
     92  N        -34.2530  -16.1920    0.8150 N.3   326  ALA326     -0.1245
     93  CA       -33.4380  -15.1730    1.4900 C.3   326  ALA326      0.1562
     94  C        -33.8140  -14.9730    2.9600 C.2   326  ALA326      0.2260
     95  O        -33.1600  -14.1840    3.6630 O.2   326  ALA326     -0.2867
     96  CB       -33.5510  -13.8440    0.7550 C.3   326  ALA326      0.0290
     97  N        -33.8360  -17.0770    5.5480 N.3   328  GLY328     -0.1225
     98  CA       -33.2870  -18.0030    6.5230 C.3   328  GLY328      0.1811
     99  C        -32.4880  -17.2990    7.5960 C.2   328  GLY328      0.2280
    100  O        -32.1840  -16.1140    7.4610 O.2   328  GLY328     -0.2866
@<TRIPOS>BOND
     1     5     2    1
     2     1     2    1
     3     2     3    1
     4    19    16    1
     5    19    20    1
     6    16    17    1
     7    16    15    1
     8    17    18    2
     9     3     4    2
    10     3     6   am
    11    20    21    1
    12    15    21    1
    13     6     7    1
    14    22    23    1
    15    14    13    1
    16     7     8    1
    17     7    10    1
    18    33    32    2
    19    11    12    1
    20    11    10    1
    21    13    12    1
    22     8     9    2
    23    27    26    1
    24    27    28    1
    25    23    26    1
    26    23    24    1
    27    32    31    1
    28    31    34    1
    29    31    30    1
    30    28    29    1
    31    24    25    2
    32    85    84    1
    33    34    35    1
    34    37    35   ar
    35    37    39   ar
    36    35    36   ar
    37    84    86    1
    38    84    83    1
    39    96    93    1
    40    39    40   ar
    41    92    93    1
    42    83    80    1
    43    36    38   ar
    44    93    94    1
    45    40    38   ar
    46    80    81    1
    47    80    79    1
    48    68    66   ar
    49    68    70   ar
    50    81    82    2
    51    81    87   am
    52    66    65   ar
    53    94    95    2
    54    87    88    1
    55    79    73   am
    56    70    69   ar
    57    88    91    1
    58    88    89    1
    59    63    62    2
    60    65    64    1
    61    65    67   ar
    62    61    64    1
    63    61    62    1
    64    61    60    1
    65    62    71   am
    66    73    74    2
    67    73    72    1
    68    69    67   ar
    69    89    90    2
    70    72    71    1
    71    72    75    1
    72    97    98    1
    73    77    76    2
    74    50    49    1
    75    50    51    1
    76    59    58    1
    77    98    99    1
    78    75    76    1
    79    76    78   am
    80    49    46    1
    81    51    45    1
    82   100    99    2
    83    58    57    1
    84    57    56    1
    85    45    46    1
    86    46    47    1
    87    47    52   am
    88    47    48    2
    89    52    53    1
    90    44    43    2
    91    56    53    1
    92    53    54    1
    93    43    42    1
    94    54    55    2
    95    42    41    1
