@<TRIPOS>MOLECULE
tmp/5dc8A00.pdb
 190 187 0 0 0
SMALL
GASTEIGER

@<TRIPOS>ATOM
      1  N        -17.8430   -2.8740   -4.6530 N.3    20  LYS20      -0.1245
      2  CA       -17.8520   -2.1190   -3.4080 C.3    20  LYS20       0.1561
      3  C        -16.6690   -1.1740   -3.2670 C.2    20  LYS20       0.2260
      4  O        -16.5910   -0.4310   -2.2900 O.2    20  LYS20      -0.2867
      5  CB       -17.9140   -3.0560   -2.2020 C.3    20  LYS20       0.0271
      6  CG       -19.0660   -4.0700   -2.2200 C.3    20  LYS20       0.0035
      7  CD       -20.4550   -3.4840   -2.4860 C.3    20  LYS20       0.0206
      8  CE       -21.5140   -4.5840   -2.2720 C.3    20  LYS20       0.1093
      9  NZ       -22.9140   -4.1180   -2.6280 N.3    20  LYS20      -0.1314
     10  N        -28.0290  -17.2040   -4.6560 N.3    81  ILE81      -0.1245
     11  CA       -28.0020  -17.2240   -3.1860 C.3    81  ILE81       0.1561
     12  C        -27.3070  -18.4730   -2.5590 C.2    81  ILE81       0.2260
     13  O        -26.5860  -18.3430   -1.5700 O.2    81  ILE81      -0.2867
     14  CB       -29.4060  -16.9420   -2.5980 C.3    81  ILE81       0.0252
     15  CG1      -29.3280  -16.6710   -1.0920 C.3    81  ILE81       0.0019
     16  CG2      -30.3750  -18.0600   -2.9580 C.3    81  ILE81       0.0019
     17  CD1      -30.6660  -16.2230   -0.5000 C.3    81  ILE81       0.0001
     18  N        -26.3400   -9.3710   -2.3860 N.3    87  TYR87      -0.1227
     19  CA       -26.0720   -7.9940   -2.0130 C.3    87  TYR87       0.1736
     20  C        -24.5920   -7.6900   -1.7930 C.2    87  TYR87       0.2595
     21  O        -24.0420   -6.7660   -2.4000 O.2    87  TYR87      -0.2718
     22  CB       -26.8860   -7.6250   -0.7690 C.3    87  TYR87       0.0548
     23  CG       -26.6790   -6.2030   -0.3340 C.ar   87  TYR87      -0.0200
     24  CD1      -26.9030   -5.1490   -1.1950 C.ar   87  TYR87      -0.0009
     25  CD2      -26.2690   -5.9130    0.9520 C.ar   87  TYR87      -0.0009
     26  CE1      -26.7150   -3.8420   -0.7830 C.ar   87  TYR87       0.0417
     27  CE2      -26.0880   -4.6100    1.3800 C.ar   87  TYR87       0.0417
     28  CZ       -26.3180   -3.5830    0.5130 C.ar   87  TYR87       0.1957
     29  OH       -26.1300   -2.3040    0.9550 O.3    87  TYR87      -0.2866
     30  N        -23.9470   -8.4380   -0.9060 N.am   88  ASP88      -0.1974
     31  CA       -22.5220   -8.2070   -0.6540 C.3    88  ASP88       0.1709
     32  C        -21.6740   -8.5330   -1.8820 C.2    88  ASP88       0.2293
     33  O        -20.6630   -7.8680   -2.1320 O.2    88  ASP88      -0.2864
     34  CB       -22.0240   -9.0540    0.5090 C.3    88  ASP88       0.1436
     35  CG       -22.4390   -8.5190    1.8790 C.2    88  ASP88       0.3671
     36  OD1      -22.6610   -7.2910    2.0250 O.co2  88  ASP88      -0.2456
     37  OD2      -22.4740   -9.3520    2.8230 O.co2  88  ASP88      -0.2456
     38  N         -6.2520  -10.0260   -0.9790 N.3   127  GLY127     -0.1210
     39  CA        -6.6870  -10.0220    0.4160 C.3   127  GLY127      0.1956
     40  C         -8.1480  -10.3710    0.6460 C.2   127  GLY127      0.2612
     41  O         -8.7060  -10.0060    1.6860 O.2   127  GLY127     -0.2717
     42  N         -8.7640  -11.1060   -0.2820 N.am  128  TRP128     -0.1962
     43  CA       -10.2150  -11.3730   -0.2350 C.3   128  TRP128      0.1771
     44  C        -10.5150  -12.6360    0.5870 C.2   128  TRP128      0.2619
     45  O        -10.9080  -13.6960    0.0740 O.2   128  TRP128     -0.2715
     46  CB       -10.8080  -11.3560   -1.6550 C.3   128  TRP128      0.0590
     47  CG       -10.4730  -10.0420   -2.2870 C.ar  128  TRP128      0.0006
     48  CD1       -9.4860   -9.8140   -3.1950 C.ar  128  TRP128      0.0946
     49  CD2      -11.0040   -8.7540   -1.9390 C.ar  128  TRP128      0.0152
     50  NE1       -9.4070   -8.4730   -3.4860 N.ar  128  TRP128     -0.2442
     51  CE2      -10.3280   -7.7990   -2.7270 C.ar  128  TRP128      0.0810
     52  CE3      -12.0190   -8.3200   -1.0750 C.ar  128  TRP128      0.0012
     53  CZ2      -10.5960   -6.4340   -2.6420 C.ar  128  TRP128      0.0191
     54  CZ3      -12.2980   -6.9690   -1.0010 C.ar  128  TRP128      0.0001
     55  CH2      -11.5820   -6.0370   -1.7750 C.ar  128  TRP128      0.0015
     56  N        -10.3520  -12.4810    1.9000 N.am  129  ALA129     -0.1963
     57  CA       -10.2010  -13.5950    2.8420 C.3   129  ALA129      0.1728
     58  C        -11.4860  -14.2980    3.2390 C.2   129  ALA129      0.2616
     59  O        -11.4180  -15.3390    3.8730 O.2   129  ALA129     -0.2715
     60  CB        -9.4910  -13.0920    4.1090 C.3   129  ALA129      0.0334
     61  N        -12.6430  -13.7600    2.8580 N.am  130  HIS130     -0.1973
     62  CA       -13.9130  -14.3380    3.2990 C.3   130  HIS130      0.1656
     63  C        -14.4480  -15.4300    2.3810 C.2   130  HIS130      0.2291
     64  O        -15.3250  -16.2060    2.7900 O.2   130  HIS130     -0.2864
     65  CB       -15.0100  -13.2540    3.4190 C.3   130  HIS130      0.0771
     66  CG       -14.6610  -12.1610    4.3690 C.ar  130  HIS130      0.0820
     67  ND1      -14.3820  -12.3780    5.6990 N.ar  130  HIS130     -0.2267
     68  CD2      -14.5190  -10.8290    4.1660 C.ar  130  HIS130      0.1154
     69  CE1      -14.1040  -11.2180    6.2770 C.ar  130  HIS130      0.1986
     70  NE2      -14.1780  -10.2610    5.3660 N.ar  130  HIS130     -0.2212
     71  N        -18.7340  -11.5960    1.6990 N.3   138  GLY138     -0.1210
     72  CA       -18.0010  -10.4300    2.2040 C.3   138  GLY138      0.1956
     73  C        -17.1940   -9.6780    1.1650 C.2   138  GLY138      0.2612
     74  O        -16.0850   -9.2120    1.4640 O.2   138  GLY138     -0.2717
     75  N        -17.7590   -9.5410   -0.0400 N.am  139  PHE139     -0.1962
     76  CA       -17.1580   -8.8280   -1.1730 C.3   139  PHE139      0.1771
     77  C        -16.0420   -9.6500   -1.8240 C.2   139  PHE139      0.2619
     78  O        -15.3170   -9.1470   -2.6890 O.2   139  PHE139     -0.2715
     79  CB       -16.6090   -7.4200   -0.8270 C.3   139  PHE139      0.0574
     80  CG       -17.4680   -6.6070    0.1270 C.ar  139  PHE139     -0.0200
     81  CD1      -16.8810   -5.5960    0.8890 C.ar  139  PHE139     -0.0042
     82  CD2      -18.8590   -6.7960    0.2310 C.ar  139  PHE139     -0.0042
     83  CE1      -17.6470   -4.8080    1.7760 C.ar  139  PHE139     -0.0003
     84  CE2      -19.6200   -6.0240    1.1050 C.ar  139  PHE139     -0.0003
     85  CZ       -19.0240   -5.0330    1.8820 C.ar  139  PHE139     -0.0000
     86  N        -15.9240  -10.9150   -1.4250 N.am  140  CYS140     -0.1968
     87  CA       -14.8850  -11.8320   -1.9010 C.3   140  CYS140      0.1712
     88  C        -15.4980  -12.9380   -2.7540 C.2   140  CYS140      0.2296
     89  O        -16.4390  -13.5920   -2.3190 O.2   140  CYS140     -0.2864
     90  CB       -14.1820  -12.5110   -0.7130 C.3   140  CYS140      0.0983
     91  SG       -13.5470  -11.3620    0.5240 S.3   140  CYS140     -0.0798
     92  N         -7.1880   -6.9900    8.9100 N.3   165  ASP165     -0.1239
     93  CA        -8.4410   -6.3630    8.4550 C.3   165  ASP165      0.1674
     94  C         -9.4060   -6.2000    9.6530 C.2   165  ASP165      0.2266
     95  O         -9.3220   -6.9370   10.6360 O.2   165  ASP165     -0.2867
     96  CB        -9.0580   -7.3020    7.4130 C.3   165  ASP165      0.1410
     97  CG       -10.1980   -6.7090    6.6440 C.2   165  ASP165      0.3668
     98  OD1       -9.9950   -6.3780    5.4570 O.co2 165  ASP165     -0.2456
     99  OD2      -11.3390   -6.6990    7.1620 O.co2 165  ASP165     -0.2456
    100  N        -12.3610   -7.2010    9.8050 N.3   167  HIS167     -0.1241
    101  CA       -13.2280   -8.3770    9.8530 C.3   167  HIS167      0.1621
    102  C        -12.4220   -9.6570   10.0500 C.2   167  HIS167      0.2264
    103  O        -11.2840   -9.7840    9.6010 O.2   167  HIS167     -0.2867
    104  CB       -14.0100   -8.4740    8.5420 C.3   167  HIS167      0.0745
    105  CG       -14.8640   -7.2740    8.2660 C.ar  167  HIS167      0.0817
    106  ND1      -14.4400   -6.2110    7.4890 N.ar  167  HIS167     -0.2268
    107  CD2      -16.1320   -6.9830    8.6590 C.ar  167  HIS167      0.1154
    108  CE1      -15.4200   -5.3140    7.4320 C.ar  167  HIS167      0.1986
    109  NE2      -16.4470   -5.7480    8.1450 N.ar  167  HIS167     -0.2212
    110  N        -23.7430   -9.6050   15.6810 N.3   193  GLY193     -0.1210
    111  CA       -24.3090   -8.8160   14.6100 C.3   193  GLY193      0.1956
    112  C        -23.2620   -8.2790   13.6500 C.2   193  GLY193      0.2612
    113  O        -23.6130   -7.7820   12.5790 O.2   193  GLY193     -0.2717
    114  N        -21.9830   -8.3550   14.0220 N.am  194  PHE194     -0.1962
    115  CA       -20.9290   -7.7620   13.1920 C.3   194  PHE194      0.1771
    116  C        -20.2900   -8.8540   12.3150 C.2   194  PHE194      0.2620
    117  O        -19.8720   -9.9080   12.8080 O.2   194  PHE194     -0.2715
    118  CB       -19.8620   -7.0540   14.0260 C.3   194  PHE194      0.0574
    119  CG       -18.8860   -6.2970   13.1810 C.ar  194  PHE194     -0.0200
    120  CD1      -19.2220   -5.0610   12.6480 C.ar  194  PHE194     -0.0042
    121  CD2      -17.6400   -6.8400   12.8750 C.ar  194  PHE194     -0.0042
    122  CE1      -18.3460   -4.3770   11.8180 C.ar  194  PHE194     -0.0003
    123  CE2      -16.7610   -6.1500   12.0370 C.ar  194  PHE194     -0.0003
    124  CZ       -17.1280   -4.9420   11.5120 C.ar  194  PHE194     -0.0000
    125  N        -20.2400   -8.6130   11.0130 N.am  195  PHE195     -0.1960
    126  CA       -19.7780   -9.5890   10.0370 C.3   195  PHE195      0.1756
    127  C        -18.3470  -10.0640   10.3020 C.2   195  PHE195      0.2461
    128  O        -17.4770   -9.2560   10.6080 O.2   195  PHE195     -0.2730
    129  CB       -19.8110   -8.9240    8.6500 C.3   195  PHE195      0.0574
    130  CG       -19.4290   -9.8560    7.5150 C.ar  195  PHE195     -0.0200
    131  CD1      -18.1090   -9.9610    7.0790 C.ar  195  PHE195     -0.0042
    132  CD2      -20.3940  -10.6290    6.8910 C.ar  195  PHE195     -0.0042
    133  CE1      -17.7650  -10.8510    6.0400 C.ar  195  PHE195     -0.0003
    134  CE2      -20.0620  -11.5030    5.8530 C.ar  195  PHE195     -0.0003
    135  CZ       -18.7590  -11.6240    5.4450 C.ar  195  PHE195     -0.0000
    136  N        -18.0610  -11.3770   10.1270 N.am  196  PRO196     -0.2716
    137  CA       -18.9610  -12.4580    9.7260 C.3   196  PRO196      0.1536
    138  C        -19.5770  -13.2000   10.9110 C.2   196  PRO196      0.2599
    139  O        -20.2980  -14.1670   10.6680 O.2   196  PRO196     -0.2715
    140  CB       -18.0370  -13.3830    8.9070 C.3   196  PRO196      0.0310
    141  CG       -16.6900  -13.2520    9.5900 C.3   196  PRO196      0.0237
    142  CD       -16.6380  -11.7930   10.0250 C.3   196  PRO196      0.0939
    143  N        -19.2920  -12.7880   12.1430 N.am  197  GLY197     -0.1955
    144  CA       -19.9190  -13.3580   13.3250 C.3   197  GLY197      0.1869
    145  C        -19.0950  -14.4330   14.0090 C.2   197  GLY197      0.2309
    146  O        -19.5010  -14.9560   15.0270 O.2   197  GLY197     -0.2863
    147  N         -2.3440   -9.7760    5.5990 N.3   250  GLN250     -0.1245
    148  CA        -3.4830   -9.0770    5.0150 C.3   250  GLN250      0.1566
    149  C         -3.6660   -7.7830    5.8260 C.2   250  GLN250      0.2260
    150  O         -3.7590   -7.8160    7.0630 O.2   250  GLN250     -0.2867
    151  CB        -4.6970  -10.0190    5.0840 C.3   250  GLN250      0.0367
    152  CG        -5.8720   -9.6890    4.1460 C.3   250  GLN250      0.0905
    153  CD        -6.8440   -8.6770    4.7380 C.2   250  GLN250      0.2608
    154  OE1       -6.4730   -7.8940    5.6130 O.2   250  GLN250     -0.2717
    155  NE2       -8.0730   -8.6570    4.2440 N.am  250  GLN250     -0.0878
    156  N         -9.8700   -1.0480    6.5420 N.3   254  ASP254     -0.1239
    157  CA       -11.1520   -0.7100    7.1220 C.3   254  ASP254      0.1674
    158  C        -11.1090   -0.5400    8.6510 C.2   254  ASP254      0.2266
    159  O        -12.1310   -0.2670    9.2650 O.2   254  ASP254     -0.2867
    160  CB       -12.2680   -1.6770    6.6710 C.3   254  ASP254      0.1410
    161  CG       -11.8970   -3.1570    6.7280 C.2   254  ASP254      0.3668
    162  OD1      -10.8080   -3.5250    7.2250 O.co2 254  ASP254     -0.2456
    163  OD2      -12.7640   -3.9700    6.2550 O.co2 254  ASP254     -0.2456
    164  N        -17.2990    2.4610    8.0300 N.3   261  MET261     -0.1245
    165  CA       -17.6830    1.4510    9.0200 C.3   261  MET261      0.1570
    166  C        -17.5040    1.9300   10.4630 C.2   261  MET261      0.2261
    167  O        -18.1350    1.3940   11.3530 O.2   261  MET261     -0.2867
    168  CB       -16.9670    0.1440    8.7550 C.3   261  MET261      0.0387
    169  CG       -17.4410   -0.4610    7.4450 C.3   261  MET261      0.0595
    170  SD       -16.8820   -2.1440    7.2530 S.3   261  MET261     -0.1393
    171  CE       -17.8050   -2.6480    5.8040 C.3   261  MET261      0.0692
    172  N         -7.1730   -5.6540    1.1950 N.3   290  GLY290     -0.1210
    173  CA        -8.4090   -6.2080    1.7230 C.3   290  GLY290      0.1956
    174  C         -9.4730   -5.1330    1.7700 C.2   290  GLY290      0.2612
    175  O         -9.6440   -4.3710    0.8090 O.2   290  GLY290     -0.2717
    176  N        -10.1940   -5.0510    2.8760 N.am  291  GLY291     -0.1956
    177  CA       -11.1950   -3.9940    3.0080 C.3   291  GLY291      0.1869
    178  C        -10.5830   -2.5930    3.0920 C.2   291  GLY291      0.2309
    179  O         -9.3610   -2.4150    3.0980 O.2   291  GLY291     -0.2863
    180  N        -12.8810    1.3340    2.9230 N.3   293  PHE293     -0.1241
    181  CA       -14.0340    1.9150    2.2310 C.3   293  PHE293      0.1605
    182  C        -14.0420    3.4320    2.2860 C.2   293  PHE293      0.2264
    183  O        -14.9760    4.0540    1.8120 O.2   293  PHE293     -0.2867
    184  CB       -15.3250    1.2580    2.7320 C.3   293  PHE293      0.0534
    185  CG       -15.2120   -0.2410    2.7190 C.ar  293  PHE293     -0.0203
    186  CD1      -15.2280   -0.9220    1.5000 C.ar  293  PHE293     -0.0042
    187  CD2      -14.9580   -0.9580    3.8810 C.ar  293  PHE293     -0.0042
    188  CE1      -15.0290   -2.2920    1.4600 C.ar  293  PHE293     -0.0003
    189  CE2      -14.7550   -2.3250    3.8350 C.ar  293  PHE293     -0.0003
    190  CZ       -14.7920   -2.9810    2.6360 C.ar  293  PHE293     -0.0000
@<TRIPOS>BOND
     1    10    11    1
     2     1     2    1
     3    50    48   ar
     4    50    51   ar
     5     2     3    1
     6     2     5    1
     7     3     4    2
     8    48    47   ar
     9    11    14    1
    10    11    12    1
    11    16    14    1
    12    88    89    2
    13    88    87    1
    14    51    53   ar
    15    51    49   ar
    16    78    77    2
    17    53    55   ar
    18     9     8    1
    19    14    15    1
    20    12    13    2
    21     7     8    1
    22     7     6    1
    23    21    20    2
    24    18    19    1
    25    47    49   ar
    26    47    46    1
    27     6     5    1
    28    33    32    2
    29    19    20    1
    30    19    22    1
    31    49    52   ar
    32    87    86    1
    33    87    90    1
    34    32    31    1
    35    77    86   am
    36    77    76    1
    37    20    30   am
    38    55    54   ar
    39    46    43    1
    40    24    26   ar
    41    24    23   ar
    42    76    79    1
    43    76    75    1
    44    15    17    1
    45    52    54   ar
    46    38    39    1
    47    30    31    1
    48    79    80    1
    49    26    28   ar
    50    22    23    1
    51    90    91    1
    52    31    34    1
    53    23    25   ar
    54    42    43    1
    55    42    40   am
    56    43    44    1
    57    75    73   am
    58    45    44    2
    59    80    82   ar
    60    80    81   ar
    61    82    84   ar
    62    39    40    1
    63    34    35    1
    64    28    29    1
    65    28    27   ar
    66    44    56   am
    67    40    41    2
    68   175   174    2
    69    81    83   ar
    70    25    27   ar
    71    84    85   ar
    72    73    74    2
    73    73    72    1
    74   172   173    1
    75   188   186   ar
    76   188   190   ar
    77   186   185   ar
    78    71    72    1
    79   173   174    1
    80   174   176   am
    81    83    85   ar
    82   183   182    2
    83    35    36   ar
    84    35    37   ar
    85    56    57    1
    86   181   182    1
    87   181   184    1
    88   181   180    1
    89    63    64    2
    90    63    62    1
    91   190   189   ar
    92   185   184    1
    93   185   187   ar
    94    57    58    1
    95    57    60    1
    96    61    58   am
    97    61    62    1
    98   176   177    1
    99   177   178    1
   100   178   179    2
   101    58    59    2
   102    62    65    1
   103    65    66    1
   104   189   187   ar
   105   152   153    1
   106   152   151    1
   107    68    66   ar
   108    68    70   ar
   109   155   153   am
   110    66    67   ar
   111   153   154    2
   112   148   151    1
   113   148   147    1
   114   148   149    1
   115    70    69   ar
   116   135   134   ar
   117   135   133   ar
   118    98    97   ar
   119    67    69   ar
   120   171   170    1
   121   149   150    2
   122   134   132   ar
   123   133   131   ar
   124   163   161   ar
   125   156   157    1
   126    97    99   ar
   127    97    96    1
   128   160   161    1
   129   160   157    1
   130   161   162   ar
   131   132   130   ar
   132   131   130   ar
   133   157   158    1
   134   170   169    1
   135    96    93    1
   136   108   106   ar
   137   108   109   ar
   138   169   168    1
   139   106   105   ar
   140   130   129    1
   141   164   165    1
   142   109   107   ar
   143   105   104    1
   144   105   107   ar
   145    93    92    1
   146    93    94    1
   147   104   101    1
   148   129   126    1
   149   158   159    2
   150   168   165    1
   151   140   141    1
   152   140   137    1
   153   165   166    1
   154   141   142    1
   155   103   102    2
   156    94    95    2
   157   137   136    1
   158   137   138    1
   159   100   101    1
   160   101   102    1
   161   142   136    1
   162   126   127    1
   163   126   125    1
   164   136   127   am
   165   127   128    2
   166   166   167    2
   167   139   138    2
   168   138   143   am
   169   125   116   am
   170   124   122   ar
   171   124   123   ar
   172   122   120   ar
   173   123   121   ar
   174   143   144    1
   175   116   117    2
   176   116   115    1
   177   113   112    2
   178   120   119   ar
   179   121   119   ar
   180   119   118    1
   181   115   114    1
   182   115   118    1
   183   144   145    1
   184   112   114   am
   185   112   111    1
   186   145   146    2
   187   111   110    1
