@<TRIPOS>MOLECULE
tmp/5dc8B01.pdb
 156 152 0 0 0
SMALL
GASTEIGER

@<TRIPOS>ATOM
      1  N        -26.3870    0.7170   -4.2070 N.3    20  LYS20      -0.1245
      2  CA       -26.2490    0.5760   -2.7480 C.3    20  LYS20       0.1561
      3  C        -27.3320   -0.3130   -2.1480 C.2    20  LYS20       0.2260
      4  O        -27.2120   -0.7410   -1.0040 O.2    20  LYS20      -0.2867
      5  CB       -26.2550    1.9220   -2.0280 C.3    20  LYS20       0.0271
      6  CG       -25.1960    2.8990   -2.5010 C.3    20  LYS20       0.0035
      7  CD       -23.7990    2.4440   -2.1370 C.3    20  LYS20       0.0206
      8  CE       -22.7850    3.5230   -2.4690 C.3    20  LYS20       0.1093
      9  NZ       -21.5560    3.0330   -3.1060 N.3    20  LYS20      -0.1314
     10  N        -17.9650    8.2180   -4.1790 N.3    87  TYR87      -0.1227
     11  CA       -18.1160    6.8700   -3.6770 C.3    87  TYR87       0.1736
     12  C        -19.5360    6.5730   -3.1700 C.2    87  TYR87       0.2595
     13  O        -20.1510    5.5800   -3.5600 O.2    87  TYR87      -0.2718
     14  CB       -17.0790    6.6150   -2.5750 C.3    87  TYR87       0.0548
     15  CG       -17.1640    5.2210   -1.9880 C.ar   87  TYR87      -0.0200
     16  CD1      -16.8050    4.1170   -2.7350 C.ar   87  TYR87      -0.0009
     17  CD2      -17.5860    5.0130   -0.6770 C.ar   87  TYR87      -0.0009
     18  CE1      -16.8750    2.8390   -2.2110 C.ar   87  TYR87       0.0417
     19  CE2      -17.6550    3.7310   -0.1410 C.ar   87  TYR87       0.0417
     20  CZ       -17.2930    2.6440   -0.9110 C.ar   87  TYR87       0.1957
     21  OH       -17.3620    1.3700   -0.3790 O.3    87  TYR87      -0.2866
     22  N        -20.0710    7.4200   -2.2910 N.am   88  ASP88      -0.1974
     23  CA       -21.4170    7.1830   -1.7810 C.3    88  ASP88       0.1709
     24  C        -22.4850    7.3930   -2.8580 C.2    88  ASP88       0.2293
     25  O        -23.5080    6.6960   -2.8550 O.2    88  ASP88      -0.2864
     26  CB       -21.7430    8.1060   -0.6010 C.3    88  ASP88       0.1436
     27  CG       -21.0740    7.7050    0.7040 C.2    88  ASP88       0.3671
     28  OD1      -20.7920    6.5090    0.9470 O.co2  88  ASP88      -0.2456
     29  OD2      -20.8660    8.6350    1.5190 O.co2  88  ASP88      -0.2456
     30  N        -37.5380    8.6070    1.0210 N.3   127  GLY127     -0.1210
     31  CA       -36.8630    8.8360    2.3010 C.3   127  GLY127      0.1956
     32  C        -35.3800    9.1870    2.2370 C.2   127  GLY127      0.2612
     33  O        -34.6420    8.9440    3.2050 O.2   127  GLY127     -0.2717
     34  N        -34.9480    9.7950    1.1360 N.am  128  TRP128     -0.1962
     35  CA       -33.5260   10.0640    0.8760 C.3   128  TRP128      0.1771
     36  C        -33.1450   11.4490    1.4350 C.2   128  TRP128      0.2619
     37  O        -32.9960   12.4310    0.7020 O.2   128  TRP128     -0.2715
     38  CB       -33.2420    9.8830   -0.6300 C.3   128  TRP128      0.0590
     39  CG       -33.6250    8.4690   -0.9760 C.ar  128  TRP128      0.0006
     40  CD1      -34.7980    8.0600   -1.5580 C.ar  128  TRP128      0.0946
     41  CD2      -32.9190    7.2610   -0.6220 C.ar  128  TRP128      0.0152
     42  NE1      -34.8380    6.6890   -1.6360 N.ar  128  TRP128     -0.2442
     43  CE2      -33.7050    6.1740   -1.0660 C.ar  128  TRP128      0.0810
     44  CE3      -31.6900    6.9930    0.0060 C.ar  128  TRP128      0.0012
     45  CZ2      -33.3080    4.8520   -0.9090 C.ar  128  TRP128      0.0191
     46  CZ3      -31.2930    5.6700    0.1560 C.ar  128  TRP128      0.0001
     47  CH2      -32.1050    4.6170   -0.3030 C.ar  128  TRP128      0.0015
     48  N        -32.9790   11.4940    2.7560 N.am  129  ALA129     -0.1963
     49  CA       -32.9950   12.7250    3.5410 C.3   129  ALA129      0.1728
     50  C        -31.6860   13.5010    3.5640 C.2   129  ALA129      0.2616
     51  O        -31.6750   14.6160    4.0870 O.2   129  ALA129     -0.2715
     52  CB       -33.4270   12.4020    4.9840 C.3   129  ALA129      0.0334
     53  N        -30.6010   12.9550    2.9920 N.am  130  HIS130     -0.1973
     54  CA       -29.2950   13.6210    3.0980 C.3   130  HIS130      0.1656
     55  C        -28.9850   14.6190    1.9840 C.2   130  HIS130      0.2291
     56  O        -28.0910   15.4560    2.1380 O.2   130  HIS130     -0.2864
     57  CB       -28.1490   12.6050    3.1490 C.3   130  HIS130      0.0771
     58  CG       -28.2890   11.6080    4.2480 C.ar  130  HIS130      0.0820
     59  ND1      -28.3160   11.9670    5.5740 N.ar  130  HIS130     -0.2267
     60  CD2      -28.3990   10.2560    4.2230 C.ar  130  HIS130      0.1154
     61  CE1      -28.4490   10.8820    6.3200 C.ar  130  HIS130      0.1986
     62  NE2      -28.5090    9.8320    5.5240 N.ar  130  HIS130     -0.2212
     63  N        -24.8090   10.7260    0.9000 N.3   138  GLY138     -0.1210
     64  CA       -25.3850    9.6290    1.6610 C.3   138  GLY138      0.1956
     65  C        -26.3430    8.7360    0.8860 C.2   138  GLY138      0.2612
     66  O        -27.3430    8.2750    1.4650 O.2   138  GLY138     -0.2717
     67  N        -26.0300    8.4730   -0.3940 N.am  139  PHE139     -0.1962
     68  CA       -26.8070    7.6120   -1.3000 C.3   139  PHE139      0.1771
     69  C        -28.0350    8.3380   -1.8310 C.2   139  PHE139      0.2619
     70  O        -28.8650    7.7300   -2.5180 O.2   139  PHE139     -0.2715
     71  CB       -27.2410    6.2600   -0.6810 C.3   139  PHE139      0.0574
     72  CG       -26.1850    5.5730    0.1780 C.ar  139  PHE139     -0.0200
     73  CD1      -26.5820    4.6880    1.1670 C.ar  139  PHE139     -0.0042
     74  CD2      -24.8210    5.7530   -0.0330 C.ar  139  PHE139     -0.0042
     75  CE1      -25.6610    4.0280    1.9770 C.ar  139  PHE139     -0.0003
     76  CE2      -23.8830    5.0920    0.7710 C.ar  139  PHE139     -0.0003
     77  CZ       -24.3130    4.2390    1.7750 C.ar  139  PHE139     -0.0000
     78  N        -28.1420    9.6350   -1.5220 N.am  140  CYS140     -0.1968
     79  CA       -29.2920   10.4630   -1.9010 C.3   140  CYS140      0.1712
     80  C        -28.9130   11.4520   -2.9950 C.2   140  CYS140      0.2296
     81  O        -27.9950   12.2480   -2.8010 O.2   140  CYS140     -0.2864
     82  CB       -29.7870   11.2760   -0.6890 C.3   140  CYS140      0.0983
     83  SG       -30.0940   10.3110    0.8110 S.3   140  CYS140     -0.0798
     84  N        -34.5460    7.0010   10.8190 N.3   165  ASP165     -0.1239
     85  CA       -33.3770    6.3540   10.1910 C.3   165  ASP165      0.1674
     86  C        -32.2020    6.3530   11.1840 C.2   165  ASP165      0.2266
     87  O        -32.1300    7.2040   12.0600 O.2   165  ASP165     -0.2867
     88  CB       -33.0160    7.1760    8.9450 C.3   165  ASP165      0.1410
     89  CG       -32.0330    6.4850    8.0310 C.2   165  ASP165      0.3668
     90  OD1      -32.4760    5.9740    6.9900 O.co2 165  ASP165     -0.2456
     91  OD2      -30.8140    6.5280    8.3140 O.co2 165  ASP165     -0.2456
     92  N        -29.2940    7.3500   10.5850 N.3   167  HIS167     -0.1241
     93  CA       -28.4860    8.5370   10.3040 C.3   167  HIS167      0.1621
     94  C        -29.2850    9.8240   10.5070 C.2   167  HIS167      0.2264
     95  O        -30.4930    9.8660   10.2880 O.2   167  HIS167     -0.2867
     96  CB       -27.9930    8.4550    8.8560 C.3   167  HIS167      0.0745
     97  CG       -27.1520    7.2500    8.5830 C.ar  167  HIS167      0.0817
     98  ND1      -27.6800    6.0830    8.0570 N.ar  167  HIS167     -0.2268
     99  CD2      -25.8290    7.0190    8.7710 C.ar  167  HIS167      0.1154
    100  CE1      -26.7070    5.1870    7.9430 C.ar  167  HIS167      0.1986
    101  NE2      -25.5750    5.7290    8.3610 N.ar  167  HIS167     -0.2212
    102  N        -21.3350    8.9500    9.9740 N.3   195  PHE195     -0.1241
    103  CA       -22.0230    9.7890    8.9930 C.3   195  PHE195      0.1605
    104  C        -23.3880   10.2850    9.4920 C.2   195  PHE195      0.2264
    105  O        -24.1460    9.5070   10.0600 O.2   195  PHE195     -0.2867
    106  CB       -22.2420    8.9550    7.7280 C.3   195  PHE195      0.0534
    107  CG       -22.8980    9.7160    6.5940 C.ar  195  PHE195     -0.0203
    108  CD1      -24.2870    9.7470    6.4600 C.ar  195  PHE195     -0.0042
    109  CD2      -22.1200   10.4340    5.6810 C.ar  195  PHE195     -0.0042
    110  CE1      -24.8680   10.4870    5.4410 C.ar  195  PHE195     -0.0003
    111  CE2      -22.7100   11.1570    4.6470 C.ar  195  PHE195     -0.0003
    112  CZ       -24.0840   11.1890    4.5390 C.ar  195  PHE195     -0.0000
    113  N        -40.1050    9.2770    8.2210 N.3   250  GLN250     -0.1245
    114  CA       -39.0550    8.5090    7.5530 C.3   250  GLN250      0.1566
    115  C        -38.6580    7.3410    8.4660 C.2   250  GLN250      0.2260
    116  O        -38.3380    7.5510    9.6430 O.2   250  GLN250     -0.2867
    117  CB       -37.8750    9.4400    7.2470 C.3   250  GLN250      0.0367
    118  CG       -36.8880    8.9810    6.1600 C.3   250  GLN250      0.0905
    119  CD       -35.8010    8.0740    6.6810 C.2   250  GLN250      0.2608
    120  OE1      -35.9310    7.4660    7.7440 O.2   250  GLN250     -0.2717
    121  NE2      -34.7090    7.9600    5.9200 N.am  250  GLN250     -0.0878
    122  N        -32.2200    0.8320    8.7920 N.3   254  ASP254     -0.1239
    123  CA       -30.8250    0.6020    9.1490 C.3   254  ASP254      0.1674
    124  C        -30.5530    0.6280   10.6480 C.2   254  ASP254      0.2266
    125  O        -29.4080    0.4610   11.0670 O.2   254  ASP254     -0.2867
    126  CB       -29.8540    1.4790    8.3370 C.3   254  ASP254      0.1410
    127  CG       -30.2520    2.9550    8.2630 C.2   254  ASP254      0.3668
    128  OD1      -31.2440    3.3770    8.9250 O.co2 254  ASP254     -0.2456
    129  OD2      -29.5410    3.6970    7.5120 O.co2 254  ASP254     -0.2456
    130  N        -24.5460   -2.4200    9.2260 N.3   261  MET261     -0.1245
    131  CA       -23.9850   -1.2890    9.9530 C.3   261  MET261      0.1570
    132  C        -23.9020   -1.5410   11.4600 C.2   261  MET261      0.2261
    133  O        -23.1680   -0.8490   12.1580 O.2   261  MET261     -0.2867
    134  CB       -24.7370   -0.0100    9.6410 C.3   261  MET261      0.0387
    135  CG       -24.5720    0.3970    8.1930 C.3   261  MET261      0.0595
    136  SD       -25.2130    2.0450    7.8880 S.3   261  MET261     -0.1393
    137  CE       -24.6050    2.2880    6.2120 C.3   261  MET261      0.0692
    138  N        -36.0400    4.5910    3.5740 N.3   290  GLY290     -0.1210
    139  CA       -34.7490    5.2590    3.7460 C.3   290  GLY290      0.1956
    140  C        -33.6590    4.2050    3.7110 C.2   290  GLY290      0.2612
    141  O        -33.6720    3.3190    2.8470 O.2   290  GLY290     -0.2717
    142  N        -32.7120    4.2890    4.6330 N.am  291  GLY291     -0.1956
    143  CA       -31.6800    3.2700    4.7190 C.3   291  GLY291      0.1869
    144  C        -32.2220    1.8910    5.0850 C.2   291  GLY291      0.2309
    145  O        -33.4060    1.7230    5.3890 O.2   291  GLY291     -0.2863
    146  N        -29.8950   -2.0080    5.0150 N.3   293  PHE293     -0.1241
    147  CA       -28.8710   -2.6790    4.2280 C.3   293  PHE293      0.1605
    148  C        -28.7910   -4.1680    4.5020 C.2   293  PHE293      0.2264
    149  O        -27.9000   -4.8410    3.9900 O.2   293  PHE293     -0.2867
    150  CB       -27.5190   -1.9470    4.4090 C.3   293  PHE293      0.0534
    151  CG       -27.6680   -0.4730    4.1890 C.ar  293  PHE293     -0.0203
    152  CD1      -27.8950    0.0180    2.9120 C.ar  293  PHE293     -0.0042
    153  CD2      -27.7320    0.4240    5.2630 C.ar  293  PHE293     -0.0042
    154  CE1      -28.1250    1.3720    2.6860 C.ar  293  PHE293     -0.0003
    155  CE2      -27.9790    1.7770    5.0450 C.ar  293  PHE293     -0.0003
    156  CZ       -28.1650    2.2460    3.7680 C.ar  293  PHE293     -0.0000
@<TRIPOS>BOND
     1     1     2    1
     2    10    11    1
     3    11    12    1
     4    11    14    1
     5    13    12    2
     6    12    22   am
     7     9     8    1
     8    80    81    2
     9    80    79    1
    10    24    25    2
    11    24    23    1
    12     2     3    1
    13     2     5    1
    14    16    18   ar
    15    16    15   ar
    16    14    15    1
    17    70    69    2
    18     6     7    1
    19     6     5    1
    20     8     7    1
    21    22    23    1
    22    18    20   ar
    23     3     4    2
    24    15    17   ar
    25    79    78    1
    26    79    82    1
    27    69    78   am
    28    69    68    1
    29    23    26    1
    30    42    40   ar
    31    42    43   ar
    32    40    39   ar
    33    68    71    1
    34    68    67    1
    35    43    45   ar
    36    43    41   ar
    37    39    38    1
    38    39    41   ar
    39    20    21    1
    40    20    19   ar
    41    45    47   ar
    42    82    83    1
    43    71    72    1
    44    17    19   ar
    45    38    35    1
    46    41    44   ar
    47    26    27    1
    48    67    65   am
    49    47    46   ar
    50    74    72   ar
    51    74    76   ar
    52    44    46   ar
    53    72    73   ar
    54    37    36    2
    55    27    28   ar
    56    27    29   ar
    57    76    77   ar
    58    35    34    1
    59    35    36    1
    60    65    66    2
    61    65    64    1
    62    63    64    1
    63    30    31    1
    64    34    32   am
    65    73    75   ar
    66    36    48   am
    67    77    75   ar
    68    55    56    2
    69    55    54    1
    70    32    31    1
    71    32    33    2
    72   154   152   ar
    73   154   156   ar
    74    48    49    1
    75   141   140    2
    76   152   151   ar
    77    53    54    1
    78    53    50   am
    79    54    57    1
    80    57    58    1
    81    49    50    1
    82    49    52    1
    83    50    51    2
    84   138   139    1
    85   140   139    1
    86   140   142   am
    87   156   155   ar
    88   149   148    2
    89   151   150    1
    90   151   153   ar
    91    60    58   ar
    92    60    62   ar
    93   147   150    1
    94   147   148    1
    95   147   146    1
    96    58    59   ar
    97   112   111   ar
    98   112   110   ar
    99   142   143    1
   100   111   109   ar
   101   143   144    1
   102   155   153   ar
   103   144   145    2
   104   110   108   ar
   105    62    61   ar
   106    59    61   ar
   107   109   107   ar
   108   121   119   am
   109   118   119    1
   110   118   117    1
   111   137   136    1
   112   108   107   ar
   113   107   106    1
   114   119   120    2
   115    90    89   ar
   116   117   114    1
   117   129   127   ar
   118   114   113    1
   119   114   115    1
   120   106   103    1
   121   136   135    1
   122   100    98   ar
   123   100   101   ar
   124    89    91   ar
   125    89    88    1
   126    98    97   ar
   127   135   134    1
   128   127   126    1
   129   127   128   ar
   130   126   123    1
   131   101    99   ar
   132   115   116    2
   133    97    99   ar
   134    97    96    1
   135   122   123    1
   136    96    93    1
   137    88    85    1
   138   103   104    1
   139   103   102    1
   140   123   124    1
   141   130   131    1
   142   104   105    2
   143   134   131    1
   144   131   132    1
   145    85    84    1
   146    85    86    1
   147    95    94    2
   148    93    94    1
   149    93    92    1
   150   124   125    2
   151    86    87    2
   152   132   133    2
