@<TRIPOS>MOLECULE
tmp/5dccA04.pdb
 95 95 0 0 0
SMALL
GASTEIGER

@<TRIPOS>ATOM
      1  N          2.1420   12.8150  115.4890 N.3    34  ALA34      -0.1231
      2  CA         3.0470   13.8860  115.8920 C.3    34  ALA34       0.1694
      3  C          4.4950   13.5310  115.5730 C.2    34  ALA34       0.2592
      4  O          5.3570   14.4030  115.5100 O.2    34  ALA34      -0.2718
      5  CB         2.8960   14.1790  117.3750 C.3    34  ALA34       0.0304
      6  N          4.7580   12.2440  115.3760 N.am   35  ALA35      -0.1966
      7  CA         6.1240   11.7680  115.2150 C.3    35  ALA35       0.1728
      8  C          6.1580   10.3390  114.6920 C.2    35  ALA35       0.2616
      9  O          5.5890    9.4320  115.3020 O.2    35  ALA35      -0.2715
     10  CB         6.8710   11.8600  116.5430 C.3    35  ALA35       0.0334
     11  N          6.8300   10.1400  113.5640 N.am   36  VAL36      -0.1963
     12  CA         7.0270    8.7970  113.0360 C.3    36  VAL36       0.1727
     13  C          8.4450    8.6290  112.5040 C.2    36  VAL36       0.2617
     14  O          8.8720    9.3560  111.6060 O.2    36  VAL36      -0.2715
     15  CB         6.0220    8.4640  111.9100 C.3    36  VAL36       0.0290
     16  CG1        6.2350    7.0430  111.4210 C.3    36  VAL36       0.0023
     17  CG2        4.5940    8.6470  112.3950 C.3    36  VAL36       0.0023
     18  N          9.1710    7.6680  113.0710 N.am   37  THR37      -0.1937
     19  CA        10.4960    7.3170  112.5790 C.3    37  THR37       0.2028
     20  C         10.6120    5.8180  112.3220 C.2    37  THR37       0.2642
     21  O         10.0320    4.9990  113.0380 O.2    37  THR37      -0.2714
     22  CB        11.6040    7.7400  113.5570 C.3    37  THR37       0.1808
     23  OG1       11.3540    7.1680  114.8460 O.3    37  THR37      -0.2208
     24  CG2       11.6620    9.2580  113.6810 C.3    37  THR37       0.0379
     25  N         11.3520    5.4740  111.2750 N.am   38  MET38      -0.1962
     26  CA        11.7090    4.0940  111.0000 C.3    38  MET38       0.1736
     27  C         13.2010    4.0420  110.7120 C.2    38  MET38       0.2616
     28  O         13.6940    4.7620  109.8450 O.2    38  MET38      -0.2715
     29  CB        10.9080    3.5280  109.8220 C.3    38  MET38       0.0427
     30  CG        11.1500    2.0330  109.5910 C.3    38  MET38       0.0599
     31  SD        10.3670    1.3280  108.1190 S.3    38  MET38      -0.1393
     32  CE         8.6670    1.2120  108.6340 C.3    38  MET38       0.0692
     33  N         13.9180    3.2090  111.4600 N.am   39  VAL39      -0.1977
     34  CA        15.3520    3.0220  111.2590 C.3    39  VAL39       0.1596
     35  C         15.6490    1.5650  110.9510 C.2    39  VAL39       0.2287
     36  O         14.9260    0.6810  111.3980 O.2    39  VAL39      -0.2864
     37  CB        16.1720    3.4430  112.5040 C.3    39  VAL39       0.0276
     38  CG1       15.9250    4.9000  112.8490 C.3    39  VAL39       0.0022
     39  CG2       15.8370    2.5440  113.6840 C.3    39  VAL39       0.0022
     40  N         18.0930    6.0260  109.3090 N.3    45  PRO45      -0.2102
     41  CA        16.6890    6.3930  109.1010 C.3    45  PRO45       0.1504
     42  C         16.1980    6.0350  107.7030 C.2    45  PRO45       0.2576
     43  O         16.9710    6.0650  106.7470 O.2    45  PRO45      -0.2718
     44  CB        16.6840    7.9150  109.2980 C.3    45  PRO45       0.0282
     45  CG        17.9720    8.2300  109.9970 C.3    45  PRO45       0.0208
     46  CD        18.9460    7.2060  109.5210 C.3    45  PRO45       0.0893
     47  N         14.9190    5.6960  107.5970 N.am   46  VAL46      -0.1966
     48  CA        14.2930    5.4240  106.3140 C.3    46  VAL46       0.1727
     49  C         13.4580    6.6340  105.9170 C.2    46  VAL46       0.2616
     50  O         12.7680    7.2110  106.7530 O.2    46  VAL46      -0.2715
     51  CB        13.4120    4.1630  106.3730 C.3    46  VAL46       0.0290
     52  CG1       12.5790    4.0310  105.1100 C.3    46  VAL46       0.0023
     53  CG2       14.2710    2.9290  106.5870 C.3    46  VAL46       0.0023
     54  N         13.5370    7.0340  104.6530 N.am   47  ALA47      -0.1963
     55  CA        12.7760    8.1870  104.1900 C.3    47  ALA47       0.1728
     56  C         11.2810    7.9010  104.2520 C.2    47  ALA47       0.2617
     57  O         10.8240    6.8440  103.8130 O.2    47  ALA47      -0.2715
     58  CB        13.1860    8.5680  102.7720 C.3    47  ALA47       0.0334
     59  N         10.5260    8.8480  104.8010 N.am   48  GLY48      -0.1940
     60  CA         9.0850    8.7190  104.8950 C.3    48  GLY48       0.2014
     61  C          8.3850   10.0430  104.6680 C.2    48  GLY48       0.2639
     62  O          9.0260   11.0860  104.5790 O.2    48  GLY48      -0.2714
     63  N          7.0610   10.0020  104.5780 N.am   49  ARG49      -0.1963
     64  CA         6.2750   11.1970  104.2960 C.3    49  ARG49       0.1729
     65  C          4.9760   11.2110  105.0910 C.2    49  ARG49       0.2616
     66  O          4.2160   10.2430  105.0780 O.2    49  ARG49      -0.2715
     67  CB         5.9640   11.2970  102.8000 C.3    49  ARG49       0.0348
     68  CG         5.0220   12.4420  102.4390 C.3    49  ARG49       0.0492
     69  CD         4.4160   12.2560  101.0460 C.3    49  ARG49       0.2205
     70  NE         3.5050   13.3450  100.6870 N.pl3  49  ARG49      -0.0865
     71  CZ         2.1880   13.3290  100.8970 C.cat  49  ARG49       0.5346
     72  NH1        1.6060   12.2770  101.4710 N.pl3  49  ARG49       0.1354
     73  NH2        1.4470   14.3690  100.5320 N.pl3  49  ARG49       0.1354
     74  N          4.7270   12.3170  105.7810 N.am   50  LEU50      -0.1977
     75  CA         3.4920   12.4900  106.5270 C.3    50  LEU50       0.1596
     76  C          2.4850   13.2790  105.7000 C.2    50  LEU50       0.2287
     77  O          2.8280   14.3060  105.1170 O.2    50  LEU50      -0.2864
     78  CB         3.7700   13.1940  107.8570 C.3    50  LEU50       0.0297
     79  CG         2.5750   13.4730  108.7730 C.3    50  LEU50       0.0022
     80  CD1        1.7900   12.1930  109.0370 C.3    50  LEU50       0.0001
     81  CD2        3.0430   14.1040  110.0860 C.3    50  LEU50       0.0001
     82  N          1.2130    8.3210  107.5570 N.3    57  TRP57      -0.1241
     83  CA         2.6430    8.3620  107.2630 C.3    57  TRP57       0.1605
     84  C          3.0340    7.1240  106.4770 C.2    57  TRP57       0.2264
     85  O          2.5820    6.0120  106.7780 O.2    57  TRP57      -0.2867
     86  CB         3.4840    8.4430  108.5420 C.3    57  TRP57       0.0550
     87  CG         4.9780    8.3830  108.2990 C.ar   57  TRP57       0.0003
     88  CD1        5.8290    9.4430  108.1660 C.ar   57  TRP57       0.0946
     89  CD2        5.7870    7.2040  108.1630 C.ar   57  TRP57       0.0152
     90  NE1        7.1120    8.9990  107.9560 N.ar   57  TRP57      -0.2442
     91  CE2        7.1140    7.6290  107.9500 C.ar   57  TRP57       0.0810
     92  CE3        5.5170    5.8320  108.2010 C.ar   57  TRP57       0.0012
     93  CZ2        8.1690    6.7310  107.7780 C.ar   57  TRP57       0.0191
     94  CZ3        6.5670    4.9440  108.0290 C.ar   57  TRP57       0.0001
     95  CH2        7.8730    5.3970  107.8200 C.ar   57  TRP57       0.0015
@<TRIPOS>BOND
     1    73    71    1
     2    70    71    2
     3    70    69    1
     4    71    72    1
     5    69    68    1
     6    68    67    1
     7    58    55    1
     8    67    64    1
     9    57    56    2
    10    55    56    1
    11    55    54    1
    12    56    59   am
    13    64    63    1
    14    64    65    1
    15    63    61   am
    16    62    61    2
    17    54    49   am
    18    61    60    1
    19    59    60    1
    20    66    65    2
    21    65    74   am
    22    52    51    1
    23    77    76    2
    24    76    75    1
    25    74    75    1
    26    49    48    1
    27    49    50    2
    28    48    51    1
    29    48    47    1
    30    51    53    1
    31    84    85    2
    32    84    83    1
    33    75    78    1
    34    43    42    2
    35    83    82    1
    36    83    86    1
    37    47    42   am
    38    42    41    1
    39    93    95   ar
    40    93    91   ar
    41    95    94   ar
    42    78    79    1
    43    91    90   ar
    44    91    89   ar
    45    90    88   ar
    46    94    92   ar
    47    31    32    1
    48    31    30    1
    49    89    92   ar
    50    89    87   ar
    51    88    87   ar
    52    87    86    1
    53    79    80    1
    54    79    81    1
    55    41    44    1
    56    41    40    1
    57    44    45    1
    58    40    46    1
    59    46    45    1
    60    30    29    1
    61    29    26    1
    62    28    27    2
    63    27    26    1
    64    27    33   am
    65    35    34    1
    66    35    36    2
    67    26    25    1
    68    34    33    1
    69    34    37    1
    70    25    20   am
    71    16    15    1
    72    14    13    2
    73    15    17    1
    74    15    12    1
    75    20    19    1
    76    20    21    2
    77    37    38    1
    78    37    39    1
    79    13    12    1
    80    13    18   am
    81    19    18    1
    82    19    22    1
    83    12    11    1
    84    22    24    1
    85    22    23    1
    86    11     8   am
    87     8     7    1
    88     8     9    2
    89     7     6    1
    90     7    10    1
    91     6     3   am
    92     1     2    1
    93     4     3    2
    94     3     2    1
    95     2     5    1
