@<TRIPOS>MOLECULE
tmp/5dccB05.pdb
 111 103 0 0 0
SMALL
GASTEIGER

@<TRIPOS>ATOM
      1  N        -17.3270  -19.3470   40.2040 N.3   102  MET102     -0.1245
      2  CA       -17.2340  -19.7630   38.8070 C.3   102  MET102      0.1570
      3  C        -15.7670  -19.9400   38.4300 C.2   102  MET102      0.2261
      4  O        -14.9010  -19.2610   38.9810 O.2   102  MET102     -0.2867
      5  CB       -17.9050  -18.7370   37.8950 C.3   102  MET102      0.0387
      6  CG       -19.4220  -18.7200   37.9990 C.3   102  MET102      0.0595
      7  SD       -20.1790  -20.0420   37.0350 S.3   102  MET102     -0.1393
      8  CE       -19.7920  -19.4800   35.3750 C.3   102  MET102      0.0692
      9  N         -9.8280  -18.1760   31.4870 N.3   113  GLU113     -0.1231
     10  CA       -10.8110  -18.2580   32.5620 C.3   113  GLU113      0.1684
     11  C        -10.2210  -17.9050   33.9180 C.2   113  GLU113      0.2434
     12  O         -9.3670  -18.6270   34.4310 O.2   113  GLU113     -0.2733
     13  CB       -11.4180  -19.6590   32.6320 C.3   113  GLU113      0.0402
     14  CG       -12.5980  -19.7700   33.5790 C.3   113  GLU113      0.1161
     15  CD       -13.8400  -19.0830   33.0410 C.2   113  GLU113      0.3649
     16  OE1      -13.7180  -18.2640   32.1090 O.co2 113  GLU113     -0.2457
     17  OE2      -14.9450  -19.3660   33.5460 O.co2 113  GLU113     -0.2457
     18  N        -10.6840  -16.7960   34.5100 N.am  114  PRO114     -0.2729
     19  CA       -10.2770  -16.4330   35.8660 C.3   114  PRO114      0.1401
     20  C        -11.1250  -17.1730   36.8900 C.2   114  PRO114      0.2269
     21  O        -12.2340  -17.6010   36.5630 O.2   114  PRO114     -0.2865
     22  CB       -10.5620  -14.9370   35.9180 C.3   114  PRO114      0.0296
     23  CG       -11.8120  -14.8110   35.0830 C.3   114  PRO114      0.0237
     24  CD       -11.6550  -15.8310   33.9600 C.3   114  PRO114      0.0939
     25  N        -13.6210  -16.9350   39.8480 N.3   116  ALA116     -0.1245
     26  CA       -14.5700  -15.9020   40.2400 C.3   116  ALA116      0.1562
     27  C        -15.3370  -16.2700   41.5070 C.2   116  ALA116      0.2260
     28  O        -15.9740  -17.3210   41.5850 O.2   116  ALA116     -0.2867
     29  CB       -15.5330  -15.6240   39.1050 C.3   116  ALA116      0.0290
     30  N        -17.8770   -8.9910   43.6290 N.3   152  GLU152     -0.1245
     31  CA       -17.1710  -10.0540   42.9250 C.3   152  GLU152      0.1567
     32  C        -15.6710   -9.7970   42.8960 C.2   152  GLU152      0.2260
     33  O        -15.2200   -8.7030   42.5570 O.2   152  GLU152     -0.2867
     34  CB       -17.7120  -10.2110   41.4990 C.3   152  GLU152      0.0388
     35  CG       -17.1530  -11.4190   40.7600 C.3   152  GLU152      0.1160
     36  CD       -18.0080  -11.8440   39.5740 C.2   152  GLU152      0.3649
     37  OE1      -19.1460  -11.3500   39.4440 O.co2 152  GLU152     -0.2457
     38  OE2      -17.5410  -12.6820   38.7700 O.co2 152  GLU152     -0.2457
     39  N        -11.8540  -11.5390   41.5830 N.3   154  ARG154     -0.1245
     40  CA       -11.3160  -12.4520   40.5880 C.3   154  ARG154      0.1563
     41  C         -9.8960  -12.8470   40.9560 C.2   154  ARG154      0.2260
     42  O         -9.1810  -12.0930   41.6230 O.2   154  ARG154     -0.2867
     43  CB       -11.3410  -11.8160   39.1890 C.3   154  ARG154      0.0307
     44  CG       -12.7370  -11.4780   38.6590 C.3   154  ARG154      0.0489
     45  CD       -13.5070  -12.7220   38.2410 C.3   154  ARG154      0.2205
     46  NE       -14.8550  -12.4200   37.7470 N.pl3 154  ARG154     -0.0865
     47  CZ       -15.1260  -12.0080   36.5070 C.cat 154  ARG154      0.5346
     48  NH1      -14.1420  -11.8300   35.6290 N.pl3 154  ARG154      0.1354
     49  NH2      -16.3800  -11.7630   36.1420 N.pl3 154  ARG154      0.1354
     50  N        -17.7620  -16.2760   27.4950 N.3   240  GLY240     -0.1210
     51  CA       -18.6900  -16.5760   28.5710 C.3   240  GLY240      0.1956
     52  C        -19.6850  -17.6630   28.2070 C.2   240  GLY240      0.2612
     53  O        -19.2920  -18.7440   27.7800 O.2   240  GLY240     -0.2717
     54  N        -20.9740  -17.3790   28.3670 N.am  241  SER241     -0.1952
     55  CA       -22.0130  -18.3750   28.1180 C.3   241  SER241      0.1924
     56  C        -22.3150  -18.5460   26.6330 C.2   241  SER241      0.2314
     57  O        -21.8830  -17.7420   25.8030 O.2   241  SER241     -0.2863
     58  CB       -23.2960  -18.0030   28.8590 C.3   241  SER241      0.2116
     59  OG       -23.0750  -17.9400   30.2530 O.3   241  SER241     -0.2180
     60  N        -25.4800  -19.7530   23.6490 N.3   243  TYR243     -0.1241
     61  CA       -26.9110  -19.9110   23.4250 C.3   243  TYR243      0.1605
     62  C        -27.2380  -20.3740   22.0140 C.2   243  TYR243      0.2264
     63  O        -26.8130  -19.7550   21.0430 O.2   243  TYR243     -0.2867
     64  CB       -27.6400  -18.5940   23.7090 C.3   243  TYR243      0.0534
     65  CG       -27.3280  -17.9880   25.0620 C.ar  243  TYR243     -0.0201
     66  CD1      -28.0310  -18.3720   26.1960 C.ar  243  TYR243     -0.0009
     67  CD2      -26.3300  -17.0310   25.2030 C.ar  243  TYR243     -0.0009
     68  CE1      -27.7540  -17.8170   27.4350 C.ar  243  TYR243      0.0417
     69  CE2      -26.0440  -16.4740   26.4350 C.ar  243  TYR243      0.0417
     70  CZ       -26.7600  -16.8700   27.5490 C.ar  243  TYR243      0.1957
     71  OH       -26.4860  -16.3190   28.7810 O.3   243  TYR243     -0.2866
     72  N        -21.4670  -15.2660   24.2360 N.3   272  GLN272     -0.1245
     73  CA       -21.2280  -13.9920   24.9130 C.3   272  GLN272      0.1566
     74  C        -19.7440  -13.8010   25.2050 C.2   272  GLN272      0.2260
     75  O        -19.0830  -14.7240   25.6830 O.2   272  GLN272     -0.2867
     76  CB       -22.0270  -13.9040   26.2200 C.3   272  GLN272      0.0367
     77  CG       -21.8490  -12.5760   26.9480 C.3   272  GLN272      0.0905
     78  CD       -22.8490  -12.3620   28.0830 C.2   272  GLN272      0.2608
     79  OE1      -23.3090  -13.3120   28.7160 O.2   272  GLN272     -0.2717
     80  NE2      -23.1830  -11.1020   28.3420 N.am  272  GLN272     -0.0878
     81  N        -19.8150   -8.5380   29.2350 N.3   275  TYR275     -0.1241
     82  CA       -21.0170   -8.2020   29.9920 C.3   275  TYR275      0.1605
     83  C        -21.7440   -7.0180   29.3650 C.2   275  TYR275      0.2264
     84  O        -22.9520   -6.8690   29.5310 O.2   275  TYR275     -0.2867
     85  CB       -20.6860   -7.8630   31.4460 C.3   275  TYR275      0.0534
     86  CG       -20.4700   -9.0390   32.3740 C.ar  275  TYR275     -0.0201
     87  CD1      -19.9980  -10.2590   31.9020 C.ar  275  TYR275     -0.0009
     88  CD2      -20.7380   -8.9200   33.7350 C.ar  275  TYR275     -0.0009
     89  CE1      -19.7980  -11.3280   32.7620 C.ar  275  TYR275      0.0417
     90  CE2      -20.5430   -9.9830   34.6010 C.ar  275  TYR275      0.0417
     91  CZ       -20.0730  -11.1850   34.1110 C.ar  275  TYR275      0.1957
     92  OH       -19.8800  -12.2410   34.9770 O.3   275  TYR275     -0.2866
     93  N        -16.2750  -21.7730   27.2370 N.3   316  ARG316     -0.1245
     94  CA       -16.0570  -20.7980   28.2960 C.3   316  ARG316      0.1563
     95  C        -14.5770  -20.7120   28.6710 C.2   316  ARG316      0.2260
     96  O        -13.9370  -21.7290   28.9460 O.2   316  ARG316     -0.2867
     97  CB       -16.8880  -21.1580   29.5290 C.3   316  ARG316      0.0307
     98  CG       -16.7640  -20.1530   30.6640 C.3   316  ARG316      0.0489
     99  CD       -17.5690  -20.5770   31.8850 C.3   316  ARG316      0.2205
    100  NE       -18.9870  -20.7370   31.5740 N.pl3 316  ARG316     -0.0865
    101  CZ       -19.8630  -19.7360   31.5480 C.cat 316  ARG316      0.5346
    102  NH1      -21.1340  -19.9750   31.2560 N.pl3 316  ARG316      0.1354
    103  NH2      -19.4690  -18.4970   31.8120 N.pl3 316  ARG316      0.1354
    104  N        -15.7950   -9.5910   31.7750 N.3   336  LEU336     -0.1245
    105  CA       -15.0660  -10.5030   30.8970 C.3   336  LEU336      0.1561
    106  C        -13.8200   -9.8210   30.3180 C.2   336  LEU336      0.2260
    107  O        -13.1880  -10.3330   29.3950 O.2   336  LEU336     -0.2867
    108  CB       -15.9710  -11.0060   29.7720 C.3   336  LEU336      0.0270
    109  CG       -17.1540  -11.8790   30.2030 C.3   336  LEU336      0.0019
    110  CD1      -18.0490  -12.2310   29.0160 C.3   336  LEU336      0.0001
    111  CD2      -16.6630  -13.1440   30.8980 C.3   336  LEU336      0.0001
@<TRIPOS>BOND
     1    63    62    2
     2    62    61    1
     3    61    60    1
     4    61    64    1
     5    64    65    1
     6    72    73    1
     7    73    74    1
     8    73    76    1
     9    65    67   ar
    10    65    66   ar
    11    67    69   ar
    12    74    75    2
    13    57    56    2
    14    66    68   ar
    15    76    77    1
    16    69    70   ar
    17    56    55    1
    18    77    78    1
    19    93    94    1
    20    68    70   ar
    21    50    51    1
    22    70    71    1
    23    53    52    2
    24    78    80   am
    25    78    79    2
    26    55    54    1
    27    55    58    1
    28    52    54   am
    29    52    51    1
    30    94    95    1
    31    94    97    1
    32    95    96    2
    33    58    59    1
    34   110   109    1
    35    81    82    1
    36    83    84    2
    37    83    82    1
    38   107   106    2
    39    97    98    1
    40   108   109    1
    41   108   105    1
    42    82    85    1
    43   109   111    1
    44   106   105    1
    45    98    99    1
    46   105   104    1
    47   102   101    1
    48    85    86    1
    49     9    10    1
    50   101   100    2
    51   101   103    1
    52   100    99    1
    53    87    86   ar
    54    87    89   ar
    55    16    15   ar
    56    86    88   ar
    57    10    13    1
    58    10    11    1
    59    13    14    1
    60    89    91   ar
    61    15    17   ar
    62    15    14    1
    63    88    90   ar
    64    11    12    2
    65    11    18   am
    66    24    18    1
    67    24    23    1
    68    91    90   ar
    69    91    92    1
    70    18    19    1
    71    23    22    1
    72     8     7    1
    73    48    47    1
    74    19    22    1
    75    19    20    1
    76    49    47    1
    77    47    46    2
    78    21    20    2
    79     7     6    1
    80    46    45    1
    81     5     6    1
    82     5     2    1
    83    45    44    1
    84     3     2    1
    85     3     4    2
    86    44    43    1
    87    38    36   ar
    88     2     1    1
    89    29    26    1
    90    43    40    1
    91    37    36   ar
    92    36    35    1
    93    25    26    1
    94    26    27    1
    95    40    41    1
    96    40    39    1
    97    35    34    1
    98    41    42    2
    99    34    31    1
   100    27    28    2
   101    33    32    2
   102    32    31    1
   103    31    30    1
