@<TRIPOS>MOLECULE
tmp/5dccB06.pdb
 103 99 0 0 0
SMALL
GASTEIGER

@<TRIPOS>ATOM
      1  N        -12.4650   -6.6780   52.2810 N.3   126  ARG126     -0.1245
      2  CA       -12.0180   -7.5230   51.1780 C.3   126  ARG126      0.1563
      3  C        -10.8200   -8.3760   51.5720 C.2   126  ARG126      0.2260
      4  O        -10.6920   -9.5210   51.1310 O.2   126  ARG126     -0.2867
      5  CB       -11.6790   -6.6660   49.9580 C.3   126  ARG126      0.0307
      6  CG       -12.8530   -5.8540   49.4390 C.3   126  ARG126      0.0489
      7  CD       -12.4200   -4.8750   48.3640 C.3   126  ARG126      0.2205
      8  NE       -13.5640   -4.2550   47.7070 N.pl3 126  ARG126     -0.0865
      9  CZ       -13.4770   -3.4330   46.6670 C.cat 126  ARG126      0.5346
     10  NH1      -12.2940   -3.1240   46.1590 N.pl3 126  ARG126      0.1354
     11  NH2      -14.5760   -2.9200   46.1360 N.pl3 126  ARG126      0.1354
     12  N         -8.3460   -9.5100   42.4260 N.3   146  TYR146     -0.1227
     13  CA        -8.7290   -8.1560   42.0640 C.3   146  TYR146      0.1736
     14  C        -10.2450   -8.0460   42.0660 C.2   146  TYR146      0.2595
     15  O        -10.9390   -8.9420   41.5950 O.2   146  TYR146     -0.2718
     16  CB        -8.1640   -7.7760   40.6970 C.3   146  TYR146      0.0548
     17  CG        -8.2250   -6.2900   40.3980 C.ar  146  TYR146     -0.0200
     18  CD1       -9.3010   -5.7440   39.7090 C.ar  146  TYR146     -0.0009
     19  CD2       -7.2050   -5.4340   40.8030 C.ar  146  TYR146     -0.0009
     20  CE1       -9.3620   -4.3940   39.4310 C.ar  146  TYR146      0.0417
     21  CE2       -7.2580   -4.0800   40.5290 C.ar  146  TYR146      0.0417
     22  CZ        -8.3420   -3.5640   39.8400 C.ar  146  TYR146      0.1957
     23  OH        -8.4070   -2.2130   39.5580 O.3   146  TYR146     -0.2866
     24  N        -10.7610   -6.9490   42.5990 N.am  147  TRP147     -0.1962
     25  CA       -12.1990   -6.7840   42.7100 C.3   147  TRP147      0.1771
     26  C        -12.7660   -6.0040   41.5320 C.2   147  TRP147      0.2619
     27  O        -12.3800   -4.8660   41.2850 O.2   147  TRP147     -0.2715
     28  CB       -12.5420   -6.0990   44.0320 C.3   147  TRP147      0.0590
     29  CG       -12.2210   -6.9690   45.2090 C.ar  147  TRP147      0.0006
     30  CD1      -10.9850   -7.2170   45.7340 C.ar  147  TRP147      0.0946
     31  CD2      -13.1490   -7.7290   45.9920 C.ar  147  TRP147      0.0152
     32  NE1      -11.0870   -8.0790   46.7980 N.ar  147  TRP147     -0.2442
     33  CE2      -12.4060   -8.4080   46.9780 C.ar  147  TRP147      0.0810
     34  CE3      -14.5370   -7.9000   45.9570 C.ar  147  TRP147      0.0012
     35  CZ2      -13.0020   -9.2420   47.9210 C.ar  147  TRP147      0.0191
     36  CZ3      -15.1260   -8.7310   46.8920 C.ar  147  TRP147      0.0001
     37  CH2      -14.3590   -9.3900   47.8620 C.ar  147  TRP147      0.0015
     38  N        -13.6830   -6.6260   40.7990 N.am  148  LEU148     -0.1963
     39  CA       -14.3220   -5.9680   39.6650 C.3   148  LEU148      0.1728
     40  C        -15.3710   -4.9780   40.1450 C.2   148  LEU148      0.2616
     41  O        -15.6170   -3.9620   39.5070 O.2   148  LEU148     -0.2715
     42  CB       -14.9590   -6.9950   38.7320 C.3   148  LEU148      0.0311
     43  CG       -14.0180   -8.0480   38.1490 C.3   148  LEU148      0.0022
     44  CD1      -14.7270   -8.8550   37.0690 C.3   148  LEU148      0.0001
     45  CD2      -12.7470   -7.4060   37.6130 C.3   148  LEU148      0.0001
     46  N        -15.9910   -5.2990   41.2730 N.am  149  ASN149     -0.1958
     47  CA       -16.9800   -4.4380   41.9110 C.3   149  ASN149      0.1819
     48  C        -16.9970   -4.7590   43.4090 C.2   149  ASN149      0.2621
     49  O        -16.0840   -5.4250   43.8980 O.2   149  ASN149     -0.2715
     50  CB       -18.3660   -4.6150   41.2670 C.3   149  ASN149      0.1195
     51  CG       -18.8490   -6.0620   41.2780 C.2   149  ASN149      0.2630
     52  OD1      -18.7810   -6.7490   42.2990 O.2   149  ASN149     -0.2716
     53  ND2      -19.3410   -6.5300   40.1340 N.am  149  ASN149     -0.0877
     54  N        -18.0140   -4.3060   44.1400 N.am  150  ASN150     -0.1972
     55  CA       -18.0420   -4.5260   45.5930 C.3   150  ASN150      0.1688
     56  C        -18.4150   -5.9400   46.0150 C.2   150  ASN150      0.2292
     57  O        -18.3870   -6.2600   47.2030 O.2   150  ASN150     -0.2864
     58  CB       -19.0090   -3.5540   46.2710 C.3   150  ASN150      0.1181
     59  CG       -18.5030   -2.1310   46.2660 C.2   150  ASN150      0.2629
     60  OD1      -17.2950   -1.8830   46.3210 O.2   150  ASN150     -0.2716
     61  ND2      -19.4260   -1.1830   46.2040 N.am  150  ASN150     -0.0877
     62  N        -11.5090   -3.0290   31.8860 N.3   332  GLY332     -0.1210
     63  CA       -10.9510   -4.1490   32.6210 C.3   332  GLY332      0.1956
     64  C        -11.9490   -4.7880   33.5670 C.2   332  GLY332      0.2611
     65  O        -11.8760   -5.9890   33.8490 O.2   332  GLY332     -0.2717
     66  N        -12.8920   -3.9830   34.0490 N.am  333  ILE333     -0.1979
     67  CA       -13.8810   -4.4500   35.0100 C.3   333  ILE333      0.1595
     68  C        -15.2390   -4.7380   34.3650 C.2   333  ILE333      0.2287
     69  O        -16.2720   -4.7000   35.0410 O.2   333  ILE333     -0.2864
     70  CB       -14.0800   -3.4260   36.1440 C.3   333  ILE333      0.0276
     71  CG1      -14.6020   -2.1010   35.5860 C.3   333  ILE333      0.0022
     72  CG2      -12.7810   -3.2160   36.9150 C.3   333  ILE333      0.0022
     73  CD1      -14.9090   -1.0720   36.6590 C.3   333  ILE333      0.0001
     74  N         -6.4650   -5.4370   32.1620 N.3   341  ILE341     -0.1245
     75  CA        -5.8270   -4.7580   33.2810 C.3   341  ILE341      0.1561
     76  C         -4.3620   -5.1600   33.3530 C.2   341  ILE341      0.2260
     77  O         -4.0480   -6.3480   33.3850 O.2   341  ILE341     -0.2867
     78  CB        -6.5240   -5.0840   34.6180 C.3   341  ILE341      0.0252
     79  CG1       -7.9460   -4.5150   34.6230 C.3   341  ILE341      0.0019
     80  CG2       -5.7170   -4.5350   35.7890 C.3   341  ILE341      0.0019
     81  CD1       -8.7800   -4.9350   35.8210 C.3   341  ILE341      0.0001
     82  N         -0.9430   -3.5920   38.0260 N.3   345  GLN345     -0.1245
     83  CA        -2.1290   -3.0870   38.7000 C.3   345  GLN345      0.1566
     84  C         -2.9610   -4.2190   39.2980 C.2   345  GLN345      0.2260
     85  O         -3.4020   -4.1320   40.4470 O.2   345  GLN345     -0.2867
     86  CB        -2.9860   -2.2620   37.7460 C.3   345  GLN345      0.0367
     87  CG        -4.2820   -1.7810   38.3770 C.3   345  GLN345      0.0905
     88  CD        -5.0820   -0.8730   37.4590 C.2   345  GLN345      0.2608
     89  OE1       -4.8730   -0.8530   36.2470 O.2   345  GLN345     -0.2717
     90  NE2       -6.0020   -0.1130   38.0380 N.am  345  GLN345     -0.0878
     91  N         -6.8070   -4.3980   44.8670 N.3   350  ASN350     -0.1240
     92  CA        -7.5960   -3.2760   45.3540 C.3   350  ASN350      0.1653
     93  C         -8.4250   -3.6840   46.5630 C.2   350  ASN350      0.2266
     94  O         -9.6190   -3.3910   46.6390 O.2   350  ASN350     -0.2867
     95  CB        -8.4990   -2.7260   44.2420 C.3   350  ASN350      0.1155
     96  CG        -9.4080   -3.7880   43.6310 C.2   350  ASN350      0.2627
     97  OD1       -9.2980   -4.9760   43.9400 O.2   350  ASN350     -0.2716
     98  ND2      -10.3070   -3.3580   42.7470 N.am  350  ASN350     -0.0877
     99  N         -9.3110   -0.5000   48.8290 N.3   353  ALA353     -0.1245
    100  CA       -10.0820    0.5660   48.1900 C.3   353  ALA353      0.1562
    101  C        -11.5640    0.4810   48.5480 C.2   353  ALA353      0.2260
    102  O        -12.0700    1.2790   49.3400 O.2   353  ALA353     -0.2867
    103  CB        -9.9040    0.5160   46.6790 C.3   353  ALA353      0.0290
@<TRIPOS>BOND
     1    62    63    1
     2    74    75    1
     3    63    64    1
     4    75    76    1
     5    75    78    1
     6    76    77    2
     7    64    65    2
     8    64    66   am
     9    66    67    1
    10    68    67    1
    11    68    69    2
    12    78    79    1
    13    78    80    1
    14    79    81    1
    15    67    70    1
    16    71    70    1
    17    71    73    1
    18    70    72    1
    19    89    88    2
    20    44    43    1
    21    88    90   am
    22    88    87    1
    23    45    43    1
    24    86    87    1
    25    86    83    1
    26    82    83    1
    27    43    42    1
    28    83    84    1
    29    42    39    1
    30    84    85    2
    31    20    18   ar
    32    20    22   ar
    33    41    40    2
    34    23    22    1
    35    39    40    1
    36    39    38    1
    37    18    17   ar
    38    22    21   ar
    39    53    51   am
    40    40    46   am
    41    17    16    1
    42    17    19   ar
    43    21    19   ar
    44    16    13    1
    45    38    26   am
    46    50    51    1
    47    50    47    1
    48    46    47    1
    49    51    52    2
    50    27    26    2
    51    26    25    1
    52    15    14    2
    53    47    48    1
    54    13    14    1
    55    13    12    1
    56    14    24   am
    57    24    25    1
    58    25    28    1
    59    98    96   am
    60    48    49    2
    61    48    54   am
    62    96    97    2
    63    96    95    1
    64    28    29    1
    65    54    55    1
    66    95    92    1
    67    91    92    1
    68    29    30   ar
    69    29    31   ar
    70    92    93    1
    71    55    56    1
    72    55    58    1
    73    30    32   ar
    74    34    31   ar
    75    34    36   ar
    76    31    33   ar
    77    56    57    2
    78    11     9    1
    79    10     9    1
    80    61    59   am
    81    59    58    1
    82    59    60    2
    83    93    94    2
    84     9     8    2
    85   103   100    1
    86    32    33   ar
    87    36    37   ar
    88    33    35   ar
    89     8     7    1
    90    37    35   ar
    91   100   101    1
    92   100    99    1
    93     7     6    1
    94   101   102    2
    95     6     5    1
    96     5     2    1
    97     4     3    2
    98     2     3    1
    99     2     1    1
