@<TRIPOS>MOLECULE
tmp/5dccB01.pdb
 110 106 0 0 0
SMALL
GASTEIGER

@<TRIPOS>ATOM
      1  N        -31.6120  -10.6410   22.3280 N.3   248  MET248     -0.1245
      2  CA       -30.7250   -9.6150   22.8450 C.3   248  MET248      0.1570
      3  C        -31.5040   -8.3220   23.0310 C.2   248  MET248      0.2261
      4  O        -32.0110   -7.7400   22.0710 O.2   248  MET248     -0.2867
      5  CB       -29.5260   -9.3970   21.9170 C.3   248  MET248      0.0387
      6  CG       -28.3760  -10.3870   22.1170 C.3   248  MET248      0.0595
      7  SD       -27.1140  -10.2280   20.8430 S.3   248  MET248     -0.1393
      8  CE       -28.1560  -10.1630   19.3840 C.3   248  MET248      0.0692
      9  N        -32.1240   -1.7760   20.6540 N.3   263  TYR263     -0.1241
     10  CA       -32.5210   -2.9070   19.8260 C.3   263  TYR263      0.1605
     11  C        -33.1220   -4.0200   20.6750 C.2   263  TYR263      0.2264
     12  O        -32.8340   -4.1380   21.8730 O.2   263  TYR263     -0.2867
     13  CB       -31.3210   -3.4480   19.0470 C.3   263  TYR263      0.0534
     14  CG       -30.1470   -3.7510   19.9440 C.ar  263  TYR263     -0.0201
     15  CD1      -30.0850   -4.9360   20.6630 C.ar  263  TYR263     -0.0009
     16  CD2      -29.1130   -2.8380   20.0950 C.ar  263  TYR263     -0.0009
     17  CE1      -29.0220   -5.2090   21.4940 C.ar  263  TYR263      0.0417
     18  CE2      -28.0440   -3.1020   20.9220 C.ar  263  TYR263      0.0417
     19  CZ       -28.0030   -4.2890   21.6200 C.ar  263  TYR263      0.1957
     20  OH       -26.9380   -4.5580   22.4480 O.3   263  TYR263     -0.2866
     21  N        -33.6430   -8.0170   19.5170 N.3   265  THR265     -0.1218
     22  CA       -33.4620   -8.8890   18.3710 C.3   265  THR265      0.1862
     23  C        -33.2670  -10.3370   18.7930 C.2   265  THR265      0.2287
     24  O        -32.5590  -10.6280   19.7590 O.2   265  THR265     -0.2866
     25  CB       -32.2480   -8.4360   17.5220 C.3   265  THR265      0.1770
     26  OG1      -32.5570   -7.1990   16.8690 O.3   265  THR265     -0.2211
     27  CG2      -31.8930   -9.4800   16.4780 C.3   265  THR265      0.0375
     28  N        -31.5600  -13.7680   17.9240 N.3   267  VAL267     -0.1245
     29  CA       -30.4480  -14.2810   17.1280 C.3   267  VAL267      0.1561
     30  C        -30.1070  -15.7240   17.4780 C.2   267  VAL267      0.2260
     31  O        -30.3530  -16.1820   18.5920 O.2   267  VAL267     -0.2867
     32  CB       -29.1750  -13.4260   17.3090 C.3   267  VAL267      0.0252
     33  CG1      -29.4440  -11.9800   16.9240 C.3   267  VAL267      0.0019
     34  CG2      -28.6770  -13.5170   18.7420 C.3   267  VAL267      0.0019
     35  N        -22.4860   -6.6570   26.5220 N.3   277  GLY277     -0.1210
     36  CA       -23.4300   -7.2060   25.5660 C.3   277  GLY277      0.1956
     37  C        -22.8570   -7.5860   24.2120 C.2   277  GLY277      0.2611
     38  O        -23.5990   -7.7170   23.2390 O.2   277  GLY277     -0.2717
     39  N        -21.5430   -7.7660   24.1370 N.am  278  VAL278     -0.1979
     40  CA       -20.9300   -8.1800   22.8850 C.3   278  VAL278      0.1595
     41  C        -20.9990   -9.6910   22.7290 C.2   278  VAL278      0.2287
     42  O        -20.5720  -10.4430   23.6030 O.2   278  VAL278     -0.2864
     43  CB       -19.4690   -7.7300   22.7800 C.3   278  VAL278      0.0276
     44  CG1      -18.8380   -8.2990   21.5130 C.3   278  VAL278      0.0022
     45  CG2      -19.3800   -6.2120   22.7860 C.3   278  VAL278      0.0022
     46  N        -22.3970  -13.9520   17.0320 N.3   281  HIS281     -0.1241
     47  CA       -23.6710  -14.5840   16.7060 C.3   281  HIS281      0.1621
     48  C        -23.9610  -14.6330   15.2070 C.2   281  HIS281      0.2264
     49  O        -23.2860  -13.9780   14.4070 O.2   281  HIS281     -0.2867
     50  CB       -24.8150  -13.8750   17.4420 C.3   281  HIS281      0.0745
     51  CG       -25.1040  -12.4950   16.9410 C.ar  281  HIS281      0.0817
     52  ND1      -25.8510  -12.2540   15.8060 N.ar  281  HIS281     -0.2268
     53  CD2      -24.7620  -11.2790   17.4290 C.ar  281  HIS281      0.1154
     54  CE1      -25.9490  -10.9510   15.6150 C.ar  281  HIS281      0.1986
     55  NE2      -25.2990  -10.3360   16.5870 N.ar  281  HIS281     -0.2212
     56  N        -28.7960  -11.6170    7.9380 N.3   285  TRP285     -0.1241
     57  CA       -29.1650  -10.3700    7.2710 C.3   285  TRP285      0.1605
     58  C        -27.9610   -9.5560    6.7980 C.2   285  TRP285      0.2264
     59  O        -28.1210   -8.5880    6.0580 O.2   285  TRP285     -0.2867
     60  CB       -30.0180   -9.5030    8.2040 C.3   285  TRP285      0.0550
     61  CG       -29.2700   -9.0480    9.4250 C.ar  285  TRP285      0.0003
     62  CD1      -28.4550   -7.9530    9.5320 C.ar  285  TRP285      0.0946
     63  CD2      -29.2600   -9.6820   10.7130 C.ar  285  TRP285      0.0152
     64  NE1      -27.9420   -7.8660   10.8070 N.ar  285  TRP285     -0.2442
     65  CE2      -28.4210   -8.9150   11.5510 C.ar  285  TRP285      0.0810
     66  CE3      -29.8780  -10.8220   11.2370 C.ar  285  TRP285      0.0012
     67  CZ2      -28.1850   -9.2550   12.8850 C.ar  285  TRP285      0.0191
     68  CZ3      -29.6440  -11.1560   12.5630 C.ar  285  TRP285      0.0001
     69  CH2      -28.8040  -10.3760   13.3710 C.ar  285  TRP285      0.0015
     70  N        -21.4290   -3.1170   10.5080 N.3   295  THR295     -0.1203
     71  CA       -22.8110   -2.6380   10.5430 C.3   295  THR295      0.1994
     72  C        -23.5470   -2.9650   11.8480 C.2   295  THR295      0.2619
     73  O        -24.7500   -2.7180   11.9540 O.2   295  THR295     -0.2717
     74  CB       -23.6350   -3.2210    9.3690 C.3   295  THR295      0.1784
     75  OG1      -23.6250   -4.6520    9.4420 O.3   295  THR295     -0.2211
     76  CG2      -23.0540   -2.7830    8.0300 C.3   295  THR295      0.0376
     77  N        -22.8400   -3.5050   12.8380 N.am  296  SER296     -0.1937
     78  CA       -23.5040   -3.9760   14.0550 C.3   296  SER296      0.2055
     79  C        -23.6330   -2.8810   15.1140 C.2   296  SER296      0.2643
     80  O        -23.1440   -1.7690   14.9280 O.2   296  SER296     -0.2714
     81  CB       -22.7540   -5.1760   14.6430 C.3   296  SER296      0.2130
     82  OG       -21.6720   -4.7660   15.4660 O.3   296  SER296     -0.2179
     83  N        -24.3040   -3.2060   16.2190 N.am  297  HIS297     -0.1959
     84  CA       -24.3360   -2.3310   17.3870 C.3   297  HIS297      0.1787
     85  C        -23.0930   -2.5680   18.2260 C.2   297  HIS297      0.2621
     86  O        -22.7510   -1.7740   19.1090 O.2   297  HIS297     -0.2715
     87  CB       -25.5950   -2.5630   18.2130 C.3   297  HIS297      0.0785
     88  CG       -26.8100   -1.9120   17.6360 C.ar  297  HIS297      0.0821
     89  ND1      -27.7200   -2.5930   16.8590 N.ar  297  HIS297     -0.2267
     90  CD2      -27.2530   -0.6340   17.7040 C.ar  297  HIS297      0.1154
     91  CE1      -28.6800   -1.7660   16.4820 C.ar  297  HIS297      0.1986
     92  NE2      -28.4190   -0.5710   16.9810 N.ar  297  HIS297     -0.2212
     93  N        -22.4210   -3.6780   17.9450 N.am  298  GLY298     -0.1940
     94  CA       -21.1250   -3.9260   18.5460 C.3   298  GLY298      0.2014
     95  C        -20.7840   -5.3980   18.5230 C.2   298  GLY298      0.2639
     96  O        -19.6260   -5.7890   18.7280 O.2   298  GLY298     -0.2714
     97  N        -21.7980   -6.2220   18.2780 N.am  299  CYS299     -0.1967
     98  CA       -21.5730   -7.6560   18.2320 C.3   299  CYS299      0.1712
     99  C        -20.7040   -8.0220   17.0440 C.2   299  CYS299      0.2296
    100  O        -20.5450   -7.2420   16.1080 O.2   299  CYS299     -0.2864
    101  CB       -22.9030   -8.4090   18.1780 C.3   299  CYS299      0.0983
    102  SG       -23.9030   -8.2570   19.7010 S.3   299  CYS299     -0.0798
    103  N        -20.8670   -9.9290   14.0640 N.3   301  ASN301     -0.1240
    104  CA       -21.7100  -10.6160   13.0980 C.3   301  ASN301      0.1653
    105  C        -20.9050  -11.6200   12.2740 C.2   301  ASN301      0.2266
    106  O        -19.9270  -11.2490   11.6200 O.2   301  ASN301     -0.2867
    107  CB       -22.3870   -9.6110   12.1570 C.3   301  ASN301      0.1155
    108  CG       -23.5920   -8.9220   12.7820 C.2   301  ASN301      0.2627
    109  OD1      -23.7100   -8.8120   14.0030 O.2   301  ASN301     -0.2716
    110  ND2      -24.4940   -8.4440   11.9320 N.am  301  ASN301     -0.0877
@<TRIPOS>BOND
     1    59    58    2
     2    58    57    1
     3    57    56    1
     4    57    60    1
     5    76    74    1
     6    60    61    1
     7    74    75    1
     8    74    71    1
     9    61    62   ar
    10    61    63   ar
    11    62    64   ar
    12    70    71    1
    13    71    72    1
    14    63    66   ar
    15    63    65   ar
    16    64    65   ar
    17    66    68   ar
    18    65    67   ar
    19   106   105    2
    20    72    73    2
    21    72    77   am
    22   110   108   am
    23   107   108    1
    24   107   104    1
    25   105   104    1
    26    68    69   ar
    27   108   109    2
    28    77    78    1
    29    67    69   ar
    30   104   103    1
    31    78    81    1
    32    78    79    1
    33    49    48    2
    34    81    82    1
    35    80    79    2
    36    79    83   am
    37    48    47    1
    38    54    52   ar
    39    54    55   ar
    40    52    51   ar
    41   100    99    2
    42    83    84    1
    43    27    25    1
    44    91    89   ar
    45    91    92   ar
    46    55    53   ar
    47    47    46    1
    48    47    50    1
    49    89    88   ar
    50    26    25    1
    51    33    32    1
    52    51    53   ar
    53    51    50    1
    54    92    90   ar
    55    99    98    1
    56    29    32    1
    57    29    30    1
    58    29    28    1
    59    32    34    1
    60    84    87    1
    61    84    85    1
    62    30    31    2
    63    25    22    1
    64    88    90   ar
    65    88    87    1
    66    93    85   am
    67    93    94    1
    68   101    98    1
    69   101   102    1
    70    85    86    2
    71    98    97    1
    72    97    95   am
    73    22    23    1
    74    22    21    1
    75    95    94    1
    76    95    96    2
    77    23    24    2
    78    13    10    1
    79    13    14    1
    80     8     7    1
    81    10     9    1
    82    10    11    1
    83    14    16   ar
    84    14    15   ar
    85    16    18   ar
    86    15    17   ar
    87    11    12    2
    88     7     6    1
    89    18    19   ar
    90    17    19   ar
    91    44    43    1
    92    19    20    1
    93     5     6    1
    94     5     2    1
    95     4     3    2
    96     1     2    1
    97    41    40    1
    98    41    42    2
    99    43    45    1
   100    43    40    1
   101     2     3    1
   102    40    39    1
   103    38    37    2
   104    39    37   am
   105    37    36    1
   106    36    35    1
