@<TRIPOS>MOLECULE
tmp/5dceD01.pdb
 132 124 0 0 0
SMALL
GASTEIGER

@<TRIPOS>ATOM
      1  N         -3.7690   15.4480   11.8810 N.3    40  ARG40      -0.1245
      2  CA        -5.2230   15.5710   12.0270 C.3    40  ARG40       0.1563
      3  C         -5.6880   15.1650   13.4300 C.2    40  ARG40       0.2260
      4  O         -6.5070   15.8630   14.0370 O.2    40  ARG40      -0.2867
      5  CB        -5.9580   14.7390   10.9680 C.3    40  ARG40       0.0307
      6  CG        -5.8290   15.2750    9.5410 C.3    40  ARG40       0.0489
      7  CD        -6.3260   14.2690    8.5130 C.3    40  ARG40       0.2205
      8  NE        -6.3990   14.8220    7.1610 N.pl3  40  ARG40      -0.0865
      9  CZ        -6.7220   14.1140    6.0760 C.cat  40  ARG40       0.5346
     10  NH1       -6.9910   12.8230    6.1820 N.pl3  40  ARG40       0.1354
     11  NH2       -6.7740   14.6940    4.8770 N.pl3  40  ARG40       0.1354
     12  N        -16.4190   22.6130   -4.6180 N.3   147  MET147     -0.1245
     13  CA       -16.7480   21.2470   -4.2540 C.3   147  MET147      0.1570
     14  C        -15.9150   20.2280   -5.0260 C.2   147  MET147      0.2261
     15  O        -15.9680   19.0440   -4.7090 O.2   147  MET147     -0.2867
     16  CB       -18.2520   20.9600   -4.5200 C.3   147  MET147      0.0387
     17  CG       -19.2120   21.9840   -3.9660 C.3   147  MET147      0.0595
     18  SD       -18.8470   22.3840   -2.2590 S.3   147  MET147     -0.1393
     19  CE       -18.8170   24.1500   -2.3970 C.3   147  MET147      0.0692
     20  N        -11.1540   19.7600   -3.9750 N.3   150  PRO150     -0.2102
     21  CA       -10.6740   18.8770   -2.8820 C.3   150  PRO150      0.1504
     22  C        -10.3040   17.4460   -3.2860 C.2   150  PRO150      0.2575
     23  O         -9.4290   16.8370   -2.6830 O.2   150  PRO150     -0.2718
     24  CB       -11.8680   18.8220   -1.9270 C.3   150  PRO150      0.0282
     25  CG       -12.6340   20.0800   -2.1880 C.3   150  PRO150      0.0208
     26  CD       -12.4840   20.3320   -3.6610 C.3   150  PRO150      0.0893
     27  N        -10.9740   16.8920   -4.2790 N.am  151  GLN151     -0.1980
     28  CA       -10.6680   15.5320   -4.7000 C.3   151  GLN151      0.1601
     29  C         -9.2520   15.3960   -5.2460 C.2   151  GLN151      0.2287
     30  O         -8.6970   14.2950   -5.2730 O.2   151  GLN151     -0.2864
     31  CB       -11.6890   15.0450   -5.7200 C.3   151  GLN151      0.0394
     32  CG       -13.0540   14.7210   -5.1300 C.3   151  GLN151      0.0908
     33  CD       -13.0820   13.3790   -4.3970 C.2   151  GLN151      0.2608
     34  OE1      -12.4280   13.1980   -3.3660 O.2   151  GLN151     -0.2717
     35  NE2      -13.8340   12.4450   -4.9200 N.am  151  GLN151     -0.0878
     36  N         -7.0660   16.7860   -1.1230 N.3   154  ALA154     -0.1231
     37  CA        -7.4800   16.8600    0.2860 C.3   154  ALA154      0.1694
     38  C         -6.7470   15.8220    1.1190 C.2   154  ALA154      0.2592
     39  O         -6.5350   15.9960    2.3300 O.2   154  ALA154     -0.2718
     40  CB        -8.9890   16.6870    0.4270 C.3   154  ALA154      0.0304
     41  N         -6.3340   14.7430    0.4640 N.am  155  ASP155     -0.1974
     42  CA        -5.5490   13.6970    1.1240 C.3   155  ASP155      0.1709
     43  C         -4.1920   14.1820    1.6350 C.2   155  ASP155      0.2293
     44  O         -3.5380   13.4660    2.3940 O.2   155  ASP155     -0.2864
     45  CB        -5.3700   12.4900    0.1930 C.3   155  ASP155      0.1436
     46  CG        -4.5870   12.8250   -1.0640 C.2   155  ASP155      0.3671
     47  OD1       -4.8280   13.9120   -1.6260 O.co2 155  ASP155     -0.2456
     48  OD2       -3.7610   11.9900   -1.5120 O.co2 155  ASP155     -0.2456
     49  N        -19.8310   20.1150    2.4020 N.3   175  LEU175     -0.1245
     50  CA       -18.4640   19.7490    2.0490 C.3   175  LEU175      0.1561
     51  C        -17.6520   19.4970    3.3170 C.2   175  LEU175      0.2260
     52  O        -17.0050   18.4850    3.4400 O.2   175  LEU175     -0.2867
     53  CB       -17.8050   20.8370    1.2130 C.3   175  LEU175      0.0270
     54  CG       -16.3170   20.6290    0.9390 C.3   175  LEU175      0.0019
     55  CD1      -16.0780   19.3330    0.1780 C.3   175  LEU175      0.0001
     56  CD2      -15.7520   21.8140    0.1710 C.3   175  LEU175      0.0001
     57  N        -17.8810   16.1240    5.1170 N.3   178  GLY178     -0.1210
     58  CA       -17.1930   14.9510    4.5340 C.3   178  GLY178      0.1956
     59  C        -15.6840   15.1080    4.3240 C.2   178  GLY178      0.2612
     60  O        -15.0200   14.2210    3.7780 O.2   178  GLY178     -0.2717
     61  N        -15.1370   16.2410    4.7480 N.am  179  LEU179     -0.1965
     62  CA       -13.7010   16.4670    4.6630 C.3   179  LEU179      0.1728
     63  C        -12.9880   15.6300    5.7290 C.2   179  LEU179      0.2617
     64  O        -13.4200   15.5880    6.8800 O.2   179  LEU179     -0.2715
     65  CB       -13.3860   17.9560    4.8090 C.3   179  LEU179      0.0311
     66  CG       -13.6210   18.8270    3.5660 C.3   179  LEU179      0.0022
     67  CD1      -13.2720   20.2780    3.8810 C.3   179  LEU179      0.0001
     68  CD2      -12.7980   18.3500    2.3800 C.3   179  LEU179      0.0001
     69  N        -11.9110   14.9500    5.3290 N.am  180  SER180     -0.1936
     70  CA       -11.1970   14.0200    6.2210 C.3   180  SER180      0.2055
     71  C        -10.4160   14.7370    7.3320 C.2   180  SER180      0.2643
     72  O         -9.9770   14.1010    8.2920 O.2   180  SER180     -0.2714
     73  CB       -10.2300   13.1530    5.4100 C.3   180  SER180      0.2130
     74  OG       -10.9220   12.3330    4.4870 O.3   180  SER180     -0.2179
     75  N        -10.2350   16.0460    7.1730 N.am  181  CYS181     -0.1967
     76  CA        -9.4490   16.8590    8.0930 C.3   181  CYS181      0.1712
     77  C        -10.3510   17.6760    9.0030 C.2   181  CYS181      0.2296
     78  O        -11.5000   17.9230    8.6750 O.2   181  CYS181     -0.2864
     79  CB        -8.5600   17.8120    7.2940 C.3   181  CYS181      0.0983
     80  SG        -9.4440   19.0410    6.3080 S.3   181  CYS181     -0.0798
     81  N        -24.3970   15.4960   -0.6090 N.3   209  PHE209     -0.1241
     82  CA       -24.1360   16.5690   -1.5660 C.3   209  PHE209      0.1605
     83  C        -23.5730   15.9990   -2.8560 C.2   209  PHE209      0.2264
     84  O        -23.1060   14.8540   -2.9070 O.2   209  PHE209     -0.2867
     85  CB       -23.2550   17.6870   -0.9710 C.3   209  PHE209      0.0534
     86  CG       -21.7790   17.3470   -0.8650 C.ar  209  PHE209     -0.0203
     87  CD1      -21.2750   16.7250    0.2580 C.ar  209  PHE209     -0.0042
     88  CD2      -20.8950   17.7060   -1.8710 C.ar  209  PHE209     -0.0042
     89  CE1      -19.9340   16.4380    0.3630 C.ar  209  PHE209     -0.0003
     90  CE2      -19.5590   17.4120   -1.7790 C.ar  209  PHE209     -0.0003
     91  CZ       -19.0710   16.7760   -0.6590 C.ar  209  PHE209     -0.0000
     92  N        -21.1020   15.8930   -6.0640 N.3   211  SER211     -0.1202
     93  CA       -19.7370   16.2390   -6.3840 C.3   211  SER211      0.2020
     94  C        -19.2310   15.2950   -7.4480 C.2   211  SER211      0.2619
     95  O        -20.0090   14.7860   -8.2430 O.2   211  SER211     -0.2717
     96  CB       -18.8810   16.1570   -5.1230 C.3   211  SER211      0.2103
     97  OG       -17.6300   16.8180   -5.2960 O.3   211  SER211     -0.2182
     98  N        -17.9230   15.0660   -7.4570 N.am  212  VAL212     -0.1965
     99  CA       -17.3010   14.2910   -8.4950 C.3   212  VAL212      0.1727
    100  C        -16.5140   13.1580   -7.8500 C.2   212  VAL212      0.2617
    101  O        -15.9130   13.3460   -6.8010 O.2   212  VAL212     -0.2715
    102  CB       -16.4300   15.2210   -9.3490 C.3   212  VAL212      0.0290
    103  CG1      -15.5620   14.4430  -10.2890 C.3   212  VAL212      0.0023
    104  CG2      -17.3180   16.1400  -10.1680 C.3   212  VAL212      0.0023
    105  N        -16.5520   11.9750   -8.4560 N.am  213  THR213     -0.1937
    106  CA       -15.7210   10.8570   -7.9950 C.3   213  THR213      0.2028
    107  C        -14.2460   11.1270   -8.3270 C.2   213  THR213      0.2642
    108  O        -13.9410   12.0030   -9.1240 O.2   213  THR213     -0.2714
    109  CB       -16.0670    9.5690   -8.7400 C.3   213  THR213      0.1808
    110  OG1      -15.8170    9.7570  -10.1470 O.3   213  THR213     -0.2208
    111  CG2      -17.5520    9.1460   -8.5070 C.3   213  THR213      0.0379
    112  N        -13.3440   10.3240   -7.7800 N.am  214  LYS214     -0.1977
    113  CA       -11.9160   10.3940   -8.1660 C.3   214  LYS214      0.1596
    114  C        -11.7210   10.2470   -9.6700 C.2   214  LYS214      0.2287
    115  O        -10.7500   10.7680  -10.2130 O.2   214  LYS214     -0.2864
    116  CB       -11.0870    9.3240   -7.4540 C.3   214  LYS214      0.0298
    117  CG       -11.0020    9.4890   -5.9550 C.3   214  LYS214      0.0038
    118  CD       -10.4180   10.8410   -5.5850 C.3   214  LYS214      0.0206
    119  CE        -9.8510   10.8370   -4.1700 C.3   214  LYS214      0.1093
    120  NZ       -10.9520   10.8420   -3.1580 N.3   214  LYS214     -0.1314
    121  N        -21.4070   12.4050   -8.8450 N.3   219  ALA219     -0.1245
    122  CA       -21.9040   11.4100   -7.9400 C.3   219  ALA219      0.1562
    123  C        -22.5190   12.0720   -6.7140 C.2   219  ALA219      0.2260
    124  O        -22.3340   13.2650   -6.4470 O.2   219  ALA219     -0.2867
    125  CB       -20.7790   10.4840   -7.5110 C.3   219  ALA219      0.0290
    126  N        -22.5360   12.1110   -2.7690 N.3   221  VAL221     -0.1245
    127  CA       -21.6710   11.7440   -1.6770 C.3   221  VAL221      0.1561
    128  C        -22.4520   11.8460   -0.3630 C.2   221  VAL221      0.2260
    129  O        -22.9800   12.9010    0.0030 O.2   221  VAL221     -0.2867
    130  CB       -20.3550   12.5440   -1.6850 C.3   221  VAL221      0.0252
    131  CG1      -19.9010   12.7960   -3.1070 C.3   221  VAL221      0.0019
    132  CG2      -20.5030   13.8650   -1.0040 C.3   221  VAL221      0.0019
@<TRIPOS>BOND
     1   103   102    1
     2   115   114    2
     3   104   102    1
     4   110   109    1
     5   114   113    1
     6   102    99    1
     7   108   107    2
     8   121   122    1
     9   109   111    1
    10   109   106    1
    11    99   100    1
    12    99    98    1
    13   105   106    1
    14   105   100   am
    15   107   106    1
    16   107   112   am
    17    95    94    2
    18   113   112    1
    19   113   116    1
    20   122   125    1
    21   122   123    1
    22   100   101    2
    23    98    94   am
    24   116   117    1
    25    94    93    1
    26   123   124    2
    27    93    92    1
    28    93    96    1
    29   117   118    1
    30    31    32    1
    31    31    28    1
    32   118   119    1
    33    97    96    1
    34    30    29    2
    35    29    28    1
    36    32    33    1
    37    14    15    2
    38    14    13    1
    39    35    33   am
    40    28    27    1
    41    12    13    1
    42    16    13    1
    43    16    17    1
    44    33    34    2
    45    27    22   am
    46   119   120    1
    47    20    26    1
    48    20    21    1
    49    17    18    1
    50    26    25    1
    51    22    21    1
    52    22    23    2
    53   131   130    1
    54    84    83    2
    55    21    24    1
    56    83    82    1
    57   126   127    1
    58    19    18    1
    59    25    24    1
    60    88    90   ar
    61    88    86   ar
    62    90    91   ar
    63   130   127    1
    64   130   132    1
    65   127   128    1
    66    47    46   ar
    67    82    85    1
    68    82    81    1
    69    48    46   ar
    70    36    37    1
    71    46    45    1
    72    85    86    1
    73    86    87   ar
    74    91    89   ar
    75   128   129    2
    76    56    54    1
    77    55    54    1
    78    45    42    1
    79    87    89   ar
    80    37    40    1
    81    37    38    1
    82    41    38   am
    83    41    42    1
    84    54    53    1
    85    38    39    2
    86    42    43    1
    87    53    50    1
    88    43    44    2
    89    50    49    1
    90    50    51    1
    91    68    66    1
    92    51    52    2
    93    66    67    1
    94    66    65    1
    95    60    59    2
    96    59    58    1
    97    59    61   am
    98    74    73    1
    99    58    57    1
   100    62    61    1
   101    62    65    1
   102    62    63    1
   103    11     9    1
   104    69    63   am
   105    69    70    1
   106    73    70    1
   107    63    64    2
   108     9    10    1
   109     9     8    2
   110    70    71    1
   111    80    79    1
   112     8     7    1
   113    75    71   am
   114    75    76    1
   115    79    76    1
   116    71    72    2
   117    76    77    1
   118     7     6    1
   119    78    77    2
   120     6     5    1
   121     5     2    1
   122     1     2    1
   123     2     3    1
   124     3     4    2
