@<TRIPOS>MOLECULE
tmp/5dcsA00.pdb
 231 219 0 0 0
SMALL
GASTEIGER

@<TRIPOS>ATOM
      1  N        -21.5450   16.8040   22.9460 N.3    60  LEU60      -0.1245
      2  CA       -20.1290   16.7960   23.3210 C.3    60  LEU60       0.1561
      3  C        -19.5970   15.3750   23.4290 C.2    60  LEU60       0.2260
      4  O        -18.5190   15.0860   22.9220 O.2    60  LEU60      -0.2867
      5  CB       -19.9130   17.5420   24.6410 C.3    60  LEU60       0.0270
      6  CG       -18.4770   18.0160   24.9240 C.3    60  LEU60       0.0019
      7  CD1      -18.0150   18.9920   23.8330 C.3    60  LEU60       0.0001
      8  CD2      -18.3410   18.6770   26.3350 C.3    60  LEU60       0.0001
      9  N        -19.1160   13.8930   19.9320 N.3    63  GLY63      -0.1210
     10  CA       -17.8910   14.3420   19.3000 C.3    63  GLY63       0.1956
     11  C        -16.6910   13.5990   19.8660 C.2    63  GLY63       0.2611
     12  O        -15.8220   13.1350   19.1340 O.2    63  GLY63      -0.2717
     13  N        -16.6360   13.4730   21.1800 N.am   64  PHE64      -0.1976
     14  CA       -15.5140   12.7740   21.7800 C.3    64  PHE64       0.1639
     15  C        -15.4590   11.2960   21.4150 C.2    64  PHE64       0.2290
     16  O        -14.3970   10.8310   21.0080 O.2    64  PHE64      -0.2864
     17  CB       -15.5190   12.9470   23.2830 C.3    64  PHE64       0.0560
     18  CG       -14.6250   14.0650   23.7520 C.ar   64  PHE64      -0.0200
     19  CD1      -13.2350   13.9110   23.7590 C.ar   64  PHE64      -0.0042
     20  CD2      -15.1580   15.2770   24.1700 C.ar   64  PHE64      -0.0042
     21  CE1      -12.4150   14.9590   24.1910 C.ar   64  PHE64      -0.0003
     22  CE2      -14.3360   16.3040   24.6030 C.ar   64  PHE64      -0.0003
     23  CZ       -12.9730   16.1480   24.5970 C.ar   64  PHE64      -0.0000
     24  N        -14.2860   10.7920   18.0020 N.3    67  GLY67      -0.1210
     25  CA       -12.9320   11.2850   17.9480 C.3    67  GLY67       0.1956
     26  C        -11.9290   10.2870   18.5050 C.2    67  GLY67       0.2611
     27  O        -10.9200   10.0410   17.8690 O.2    67  GLY67      -0.2717
     28  N        -12.2150    9.7130   19.6750 N.am   68  GLU68      -0.1979
     29  CA       -11.3420    8.7070   20.2940 C.3    68  GLU68       0.1602
     30  C        -11.1970    7.4720   19.3690 C.2    68  GLU68       0.2287
     31  O        -10.1070    6.9200   19.1920 O.2    68  GLU68      -0.2864
     32  CB       -11.8740    8.2650   21.6640 C.3    68  GLU68       0.0415
     33  CG       -12.1390    9.3610   22.6490 C.3    68  GLU68       0.1163
     34  CD       -10.9160   10.2280   23.0400 C.2    68  GLU68       0.3649
     35  OE1      -11.1200   11.2660   23.7070 O.co2  68  GLU68      -0.2457
     36  OE2       -9.7700    9.8880   22.6850 O.co2  68  GLU68      -0.2457
     37  N         -9.0520    8.4000   16.1720 N.3    71  VAL71      -0.1245
     38  CA        -7.5940    8.5080   16.4110 C.3    71  VAL71       0.1561
     39  C         -6.9910    7.1380   16.8000 C.2    71  VAL71       0.2260
     40  O         -5.8400    6.8350   16.4730 O.2    71  VAL71      -0.2867
     41  CB        -7.2550    9.5850   17.4850 C.3    71  VAL71       0.0252
     42  CG1       -7.6840   10.9690   17.0240 C.3    71  VAL71       0.0019
     43  CG2       -7.8170    9.2380   18.8480 C.3    71  VAL71       0.0019
     44  N         -5.3150    5.8650   23.6140 N.3   101  GLU101     -0.1245
     45  CA        -6.5190    6.1320   22.8510 C.3   101  GLU101      0.1567
     46  C         -7.5100    4.9940   23.0010 C.2   101  GLU101      0.2260
     47  O         -8.7130    5.2600   23.0730 O.2   101  GLU101     -0.2867
     48  CB        -6.2190    6.3720   21.3740 C.3   101  GLU101      0.0388
     49  CG        -5.2740    7.5790   21.0420 C.3   101  GLU101      0.1160
     50  CD        -5.7590    8.9370   21.5560 C.2   101  GLU101      0.3649
     51  OE1       -5.1000    9.9610   21.2830 O.co2 101  GLU101     -0.2457
     52  OE2       -6.8220    9.0140   22.1820 O.co2 101  GLU101     -0.2457
     53  N         -9.2900    5.5780   25.9880 N.3   104  HIS104     -0.1241
     54  CA       -10.2190    6.6910   25.8670 C.3   104  HIS104      0.1621
     55  C        -11.5330    6.2740   25.2040 C.2   104  HIS104      0.2264
     56  O        -12.5900    6.7200   25.6310 O.2   104  HIS104     -0.2867
     57  CB        -9.6170    7.8520   25.0800 C.3   104  HIS104      0.0745
     58  CG        -8.3680    8.4070   25.6770 C.ar  104  HIS104      0.0817
     59  ND1       -7.6250    9.3940   25.0570 N.ar  104  HIS104     -0.2268
     60  CD2       -7.7260    8.1120   26.8280 C.ar  104  HIS104      0.1154
     61  CE1       -6.5760    9.6800   25.8070 C.ar  104  HIS104      0.1986
     62  NE2       -6.5960    8.8980   26.8730 N.ar  104  HIS104     -0.2212
     63  N        -17.7190   18.6770   11.2230 N.3   130  TYR130     -0.1241
     64  CA       -17.1250   17.6390   12.0460 C.3   130  TYR130      0.1605
     65  C        -16.7330   16.4470   11.1580 C.2   130  TYR130      0.2264
     66  O        -15.6370   15.9130   11.2730 O.2   130  TYR130     -0.2867
     67  CB       -18.0890   17.2090   13.1470 C.3   130  TYR130      0.0534
     68  CG       -17.5400   16.1320   14.0260 C.ar  130  TYR130     -0.0201
     69  CD1      -16.9670   16.4440   15.2620 C.ar  130  TYR130     -0.0009
     70  CD2      -17.5810   14.7880   13.6340 C.ar  130  TYR130     -0.0009
     71  CE1      -16.4690   15.4480   16.0820 C.ar  130  TYR130      0.0417
     72  CE2      -17.0540   13.7910   14.4400 C.ar  130  TYR130      0.0417
     73  CZ       -16.5050   14.1250   15.6630 C.ar  130  TYR130      0.1957
     74  OH       -16.0170   13.1390   16.4790 O.3   130  TYR130     -0.2866
     75  N        -13.0840   14.5660   10.9430 N.3   134  PHE134     -0.1241
     76  CA       -12.9330   13.2360   11.5180 C.3   134  PHE134      0.1605
     77  C        -13.2480   12.0510   10.5980 C.2   134  PHE134      0.2264
     78  O        -12.6180   11.0050   10.7320 O.2   134  PHE134     -0.2867
     79  CB       -13.8030   13.1460   12.7560 C.3   134  PHE134      0.0534
     80  CG       -13.2440   13.9080   13.9240 C.ar  134  PHE134     -0.0203
     81  CD1      -12.2470   13.3510   14.7080 C.ar  134  PHE134     -0.0042
     82  CD2      -13.6730   15.1960   14.1990 C.ar  134  PHE134     -0.0042
     83  CE1      -11.7150   14.0520   15.7650 C.ar  134  PHE134     -0.0003
     84  CE2      -13.1490   15.9020   15.2630 C.ar  134  PHE134     -0.0003
     85  CZ       -12.1630   15.3310   16.0430 C.ar  134  PHE134     -0.0000
     86  N         -6.8700   18.1720   15.9160 N.3   165  VAL165     -0.1231
     87  CA        -7.7700   17.2760   16.6130 C.3   165  VAL165      0.1692
     88  C         -7.4830   17.1990   18.1220 C.2   165  VAL165      0.2591
     89  O         -8.3930   17.3370   18.9450 O.2   165  VAL165     -0.2718
     90  CB        -7.7000   15.8530   15.9770 C.3   165  VAL165      0.0266
     91  CG1       -8.2570   14.8040   16.9070 C.3   165  VAL165      0.0020
     92  CG2       -8.4390   15.8590   14.6520 C.3   165  VAL165      0.0020
     93  N         -6.2370   16.9430   18.4980 N.am  166  GLU166     -0.1979
     94  CA        -5.8810   16.8640   19.9080 C.3   166  GLU166      0.1602
     95  C         -5.6320   18.2540   20.4980 C.2   166  GLU166      0.2287
     96  O         -6.2250   18.6420   21.5190 O.2   166  GLU166     -0.2864
     97  CB        -4.6360   15.9800   20.1010 C.3   166  GLU166      0.0415
     98  CG        -4.8060   14.5380   19.6250 C.3   166  GLU166      0.1163
     99  CD        -3.6120   13.6720   19.8670 C.2   166  GLU166      0.3649
    100  OE1       -2.5100   14.0860   19.4380 O.co2 166  GLU166     -0.2457
    101  OE2       -3.7640   12.5670   20.4560 O.co2 166  GLU166     -0.2457
    102  N         -9.0660   20.8760   19.3310 N.3   169  LEU169     -0.1231
    103  CA       -10.4250   20.4220   19.6250 C.3   169  LEU169      0.1693
    104  C        -10.5150   19.6560   20.9510 C.2   169  LEU169      0.2591
    105  O        -11.3230   20.0280   21.8160 O.2   169  LEU169     -0.2718
    106  CB       -10.9770   19.5700   18.4710 C.3   169  LEU169      0.0284
    107  CG       -11.3490   20.3260   17.1980 C.3   169  LEU169      0.0019
    108  CD1      -11.6840   19.3470   16.0620 C.3   169  LEU169      0.0001
    109  CD2      -12.5470   21.2590   17.4130 C.3   169  LEU169      0.0001
    110  N         -9.6930   18.6230   21.1540 N.am  170  ALA170     -0.1980
    111  CA        -9.7930   17.8530   22.4010 C.3   170  ALA170      0.1597
    112  C         -9.5720   18.7390   23.6510 C.2   170  ALA170      0.2287
    113  O        -10.2710   18.5990   24.6800 O.2   170  ALA170     -0.2864
    114  CB        -8.7940   16.6940   22.4190 C.3   170  ALA170      0.0319
    115  N        -10.0330   21.8620   24.0480 N.3   172  SER172     -0.1202
    116  CA       -11.1430   22.7970   24.2730 C.3   172  SER172      0.2020
    117  C        -12.3390   22.0410   24.8020 C.2   172  SER172      0.2619
    118  O        -13.1040   22.5480   25.6070 O.2   172  SER172     -0.2717
    119  CB       -11.5020   23.5610   22.9950 C.3   172  SER172      0.2103
    120  OG       -10.3740   24.2580   22.5180 O.3   172  SER172     -0.2182
    121  N        -12.4840   20.8000   24.3770 N.am  173  GLY173     -0.1942
    122  CA       -13.5480   19.9630   24.8840 C.3   173  GLY173      0.2014
    123  C        -13.3540   19.6060   26.3440 C.2   173  GLY173      0.2638
    124  O        -14.3300   19.5320   27.1020 O.2   173  GLY173     -0.2714
    125  N        -12.1120   19.3900   26.7540 N.am  174  TYR174     -0.1973
    126  CA       -11.8200   19.0990   28.1620 C.3   174  TYR174      0.1639
    127  C        -12.1970   20.3200   28.9960 C.2   174  TYR174      0.2290
    128  O        -12.7870   20.1970   30.0460 O.2   174  TYR174     -0.2864
    129  CB       -10.3370   18.7900   28.4100 C.3   174  TYR174      0.0560
    130  CG        -9.7790   17.5920   27.6740 C.ar  174  TYR174     -0.0198
    131  CD1      -10.5600   16.4740   27.4560 C.ar  174  TYR174     -0.0009
    132  CD2       -8.4550   17.5850   27.1950 C.ar  174  TYR174     -0.0009
    133  CE1      -10.0650   15.3800   26.7900 C.ar  174  TYR174      0.0417
    134  CE2       -7.9530   16.4930   26.5220 C.ar  174  TYR174      0.0417
    135  CZ        -8.7610   15.3860   26.3200 C.ar  174  TYR174      0.1957
    136  OH        -8.2850   14.2730   25.6520 O.3   174  TYR174     -0.2866
    137  N        -14.3090   22.7110   28.2120 N.3   176  THR176     -0.1218
    138  CA       -15.7630   22.8520   28.2010 C.3   176  THR176      0.1862
    139  C        -16.4410   21.9160   29.2110 C.2   176  THR176      0.2287
    140  O        -17.2930   22.3570   29.9780 O.2   176  THR176     -0.2866
    141  CB       -16.3020   22.5970   26.7940 C.3   176  THR176      0.1770
    142  OG1      -15.6950   23.5190   25.8820 O.3   176  THR176     -0.2211
    143  CG2      -17.7690   22.7590   26.7190 C.3   176  THR176      0.0375
    144  N        -18.6740   23.3360   32.5000 N.3   180  ILE180     -0.1245
    145  CA       -20.1060   23.0970   32.5770 C.3   180  ILE180      0.1561
    146  C        -20.4680   22.1150   33.6920 C.2   180  ILE180      0.2260
    147  O        -21.1010   22.4930   34.6750 O.2   180  ILE180     -0.2867
    148  CB       -20.6390   22.5840   31.2370 C.3   180  ILE180      0.0252
    149  CG1      -20.4500   23.6620   30.1600 C.3   180  ILE180      0.0019
    150  CG2      -22.0890   22.1990   31.3610 C.3   180  ILE180      0.0019
    151  CD1      -21.0040   23.2980   28.7720 C.3   180  ILE180      0.0001
    152  N         -3.1880   13.3690   27.1110 N.3   201  GLU201     -0.1245
    153  CA        -3.1620   14.2280   25.9330 C.3   201  GLU201      0.1567
    154  C         -1.9220   15.0700   25.8530 C.2   201  GLU201      0.2260
    155  O         -1.4440   15.3410   24.7690 O.2   201  GLU201     -0.2867
    156  CB        -4.3470   15.1670   25.8970 C.3   201  GLU201      0.0388
    157  CG        -4.6480   15.6930   24.5170 C.3   201  GLU201      0.1160
    158  CD        -5.2480   14.5880   23.6690 C.2   201  GLU201      0.3649
    159  OE1       -6.4750   14.3800   23.7860 O.co2 201  GLU201     -0.2457
    160  OE2       -4.4910   13.9050   22.9320 O.co2 201  GLU201     -0.2457
    161  N          0.6120   13.1430   23.9530 N.3   204  HIS204     -0.1241
    162  CA         0.2300   13.0890   22.5340 C.3   204  HIS204      0.1621
    163  C          0.6300   14.4060   21.8090 C.2   204  HIS204      0.2264
    164  O          1.2990   14.3870   20.7640 O.2   204  HIS204     -0.2867
    165  CB        -1.2920   12.7910   22.3870 C.3   204  HIS204      0.0745
    166  CG        -1.7290   11.5780   23.1310 C.ar  204  HIS204      0.0817
    167  ND1       -3.0480   11.1560   23.1790 N.ar  204  HIS204     -0.2268
    168  CD2       -1.0220   10.6900   23.8650 C.ar  204  HIS204      0.1154
    169  CE1       -3.1230   10.0750   23.9300 C.ar  204  HIS204      0.1986
    170  NE2       -1.9080    9.7630   24.3520 N.ar  204  HIS204     -0.2212
    171  N        -17.5980   23.6280   13.4800 N.3   240  TYR240     -0.1227
    172  CA       -18.1300   22.6570   14.4210 C.3   240  TYR240      0.1736
    173  C        -18.4240   23.3570   15.7570 C.2   240  TYR240      0.2595
    174  O        -19.4620   23.1250   16.3690 O.2   240  TYR240     -0.2718
    175  CB       -17.1560   21.5030   14.6030 C.3   240  TYR240      0.0548
    176  CG       -17.5500   20.5100   15.6570 C.ar  240  TYR240     -0.0200
    177  CD1      -18.7540   19.8300   15.5870 C.ar  240  TYR240     -0.0009
    178  CD2      -16.6990   20.2230   16.7140 C.ar  240  TYR240     -0.0009
    179  CE1      -19.0910   18.8810   16.5380 C.ar  240  TYR240      0.0417
    180  CE2      -17.0490   19.2820   17.6960 C.ar  240  TYR240      0.0417
    181  CZ       -18.2360   18.6140   17.5930 C.ar  240  TYR240      0.1957
    182  OH       -18.5870   17.6800   18.5470 O.3   240  TYR240     -0.2866
    183  N        -17.5030   24.2120   16.1930 N.am  241  VAL241     -0.1980
    184  CA       -17.6490   24.9310   17.4660 C.3   241  VAL241      0.1595
    185  C        -18.9400   25.7700   17.4220 C.2   241  VAL241      0.2287
    186  O        -19.7420   25.7230   18.3480 O.2   241  VAL241     -0.2864
    187  CB       -16.4120   25.8410   17.7770 C.3   241  VAL241      0.0276
    188  CG1      -16.6830   26.7710   18.9500 C.3   241  VAL241      0.0022
    189  CG2      -15.2160   25.0060   18.0830 C.3   241  VAL241      0.0022
    190  N        -22.0250   23.5510   17.7630 N.3   244  LEU244     -0.1231
    191  CA       -22.2080   23.0850   19.1370 C.3   244  LEU244      0.1693
    192  C        -22.7490   24.2030   20.0260 C.2   244  LEU244      0.2592
    193  O        -23.6020   23.9570   20.8750 O.2   244  LEU244     -0.2718
    194  CB       -20.8970   22.5710   19.7260 C.3   244  LEU244      0.0284
    195  CG       -20.3840   21.2010   19.3060 C.3   244  LEU244      0.0019
    196  CD1      -19.1070   20.9540   20.0950 C.3   244  LEU244      0.0001
    197  CD2      -21.3910   20.0970   19.5480 C.3   244  LEU244      0.0001
    198  N        -22.2270   25.4130   19.8060 N.am  245  THR245     -0.1953
    199  CA       -22.6680   26.6440   20.4740 C.3   245  THR245      0.1897
    200  C        -24.1360   26.9650   20.2050 C.2   245  THR245      0.2313
    201  O        -24.8660   27.3490   21.1150 O.2   245  THR245     -0.2863
    202  CB       -21.8340   27.8400   20.0230 C.3   245  THR245      0.1794
    203  OG1      -20.5330   27.7370   20.5960 O.3   245  THR245     -0.2208
    204  CG2      -22.4600   29.1740   20.4760 C.3   245  THR245      0.0378
    205  N        -20.6470   30.9950   26.2180 N.3   264  TYR264     -0.1241
    206  CA       -20.2520   30.4340   24.9360 C.3   264  TYR264      0.1605
    207  C        -19.2260   31.3300   24.2640 C.2   264  TYR264      0.2264
    208  O        -18.3630   30.8540   23.5350 O.2   264  TYR264     -0.2867
    209  CB       -21.4780   30.2130   24.0530 C.3   264  TYR264      0.0534
    210  CG       -22.2840   29.0560   24.5740 C.ar  264  TYR264     -0.0201
    211  CD1      -21.8100   27.7560   24.4440 C.ar  264  TYR264     -0.0009
    212  CD2      -23.4780   29.2580   25.2510 C.ar  264  TYR264     -0.0009
    213  CE1      -22.5110   26.6850   24.9520 C.ar  264  TYR264      0.0417
    214  CE2      -24.2000   28.1870   25.7600 C.ar  264  TYR264      0.0417
    215  CZ       -23.7070   26.9040   25.6050 C.ar  264  TYR264      0.1957
    216  OH       -24.3920   25.8290   26.1120 O.3   264  TYR264     -0.2866
    217  N        -15.8990   30.1650   25.7460 N.3   267  LEU267     -0.1245
    218  CA       -15.5020   28.8790   25.1810 C.3   267  LEU267      0.1561
    219  C        -14.9120   29.0900   23.8060 C.2   267  LEU267      0.2260
    220  O        -13.8570   28.5390   23.4750 O.2   267  LEU267     -0.2867
    221  CB       -16.6860   27.9420   25.0940 C.3   267  LEU267      0.0270
    222  CG       -17.2890   27.5960   26.4560 C.3   267  LEU267      0.0019
    223  CD1      -18.5690   26.7950   26.2740 C.3   267  LEU267      0.0001
    224  CD2      -16.2950   26.8540   27.3670 C.3   267  LEU267      0.0001
    225  N        -11.0400   28.1590   22.3050 N.3   271  VAL271     -0.1245
    226  CA       -10.7100   27.4690   21.0690 C.3   271  VAL271      0.1561
    227  C         -9.7550   28.2940   20.2380 C.2   271  VAL271      0.2260
    228  O         -8.7480   27.7780   19.7520 O.2   271  VAL271     -0.2867
    229  CB       -11.9670   27.1710   20.2530 C.3   271  VAL271      0.0252
    230  CG1      -11.6270   26.5120   18.9010 C.3   271  VAL271      0.0019
    231  CG2      -12.8330   26.2760   21.0420 C.3   271  VAL271      0.0019
@<TRIPOS>BOND
     1    77    78    2
     2    77    76    1
     3    75    76    1
     4    65    66    2
     5    65    64    1
     6    63    64    1
     7    76    79    1
     8    64    67    1
     9    79    80    1
    10    67    68    1
    11   171   172    1
    12    70    68   ar
    13    70    72   ar
    14    80    82   ar
    15    80    81   ar
    16    68    69   ar
    17    82    84   ar
    18   172   175    1
    19   172   173    1
    20    72    73   ar
    21   175   176    1
    22    92    90    1
    23    81    83   ar
    24    69    71   ar
    25    84    85   ar
    26   177   176   ar
    27   177   179   ar
    28   176   178   ar
    29    73    71   ar
    30    73    74    1
    31   173   183   am
    32   173   174    2
    33    83    85   ar
    34    86    87    1
    35    90    87    1
    36    90    91    1
    37   108   107    1
    38    37    38    1
    39   183   184    1
    40    38    39    1
    41    38    41    1
    42    40    39    2
    43   179   181   ar
    44    87    88    1
    45   178   180   ar
    46    42    41    1
    47   107   109    1
    48   107   106    1
    49   185   184    1
    50   185   186    2
    51   184   187    1
    52    41    43    1
    53   181   180   ar
    54   181   182    1
    55   190   191    1
    56   187   189    1
    57   187   188    1
    58    27    26    2
    59    25    24    1
    60    25    26    1
    61    88    93   am
    62    88    89    2
    63   106   103    1
    64    93    94    1
    65    26    28   am
    66   230   229    1
    67    12    11    2
    68   191   194    1
    69   191   192    1
    70    31    30    2
    71    10    11    1
    72    10     9    1
    73   195   197    1
    74   195   194    1
    75   195   196    1
    76   102   103    1
    77    30    29    1
    78   100    99   ar
    79    98    99    1
    80    98    97    1
    81   103   104    1
    82    28    29    1
    83   228   227    2
    84   198   192   am
    85   198   199    1
    86    11    13   am
    87    99   101   ar
    88    94    97    1
    89    94    95    1
    90   202   199    1
    91   202   204    1
    92   202   203    1
    93   192   193    2
    94   200   199    1
    95   200   201    2
    96   227   226    1
    97   229   231    1
    98   229   226    1
    99    29    32    1
   100    95    96    2
   101   164   163    2
   102   104   110   am
   103   104   105    2
   104    16    15    2
   105    49    48    1
   106    49    50    1
   107   226   225    1
   108   110   111    1
   109    13    14    1
   110    51    50   ar
   111    48    45    1
   112    15    14    1
   113    50    52   ar
   114    32    33    1
   115    14    17    1
   116   163   162    1
   117   165   162    1
   118   165   166    1
   119   111   114    1
   120   111   112    1
   121   120   119    1
   122   162   161    1
   123    33    34    1
   124    36    34   ar
   125    45    46    1
   126    45    44    1
   127     4     3    2
   128   160   158   ar
   129     1     2    1
   130   119   116    1
   131    46    47    2
   132    34    35   ar
   133   166   167   ar
   134   166   168   ar
   135   167   169   ar
   136    17    18    1
   137     2     3    1
   138     2     5    1
   139   220   219    2
   140   208   207    2
   141   112   113    2
   142   158   159   ar
   143   158   157    1
   144    18    19   ar
   145    18    20   ar
   146    19    21   ar
   147   219   218    1
   148     7     6    1
   149   168   170   ar
   150   169   170   ar
   151   115   116    1
   152   209   210    1
   153   209   206    1
   154    20    22   ar
   155    21    23   ar
   156   207   206    1
   157   116   117    1
   158   121   117   am
   159   121   122    1
   160   211   210   ar
   161   211   213   ar
   162   157   156    1
   163   210   212   ar
   164    23    22   ar
   165     5     6    1
   166   155   154    2
   167   117   118    2
   168   122   123    1
   169     6     8    1
   170   206   205    1
   171   213   215   ar
   172    59    58   ar
   173    59    61   ar
   174    57    58    1
   175    57    54    1
   176   221   218    1
   177   221   222    1
   178   218   217    1
   179    55    56    2
   180    55    54    1
   181   212   214   ar
   182   215   214   ar
   183   215   216    1
   184   136   135    1
   185    58    60   ar
   186    61    62   ar
   187   154   153    1
   188    54    53    1
   189   142   141    1
   190   156   153    1
   191   153   152    1
   192   223   222    1
   193   135   134   ar
   194   135   133   ar
   195   123   125   am
   196   123   124    2
   197   222   224    1
   198   134   132   ar
   199   143   141    1
   200   125   126    1
   201   133   131   ar
   202   141   138    1
   203    60    62   ar
   204   132   130   ar
   205   131   130   ar
   206   130   129    1
   207   126   129    1
   208   126   127    1
   209   138   137    1
   210   138   139    1
   211   151   149    1
   212   127   128    2
   213   139   140    2
   214   149   148    1
   215   148   150    1
   216   148   145    1
   217   144   145    1
   218   145   146    1
   219   146   147    2
