@<TRIPOS>MOLECULE
tmp/5dcuA01.pdb
 128 123 0 0 0
SMALL
GASTEIGER

@<TRIPOS>ATOM
      1  N          2.8270   29.5120   -9.3030 N.3   121  THR121     -0.1203
      2  CA         1.3690   29.3360   -9.2170 C.3   121  THR121      0.1994
      3  C          0.7230   30.7070   -9.1560 C.2   121  THR121      0.2618
      4  O          0.9270   31.4760  -10.0970 O.2   121  THR121     -0.2717
      5  CB         0.9430   28.3800   -8.1160 C.3   121  THR121      0.1784
      6  OG1        1.3010   28.9190   -6.8250 O.3   121  THR121     -0.2211
      7  CG2        1.6020   26.9880   -8.2970 C.3   121  THR121      0.0376
      8  N         -0.0120   31.0490   -8.1030 N.am  122  GLY122     -0.1942
      9  CA        -0.7520   32.3040   -8.1040 C.3   122  GLY122      0.2014
     10  C         -1.6380   32.4580   -6.9010 C.2   122  GLY122      0.2639
     11  O         -1.7840   31.5520   -6.0960 O.2   122  GLY122     -0.2714
     12  N         -2.2890   33.6180   -6.8410 N.am  123  ILE123     -0.1963
     13  CA        -3.1800   33.9230   -5.7280 C.3   123  ILE123      0.1727
     14  C         -4.4640   33.1290   -5.7310 C.2   123  ILE123      0.2616
     15  O         -5.1400   33.1060   -4.7210 O.2   123  ILE123     -0.2715
     16  CB        -3.4470   35.4390   -5.5970 C.3   123  ILE123      0.0290
     17  CG1       -4.0950   35.9930   -6.8670 C.3   123  ILE123      0.0022
     18  CG2       -2.1680   36.1700   -5.2510 C.3   123  ILE123      0.0023
     19  CD1       -4.8310   37.2900   -6.6500 C.3   123  ILE123      0.0001
     20  N         -4.8370   32.4530   -6.8250 N.am  124  LYS124     -0.1977
     21  CA        -5.9890   31.5500   -6.8000 C.3   124  LYS124      0.1596
     22  C         -5.8370   30.4620   -5.7020 C.2   124  LYS124      0.2287
     23  O         -6.8100   29.9210   -5.2390 O.2   124  LYS124     -0.2864
     24  CB        -6.1690   30.7840   -8.1290 C.3   124  LYS124      0.0298
     25  CG        -7.1490   31.3080   -9.1620 C.3   124  LYS124      0.0038
     26  CD        -7.4450   30.2630  -10.2740 C.3   124  LYS124      0.0206
     27  CE        -6.2630   29.9580  -11.2100 C.3   124  LYS124      0.1093
     28  NZ        -6.4090   28.7330  -12.0990 N.3   124  LYS124     -0.1314
     29  N         -8.2710   31.7280   -2.9250 N.3   127  PHE127     -0.1241
     30  CA        -9.7010   31.9530   -3.1150 C.3   127  PHE127      0.1605
     31  C        -10.4430   30.9840   -4.0140 C.2   127  PHE127      0.2264
     32  O        -11.6600   30.9810   -3.9440 O.2   127  PHE127     -0.2867
     33  CB        -9.9860   33.3830   -3.5880 C.3   127  PHE127      0.0534
     34  CG        -9.4410   33.7130   -4.9430 C.ar  127  PHE127     -0.0203
     35  CD1      -10.1740   33.4470   -6.1090 C.ar  127  PHE127     -0.0042
     36  CD2       -8.2080   34.3410   -5.0750 C.ar  127  PHE127     -0.0042
     37  CE1       -9.6580   33.7570   -7.3640 C.ar  127  PHE127     -0.0003
     38  CE2       -7.7200   34.6800   -6.3200 C.ar  127  PHE127     -0.0003
     39  CZ        -8.4380   34.3830   -7.4650 C.ar  127  PHE127     -0.0000
     40  N        -11.5810   28.9560  -11.2300 N.3   130  PHE130     -0.1241
     41  CA       -12.4630   29.6750  -12.1420 C.3   130  PHE130      0.1605
     42  C        -13.6740   28.8340  -12.5590 C.2   130  PHE130      0.2264
     43  O        -14.7230   29.3860  -12.8610 O.2   130  PHE130     -0.2867
     44  CB       -11.6980   30.1320  -13.3950 C.3   130  PHE130      0.0534
     45  CG       -10.5530   31.0900  -13.1390 C.ar  130  PHE130     -0.0203
     46  CD1      -10.6010   32.0630  -12.1300 C.ar  130  PHE130     -0.0042
     47  CD2       -9.4410   31.0390  -13.9600 C.ar  130  PHE130     -0.0042
     48  CE1       -9.5350   32.9390  -11.9540 C.ar  130  PHE130     -0.0003
     49  CE2       -8.3850   31.9100  -13.7940 C.ar  130  PHE130     -0.0003
     50  CZ        -8.4270   32.8550  -12.7860 C.ar  130  PHE130     -0.0000
     51  N         -2.7870   23.7930   -8.6530 N.3   151  TYR151     -0.1241
     52  CA        -1.6570   24.3150   -7.8990 C.3   151  TYR151      0.1605
     53  C         -1.2390   23.3530   -6.7910 C.2   151  TYR151      0.2264
     54  O         -0.0580   23.2130   -6.5140 O.2   151  TYR151     -0.2867
     55  CB        -2.0180   25.6480   -7.2520 C.3   151  TYR151      0.0534
     56  CG        -2.2200   26.8290   -8.1540 C.ar  151  TYR151     -0.0201
     57  CD1       -1.9610   26.7720   -9.5230 C.ar  151  TYR151     -0.0009
     58  CD2       -2.6400   28.0500   -7.6220 C.ar  151  TYR151     -0.0009
     59  CE1       -2.1030   27.9200  -10.2970 C.ar  151  TYR151      0.0417
     60  CE2       -2.8120   29.1840   -8.4130 C.ar  151  TYR151      0.0417
     61  CZ        -2.5380   29.1060   -9.7550 C.ar  151  TYR151      0.1957
     62  OH        -2.6650   30.2210  -10.5680 O.3   151  TYR151     -0.2866
     63  N          2.2000   34.9100   -7.7870 N.3   174  PRO174     -0.2102
     64  CA         1.9720   36.2710   -8.2360 C.3   174  PRO174      0.1504
     65  C          0.5260   36.6730   -8.1650 C.2   174  PRO174      0.2576
     66  O         -0.3970   35.8550   -8.3550 O.2   174  PRO174     -0.2718
     67  CB         2.4750   36.2780   -9.6970 C.3   174  PRO174      0.0282
     68  CG         2.5650   34.8510  -10.0620 C.3   174  PRO174      0.0208
     69  CD         2.7800   34.0510   -8.8280 C.3   174  PRO174      0.0893
     70  N          0.3310   37.9630   -7.9580 N.am  175  ALA175     -0.1966
     71  CA        -0.9230   38.6190   -8.2390 C.3   175  ALA175      0.1728
     72  C         -1.1800   38.6990   -9.7560 C.2   175  ALA175      0.2616
     73  O         -0.3910   38.2250  -10.5530 O.2   175  ALA175     -0.2715
     74  CB        -0.8890   40.0370   -7.6260 C.3   175  ALA175      0.0334
     75  N         -2.2980   39.3010  -10.1180 N.am  176  LEU176     -0.1977
     76  CA        -2.6070   39.6170  -11.5360 C.3   176  LEU176      0.1596
     77  C         -1.3540   40.1800  -12.2140 C.2   176  LEU176      0.2287
     78  O         -0.8070   41.1530  -11.6930 O.2   176  LEU176     -0.2864
     79  CB        -3.7250   40.6530  -11.5490 C.3   176  LEU176      0.0297
     80  CG        -4.1390   41.1970  -12.8990 C.3   176  LEU176      0.0022
     81  CD1       -4.7530   40.0730  -13.7310 C.3   176  LEU176      0.0001
     82  CD2       -5.1360   42.3130  -12.6990 C.3   176  LEU176      0.0001
     83  N         -3.5610   34.7380  -20.5090 N.3   186  MET186     -0.1245
     84  CA        -4.1580   35.5870  -19.4710 C.3   186  MET186      0.1570
     85  C         -3.3310   36.8500  -19.3130 C.2   186  MET186      0.2261
     86  O         -2.6300   37.0410  -18.3370 O.2   186  MET186     -0.2867
     87  CB        -4.2420   34.8730  -18.1120 C.3   186  MET186      0.0387
     88  CG        -5.1730   33.6960  -18.0530 C.3   186  MET186      0.0595
     89  SD        -5.3850   33.0120  -16.3860 S.3   186  MET186     -0.1393
     90  CE        -3.6820   32.6600  -16.0580 C.3   186  MET186      0.0692
     91  N        -11.0630   36.7450  -19.1190 N.3   315  PHE315     -0.1241
     92  CA       -10.1960   36.9640  -17.9770 C.3   315  PHE315      0.1605
     93  C        -10.4070   38.3770  -17.4390 C.2   315  PHE315      0.2264
     94  O        -10.4860   38.5840  -16.2180 O.2   315  PHE315     -0.2867
     95  CB        -8.7420   36.7130  -18.3950 C.3   315  PHE315      0.0534
     96  CG        -7.7550   36.8580  -17.2920 C.ar  315  PHE315     -0.0203
     97  CD1       -7.7690   36.0120  -16.2150 C.ar  315  PHE315     -0.0042
     98  CD2       -6.7490   37.8250  -17.3470 C.ar  315  PHE315     -0.0042
     99  CE1       -6.8110   36.1110  -15.2210 C.ar  315  PHE315     -0.0003
    100  CE2       -5.8100   37.9390  -16.3430 C.ar  315  PHE315     -0.0003
    101  CZ        -5.8500   37.0930  -15.2920 C.ar  315  PHE315     -0.0000
    102  N        -13.5670   38.2250  -15.3290 N.3   318  ILE318     -0.1231
    103  CA       -13.2930   37.7660  -13.9760 C.3   318  ILE318      0.1692
    104  C        -12.6660   38.9100  -13.1440 C.2   318  ILE318      0.2591
    105  O        -13.0930   39.1460  -12.0060 O.2   318  ILE318     -0.2718
    106  CB       -12.3830   36.5120  -13.9850 C.3   318  ILE318      0.0266
    107  CG1      -13.1180   35.3490  -14.6010 C.3   318  ILE318      0.0019
    108  CG2      -11.9660   36.1850  -12.5510 C.3   318  ILE318      0.0020
    109  CD1      -12.1670   34.1760  -14.9030 C.3   318  ILE318      0.0001
    110  N        -11.6960   39.6000  -13.6990 N.am  319  ALA319     -0.1980
    111  CA       -11.0640   40.7410  -12.9660 C.3   319  ALA319      0.1597
    112  C        -12.1080   41.7800  -12.5640 C.2   319  ALA319      0.2287
    113  O        -12.0810   42.3160  -11.4440 O.2   319  ALA319     -0.2864
    114  CB        -9.9900   41.3560  -13.7780 C.3   319  ALA319      0.0319
    115  N        -14.1620   40.8480   -9.4190 N.3   322  SER322     -0.1217
    116  CA       -13.3410   40.4480   -8.2690 C.3   322  SER322      0.1889
    117  C        -13.1990   41.6200   -7.2890 C.2   322  SER322      0.2288
    118  O        -13.1320   42.7930   -7.6990 O.2   322  SER322     -0.2866
    119  CB       -11.9790   39.9990   -8.7080 C.3   322  SER322      0.2089
    120  OG       -12.1090   38.7960   -9.5000 O.3   322  SER322     -0.2183
    121  N         -9.0880   40.7600   -2.8790 N.3   325  LEU325     -0.1245
    122  CA        -8.0490   39.7910   -3.2670 C.3   325  LEU325      0.1561
    123  C         -6.6370   40.2710   -2.9970 C.2   325  LEU325      0.2260
    124  O         -5.6800   39.6620   -3.4910 O.2   325  LEU325     -0.2867
    125  CB        -8.1740   39.3970   -4.7460 C.3   325  LEU325      0.0270
    126  CG        -9.4840   38.7360   -5.1740 C.3   325  LEU325      0.0019
    127  CD1       -9.3420   38.3110   -6.6270 C.3   325  LEU325      0.0001
    128  CD2       -9.8470   37.5600   -4.3050 C.3   325  LEU325      0.0001
@<TRIPOS>BOND
     1    83    84    1
     2    84    85    1
     3    84    87    1
     4    85    86    2
     5    91    92    1
     6    95    92    1
     7    95    96    1
     8    87    88    1
     9    88    89    1
    10    92    93    1
    11    93    94    2
    12    98    96   ar
    13    98   100   ar
    14    96    97   ar
    15    89    90    1
    16   100   101   ar
    17    97    99   ar
    18   102   103    1
    19   101    99   ar
    20   109   107    1
    21   107   106    1
    22   106   103    1
    23   106   108    1
    24   103   104    1
    25    47    49   ar
    26    47    45   ar
    27    49    50   ar
    28   114   111    1
    29    81    80    1
    30   110   104   am
    31   110   111    1
    32    44    45    1
    33    44    41    1
    34   104   105    2
    35    45    46   ar
    36   111   112    1
    37    80    82    1
    38    80    79    1
    39    43    42    2
    40    50    48   ar
    41   112   113    2
    42    42    41    1
    43    77    78    2
    44    77    76    1
    45    41    40    1
    46    46    48   ar
    47    28    27    1
    48    79    76    1
    49    76    75    1
    50    27    26    1
    51    62    61    1
    52    73    72    2
    53    59    61   ar
    54    59    57   ar
    55    26    25    1
    56    75    72   am
    57     4     3    2
    58    68    67    1
    59    68    69    1
    60    72    71    1
    61    61    60   ar
    62    67    64    1
    63    57    56   ar
    64   120   119    1
    65   115   116    1
    66     1     2    1
    67     2     3    1
    68     2     5    1
    69    25    24    1
    70     3     8   am
    71    69    63    1
    72   119   116    1
    73    51    52    1
    74    60    58   ar
    75    66    65    2
    76     7     5    1
    77   116   117    1
    78    71    70    1
    79    71    74    1
    80    64    65    1
    81    64    63    1
    82    65    70   am
    83    56    58   ar
    84    56    55    1
    85    24    21    1
    86     5     6    1
    87     9     8    1
    88     9    10    1
    89    52    55    1
    90    52    53    1
    91   118   117    2
    92    39    37   ar
    93    39    38   ar
    94    37    35   ar
    95    10    12   am
    96    10    11    2
    97    17    19    1
    98    17    16    1
    99    12    13    1
   100    20    21    1
   101    20    14   am
   102    21    22    1
   103    53    54    2
   104   127   126    1
   105    38    36   ar
   106    35    34   ar
   107    14    13    1
   108    14    15    2
   109    13    16    1
   110    22    23    2
   111    16    18    1
   112   126   125    1
   113   126   128    1
   114    36    34   ar
   115    34    33    1
   116   125   122    1
   117    31    32    2
   118    31    30    1
   119    33    30    1
   120   124   123    2
   121   122   123    1
   122   122   121    1
   123    30    29    1
