@<TRIPOS>MOLECULE
tmp/5dcyB01.pdb
 111 112 0 0 0
SMALL
GASTEIGER

@<TRIPOS>ATOM
      1  N         24.5760   50.0060  -25.3760 N.3    87  TRP87      -0.1241
      2  CA        23.8080   48.7910  -25.7020 C.3    87  TRP87       0.1605
      3  C         23.4090   48.1560  -24.3870 C.2    87  TRP87       0.2264
      4  O         23.9480   48.4940  -23.3410 O.2    87  TRP87      -0.2867
      5  CB        24.6050   47.8210  -26.5930 C.3    87  TRP87       0.0550
      6  CG        25.7660   47.1380  -25.9840 C.ar   87  TRP87       0.0003
      7  CD1       26.8390   47.7390  -25.3910 C.ar   87  TRP87       0.0946
      8  CD2       25.9920   45.7410  -25.9030 C.ar   87  TRP87       0.0152
      9  NE1       27.7180   46.7930  -24.9450 N.ar   87  TRP87      -0.2442
     10  CE2       27.2230   45.5490  -25.2630 C.ar   87  TRP87       0.0810
     11  CE3       25.2670   44.6100  -26.3350 C.ar   87  TRP87       0.0012
     12  CZ2       27.7480   44.2810  -25.0290 C.ar   87  TRP87       0.0191
     13  CZ3       25.7920   43.3420  -26.0900 C.ar   87  TRP87       0.0001
     14  CH2       27.0060   43.1920  -25.4370 C.ar   87  TRP87       0.0015
     15  N         22.3970   40.5670  -27.0200 N.3    91  GLU91      -0.1245
     16  CA        22.0780   40.6770  -28.4450 C.3    91  GLU91       0.1567
     17  C         20.5940   40.8510  -28.7610 C.2    91  GLU91       0.2260
     18  O         20.1960   40.8350  -29.9250 O.2    91  GLU91      -0.2867
     19  CB        22.5820   39.4190  -29.1750 C.3    91  GLU91       0.0388
     20  CG        24.0820   39.2270  -29.1200 C.3    91  GLU91       0.1160
     21  CD        24.8330   40.3190  -29.8340 C.2    91  GLU91       0.3649
     22  OE1       24.2200   41.0940  -30.6270 O.co2  91  GLU91      -0.2457
     23  OE2       26.0490   40.4090  -29.6070 O.co2  91  GLU91      -0.2457
     24  N         30.6440   44.2810  -36.3600 N.3   124  LYS124     -0.1245
     25  CA        29.7620   43.1190  -36.4190 C.3   124  LYS124      0.1561
     26  C         28.6130   43.2710  -37.4320 C.2   124  LYS124      0.2260
     27  O         27.9680   42.3000  -37.7760 O.2   124  LYS124     -0.2867
     28  CB        29.2180   42.7820  -35.0320 C.3   124  LYS124      0.0271
     29  CG        30.1570   41.8310  -34.2950 C.3   124  LYS124      0.0035
     30  CD        29.6110   41.4160  -32.9400 C.3   124  LYS124      0.0206
     31  CE        28.6310   40.2690  -33.0660 C.3   124  LYS124      0.1093
     32  NZ        27.9210   40.0400  -31.7650 N.3   124  LYS124     -0.1314
     33  N         19.2840   38.1520  -37.9000 N.3   144  PRO144     -0.2102
     34  CA        19.0010   39.1500  -36.8560 C.3   144  PRO144      0.1504
     35  C         20.2770   39.8120  -36.4010 C.2   144  PRO144      0.2576
     36  O         21.2970   39.1480  -36.1660 O.2   144  PRO144     -0.2718
     37  CB        18.3940   38.3330  -35.7160 C.3   144  PRO144      0.0282
     38  CG        18.0040   37.0400  -36.3250 C.3   144  PRO144      0.0208
     39  CD        18.9120   36.7910  -37.4800 C.3   144  PRO144      0.0893
     40  N         20.2280   41.1150  -36.2920 N.am  145  ASN145     -0.1961
     41  CA        21.3350   41.9240  -35.7770 C.3   145  ASN145      0.1819
     42  C         20.7440   43.1890  -35.2590 C.2   145  ASN145      0.2621
     43  O         20.1770   43.9550  -36.0340 O.2   145  ASN145     -0.2715
     44  CB        22.3400   42.2210  -36.8890 C.3   145  ASN145      0.1195
     45  CG        23.5960   42.8890  -36.3710 C.2   145  ASN145      0.2630
     46  OD1       23.5490   43.6590  -35.4100 O.2   145  ASN145     -0.2716
     47  ND2       24.7390   42.5700  -36.9750 N.am  145  ASN145     -0.0877
     48  N         20.8830   43.4630  -33.9510 N.am  146  PHE146     -0.1960
     49  CA        20.2410   44.6820  -33.4170 C.3   146  PHE146      0.1771
     50  C         20.7390   45.9850  -34.0520 C.2   146  PHE146      0.2619
     51  O         20.0320   47.0000  -34.0250 O.2   146  PHE146     -0.2715
     52  CB        20.2950   44.7080  -31.8580 C.3   146  PHE146      0.0574
     53  CG        21.6060   45.0930  -31.2320 C.ar  146  PHE146     -0.0200
     54  CD1       21.9480   46.4110  -31.0580 C.ar  146  PHE146     -0.0042
     55  CD2       22.4920   44.1320  -30.8000 C.ar  146  PHE146     -0.0042
     56  CE1       23.1050   46.7870  -30.3980 C.ar  146  PHE146     -0.0003
     57  CE2       23.6830   44.4940  -30.1480 C.ar  146  PHE146     -0.0003
     58  CZ        23.9980   45.8200  -29.9720 C.ar  146  PHE146     -0.0000
     59  N         21.9270   45.9540  -34.6590 N.am  147  TYR147     -0.1974
     60  CA        22.4380   47.0950  -35.4040 C.3   147  TYR147      0.1639
     61  C         21.4750   47.5010  -36.5120 C.2   147  TYR147      0.2290
     62  O         21.2550   48.6860  -36.7760 O.2   147  TYR147     -0.2864
     63  CB        23.7780   46.7410  -36.0390 C.3   147  TYR147      0.0560
     64  CG        24.9470   46.5730  -35.0820 C.ar  147  TYR147     -0.0198
     65  CD1       24.8420   46.8410  -33.7120 C.ar  147  TYR147     -0.0009
     66  CD2       26.1830   46.1960  -35.5770 C.ar  147  TYR147     -0.0009
     67  CE1       25.9480   46.7510  -32.8890 C.ar  147  TYR147      0.0417
     68  CE2       27.2940   46.0830  -34.7470 C.ar  147  TYR147      0.0417
     69  CZ        27.1820   46.3780  -33.4090 C.ar  147  TYR147      0.1957
     70  OH        28.3190   46.2690  -32.5890 O.3   147  TYR147     -0.2866
     71  N         32.7210   45.4030  -22.6470 N.3   182  MET182     -0.1245
     72  CA        33.6460   44.8330  -23.6350 C.3   182  MET182      0.1570
     73  C         34.8460   45.7380  -23.7720 C.2   182  MET182      0.2261
     74  O         34.9880   46.4270  -24.7470 O.2   182  MET182     -0.2867
     75  CB        32.9720   44.7050  -25.0150 C.3   182  MET182      0.0387
     76  CG        31.8500   43.7190  -25.0860 C.3   182  MET182      0.0595
     77  SD        31.2040   43.5660  -26.7590 S.3   182  MET182     -0.1393
     78  CE        30.6160   45.2530  -27.1100 C.3   182  MET182      0.0692
     79  N         35.2280   36.5150  -21.5190 N.3   310  TRP310     -0.1227
     80  CA        34.4720   35.9470  -22.6360 C.3   310  TRP310      0.1737
     81  C         34.7310   36.6700  -23.9680 C.2   310  TRP310      0.2595
     82  O         34.7210   36.0510  -25.0370 O.2   310  TRP310     -0.2718
     83  CB        32.9500   35.9650  -22.3190 C.3   310  TRP310      0.0564
     84  CG        32.3550   37.3610  -22.1980 C.ar  310  TRP310      0.0003
     85  CD1       32.2670   38.1290  -21.0790 C.ar  310  TRP310      0.0946
     86  CD2       31.8540   38.1610  -23.2680 C.ar  310  TRP310      0.0152
     87  NE1       31.6920   39.3500  -21.3790 N.ar  310  TRP310     -0.2442
     88  CE2       31.4220   39.3900  -22.7150 C.ar  310  TRP310      0.0810
     89  CE3       31.7150   37.9530  -24.6410 C.ar  310  TRP310      0.0012
     90  CZ2       30.9010   40.4160  -23.4940 C.ar  310  TRP310      0.0191
     91  CZ3       31.1530   38.9380  -25.4110 C.ar  310  TRP310      0.0001
     92  CH2       30.7570   40.1880  -24.8320 C.ar  310  TRP310      0.0015
     93  N         34.9500   37.9810  -23.8980 N.am  311  PHE311     -0.1976
     94  CA        35.1380   38.8300  -25.0500 C.3   311  PHE311      0.1639
     95  C         36.5620   38.6630  -25.6070 C.2   311  PHE311      0.2290
     96  O         36.7510   38.6050  -26.8200 O.2   311  PHE311     -0.2864
     97  CB        34.8460   40.2910  -24.6730 C.3   311  PHE311      0.0560
     98  CG        35.0180   41.2870  -25.7910 C.ar  311  PHE311     -0.0200
     99  CD1       34.1720   41.2630  -26.8990 C.ar  311  PHE311     -0.0042
    100  CD2       35.9570   42.3180  -25.7100 C.ar  311  PHE311     -0.0042
    101  CE1       34.2860   42.2070  -27.9090 C.ar  311  PHE311     -0.0003
    102  CE2       36.0660   43.2690  -26.7130 C.ar  311  PHE311     -0.0003
    103  CZ        35.2320   43.2220  -27.8060 C.ar  311  PHE311     -0.0000
    104  N         36.4950   35.4780  -27.6500 N.3   314  ILE314     -0.1245
    105  CA        36.0280   35.7150  -29.0170 C.3   314  ILE314      0.1561
    106  C         37.1330   36.3640  -29.8700 C.2   314  ILE314      0.2260
    107  O         37.3820   35.9340  -31.0230 O.2   314  ILE314     -0.2867
    108  CB        34.7390   36.5580  -29.0340 C.3   314  ILE314      0.0252
    109  CG1       33.5960   35.7590  -28.3890 C.3   314  ILE314      0.0019
    110  CG2       34.3680   36.9440  -30.4730 C.3   314  ILE314      0.0019
    111  CD1       32.3840   36.6250  -28.1120 C.3   314  ILE314      0.0001
@<TRIPOS>BOND
     1    33    39    1
     2    33    34    1
     3    27    26    2
     4    39    38    1
     5    26    25    1
     6    47    45   am
     7    44    45    1
     8    44    41    1
     9    34    35    1
    10    34    37    1
    11    62    61    2
    12    61    60    1
    13    25    24    1
    14    25    28    1
    15    35    40   am
    16    35    36    2
    17    45    46    2
    18    38    37    1
    19    40    41    1
    20    63    60    1
    21    63    64    1
    22    43    42    2
    23    41    42    1
    24    66    64   ar
    25    66    68   ar
    26    60    59    1
    27    42    48   am
    28    64    65   ar
    29    28    29    1
    30    68    69   ar
    31    59    50   am
    32    29    30    1
    33    50    51    2
    34    50    49    1
    35    48    49    1
    36    65    67   ar
    37    49    52    1
    38    69    67   ar
    39    69    70    1
    40    31    30    1
    41    31    32    1
    42    52    53    1
    43    53    54   ar
    44    53    55   ar
    45    54    56   ar
    46   107   106    2
    47    55    57   ar
    48    22    21   ar
    49   110   108    1
    50    56    58   ar
    51    57    58   ar
    52    18    17    2
    53   106   105    1
    54    21    23   ar
    55    21    20    1
    56    19    20    1
    57    19    16    1
    58   108   105    1
    59   108   109    1
    60   105   104    1
    61    17    16    1
    62    16    15    1
    63   109   111    1
    64   101   103   ar
    65   101    99   ar
    66   103   102   ar
    67    78    77    1
    68    99    98   ar
    69    96    95    2
    70    77    76    1
    71   102   100   ar
    72     5     6    1
    73     5     2    1
    74    11    13   ar
    75    11     8   ar
    76    13    14   ar
    77     6     8   ar
    78     6     7   ar
    79     8    10   ar
    80    98   100   ar
    81    98    97    1
    82     2     1    1
    83     2     3    1
    84    95    94    1
    85    14    12   ar
    86    91    92   ar
    87    91    89   ar
    88     7     9   ar
    89    10    12   ar
    90    10     9   ar
    91    76    75    1
    92    94    97    1
    93    94    93    1
    94    82    81    2
    95    75    72    1
    96    92    90   ar
    97    74    73    2
    98    89    86   ar
    99     3     4    2
   100    81    93   am
   101    81    80    1
   102    73    72    1
   103    72    71    1
   104    90    88   ar
   105    86    88   ar
   106    86    84   ar
   107    88    87   ar
   108    80    83    1
   109    80    79    1
   110    83    84    1
   111    84    85   ar
   112    87    85   ar
