@<TRIPOS>MOLECULE
tmp/5dczA00.pdb
 186 188 0 0 0
SMALL
GASTEIGER

@<TRIPOS>ATOM
      1  N          1.8390  -10.1730   -8.3770 N.3    79  PHE79      -0.1227
      2  CA         2.3840  -11.0420   -9.4020 C.3    79  PHE79       0.1736
      3  C          1.7160  -10.8220  -10.7530 C.2    79  PHE79       0.2595
      4  O          0.5120  -10.5540  -10.8380 O.2    79  PHE79      -0.2718
      5  CB         2.2500  -12.5090   -8.9840 C.3    79  PHE79       0.0547
      6  CG         3.0530  -12.8590   -7.7650 C.ar   79  PHE79      -0.0202
      7  CD1        4.4260  -13.0580   -7.8600 C.ar   79  PHE79      -0.0042
      8  CD2        2.4490  -12.9560   -6.5200 C.ar   79  PHE79      -0.0042
      9  CE1        5.1760  -13.3590   -6.7380 C.ar   79  PHE79      -0.0003
     10  CE2        3.1960  -13.2690   -5.3940 C.ar   79  PHE79      -0.0003
     11  CZ         4.5600  -13.4660   -5.5020 C.ar   79  PHE79      -0.0000
     12  N          2.5180  -10.9590  -11.8050 N.am   80  HIS80      -0.1961
     13  CA         2.0420  -10.9130  -13.1700 C.3    80  HIS80       0.1787
     14  C          2.7270  -12.0140  -13.9710 C.2    80  HIS80       0.2621
     15  O          3.9490  -12.1770  -13.8890 O.2    80  HIS80      -0.2715
     16  CB         2.3600   -9.5530  -13.7910 C.3    80  HIS80       0.0785
     17  CG         1.8550   -9.4020  -15.1900 C.ar   80  HIS80       0.0821
     18  ND1        0.5160   -9.2510  -15.4840 N.ar   80  HIS80      -0.2267
     19  CD2        2.5060   -9.3910  -16.3780 C.ar   80  HIS80       0.1154
     20  CE1        0.3660   -9.1490  -16.7940 C.ar   80  HIS80       0.1986
     21  NE2        1.5580   -9.2320  -17.3590 N.ar   80  HIS80      -0.2212
     22  N          1.9430  -12.7610  -14.7430 N.am   81  GLY81      -0.1940
     23  CA         2.4690  -13.8050  -15.6200 C.3    81  GLY81       0.2014
     24  C          2.1060  -13.4950  -17.0560 C.2    81  GLY81       0.2640
     25  O          0.9890  -13.0360  -17.3330 O.2    81  GLY81      -0.2714
     26  N          3.0430  -13.7490  -17.9700 N.am   82  SER82      -0.1936
     27  CA         2.8440  -13.4210  -19.3800 C.3    82  SER82       0.2040
     28  C          3.8820  -14.0720  -20.2930 C.2    82  SER82       0.2485
     29  O          5.0260  -14.2520  -19.8960 O.2    82  SER82      -0.2729
     30  CB         2.9220  -11.9080  -19.5720 C.3    82  SER82       0.2129
     31  OG         2.7340  -11.5500  -20.9290 O.3    82  SER82      -0.2179
     32  N          3.4930  -14.4020  -21.5380 N.am   83  PRO83      -0.2715
     33  CA         4.4930  -14.7820  -22.5400 C.3    83  PRO83       0.1536
     34  C          5.4740  -13.6530  -22.8800 C.2    83  PRO83       0.2598
     35  O          6.5580  -13.9270  -23.3820 O.2    83  PRO83      -0.2715
     36  CB         3.6460  -15.1180  -23.7760 C.3    83  PRO83       0.0310
     37  CG         2.2960  -15.4380  -23.2410 C.3    83  PRO83       0.0237
     38  CD         2.1230  -14.5250  -22.0650 C.3    83  PRO83       0.0939
     39  N          5.0990  -12.4050  -22.6000 N.am   84  PHE84      -0.1974
     40  CA         5.8830  -11.2430  -23.0170 C.3    84  PHE84       0.1639
     41  C          6.7190  -10.6210  -21.8980 C.2    84  PHE84       0.2290
     42  O          6.9760   -9.4180  -21.9170 O.2    84  PHE84      -0.2864
     43  CB         4.9330  -10.2050  -23.6210 C.3    84  PHE84       0.0560
     44  CG         3.9550  -10.7960  -24.5950 C.ar   84  PHE84      -0.0200
     45  CD1        4.4030  -11.3470  -25.7900 C.ar   84  PHE84      -0.0042
     46  CD2        2.5950  -10.8310  -24.3110 C.ar   84  PHE84      -0.0042
     47  CE1        3.5130  -11.9110  -26.6920 C.ar   84  PHE84      -0.0003
     48  CE2        1.7010  -11.3930  -25.2070 C.ar   84  PHE84      -0.0003
     49  CZ         2.1590  -11.9330  -26.4000 C.ar   84  PHE84      -0.0000
     50  N         -0.5810   -2.4850  -25.3380 N.3    96  ARG96      -0.1231
     51  CA        -0.4720   -3.7640  -26.0550 C.3    96  ARG96       0.1694
     52  C         -0.6310   -4.9640  -25.1070 C.2    96  ARG96       0.2592
     53  O         -1.0710   -6.0360  -25.5280 O.2    96  ARG96      -0.2718
     54  CB         0.8630   -3.8550  -26.8010 C.3    96  ARG96       0.0321
     55  CG         1.0540   -5.1310  -27.6300 C.3    96  ARG96       0.0489
     56  CD         2.3270   -5.0710  -28.4870 C.3    96  ARG96       0.2205
     57  NE         3.5500   -4.9210  -27.6940 N.pl3  96  ARG96      -0.0865
     58  CZ         4.0810   -5.8830  -26.9360 C.cat  96  ARG96       0.5346
     59  NH1        3.5090   -7.0840  -26.8550 N.pl3  96  ARG96       0.1354
     60  NH2        5.1890   -5.6420  -26.2450 N.pl3  96  ARG96       0.1354
     61  N         -0.2760   -4.7680  -23.8340 N.am   97  HIS97      -0.1962
     62  CA        -0.4710   -5.7790  -22.7820 C.3    97  HIS97       0.1787
     63  C         -1.8920   -5.7780  -22.1790 C.2    97  HIS97       0.2620
     64  O         -2.1620   -6.5210  -21.2380 O.2    97  HIS97      -0.2715
     65  CB         0.5670   -5.5930  -21.6560 C.3    97  HIS97       0.0785
     66  CG         1.9890   -5.7520  -22.1050 C.ar   97  HIS97       0.0821
     67  ND1        2.7500   -4.6980  -22.5630 N.ar   97  HIS97      -0.2267
     68  CD2        2.7890   -6.8420  -22.1620 C.ar   97  HIS97       0.1154
     69  CE1        3.9550   -5.1310  -22.8880 C.ar   97  HIS97       0.1986
     70  NE2        4.0050   -6.4290  -22.6530 N.ar   97  HIS97      -0.2212
     71  N         -2.7960   -4.9570  -22.7120 N.am   98  ALA98      -0.1963
     72  CA        -4.1820   -4.9390  -22.2480 C.3    98  ALA98       0.1728
     73  C         -4.9020   -6.2330  -22.6390 C.2    98  ALA98       0.2616
     74  O         -5.0270   -6.5530  -23.8240 O.2    98  ALA98      -0.2715
     75  CB        -4.9210   -3.7300  -22.8070 C.3    98  ALA98       0.0334
     76  N         -5.3580   -6.9730  -21.6300 N.am   99  TYR99      -0.1974
     77  CA        -6.1070   -8.2070  -21.8320 C.3    99  TYR99       0.1639
     78  C         -7.5520   -7.8480  -22.1360 C.2    99  TYR99       0.2290
     79  O         -8.3610   -7.6390  -21.2310 O.2    99  TYR99      -0.2864
     80  CB        -5.9960   -9.1060  -20.5950 C.3    99  TYR99       0.0560
     81  CG        -6.7640  -10.4170  -20.6420 C.ar   99  TYR99      -0.0198
     82  CD1       -7.0410  -11.0690  -21.8460 C.ar   99  TYR99      -0.0009
     83  CD2       -7.1780  -11.0260  -19.4650 C.ar   99  TYR99      -0.0009
     84  CE1       -7.7330  -12.2720  -21.8650 C.ar   99  TYR99       0.0417
     85  CE2       -7.8630  -12.2270  -19.4770 C.ar   99  TYR99       0.0417
     86  CZ        -8.1380  -12.8440  -20.6720 C.ar   99  TYR99       0.1957
     87  OH        -8.8240  -14.0320  -20.6520 O.3    99  TYR99      -0.2866
     88  N        -10.5220   -9.8500  -20.5630 N.3   102  GLY102     -0.1210
     89  CA       -10.5550  -10.0090  -19.1150 C.3   102  GLY102      0.1956
     90  C        -11.8960   -9.6040  -18.5330 C.2   102  GLY102      0.2612
     91  O        -12.6040   -8.7770  -19.1100 O.2   102  GLY102     -0.2717
     92  N        -12.2290  -10.1790  -17.3790 N.am  103  MET103     -0.1965
     93  CA       -13.5160   -9.9390  -16.7150 C.3   103  MET103      0.1736
     94  C        -13.7590   -8.4930  -16.2780 C.2   103  MET103      0.2616
     95  O        -14.9040   -8.1090  -16.0390 O.2   103  MET103     -0.2715
     96  CB       -13.6450  -10.8100  -15.4690 C.3   103  MET103      0.0427
     97  CG       -13.7410  -12.2990  -15.7290 C.3   103  MET103      0.0599
     98  SD       -14.0530  -13.1670  -14.1800 S.3   103  MET103     -0.1393
     99  CE       -15.7290  -12.6450  -13.8290 C.3   103  MET103      0.0692
    100  N        -12.6980   -7.7050  -16.1380 N.am  104  PHE104     -0.1974
    101  CA       -12.8340   -6.3330  -15.6650 C.3   104  PHE104      0.1639
    102  C        -12.3800   -5.3240  -16.7230 C.2   104  PHE104      0.2290
    103  O        -11.8890   -4.2470  -16.3880 O.2   104  PHE104     -0.2864
    104  CB       -12.0560   -6.1530  -14.3540 C.3   104  PHE104      0.0560
    105  CG       -12.3190   -7.2390  -13.3330 C.ar  104  PHE104     -0.0200
    106  CD1      -13.5310   -7.3040  -12.6680 C.ar  104  PHE104     -0.0042
    107  CD2      -11.3540   -8.1940  -13.0350 C.ar  104  PHE104     -0.0042
    108  CE1      -13.7810   -8.2970  -11.7280 C.ar  104  PHE104     -0.0003
    109  CE2      -11.5950   -9.1920  -12.1000 C.ar  104  PHE104     -0.0003
    110  CZ       -12.8120   -9.2430  -11.4440 C.ar  104  PHE104     -0.0000
    111  N         -3.7520   -7.0980  -15.8590 N.3   109  TYR109     -0.1227
    112  CA        -4.1830   -7.8510  -14.6800 C.3   109  TYR109      0.1736
    113  C         -3.0100   -8.3530  -13.8460 C.2   109  TYR109      0.2595
    114  O         -2.0040   -8.8350  -14.3850 O.2   109  TYR109     -0.2718
    115  CB        -5.0530   -9.0350  -15.0890 C.3   109  TYR109      0.0548
    116  CG        -6.4070   -8.6340  -15.6420 C.ar  109  TYR109     -0.0200
    117  CD1       -6.5070   -7.8580  -16.7970 C.ar  109  TYR109     -0.0009
    118  CD2       -7.5820   -9.0360  -15.0240 C.ar  109  TYR109     -0.0009
    119  CE1       -7.7340   -7.4870  -17.3110 C.ar  109  TYR109      0.0417
    120  CE2       -8.8160   -8.6700  -15.5350 C.ar  109  TYR109      0.0417
    121  CZ        -8.8840   -7.8920  -16.6770 C.ar  109  TYR109      0.1957
    122  OH       -10.1020   -7.5180  -17.1960 O.3   109  TYR109     -0.2866
    123  N         -3.1620   -8.2210  -12.5290 N.am  110  PHE110     -0.1962
    124  CA        -2.1980   -8.6980  -11.5500 C.3   110  PHE110      0.1771
    125  C         -2.9320   -9.5260  -10.5030 C.2   110  PHE110      0.2619
    126  O         -4.1580   -9.4650  -10.4080 O.2   110  PHE110     -0.2715
    127  CB        -1.4870   -7.5230  -10.8890 C.3   110  PHE110      0.0574
    128  CG        -0.7170   -6.6670  -11.8530 C.ar  110  PHE110     -0.0200
    129  CD1       -1.3640   -5.7090  -12.6240 C.ar  110  PHE110     -0.0042
    130  CD2        0.6560   -6.8180  -11.9910 C.ar  110  PHE110     -0.0042
    131  CE1       -0.6590   -4.9200  -13.5170 C.ar  110  PHE110     -0.0003
    132  CE2        1.3660   -6.0310  -12.8790 C.ar  110  PHE110     -0.0003
    133  CZ         0.7080   -5.0850  -13.6470 C.ar  110  PHE110     -0.0000
    134  N         -2.1860  -10.3060   -9.7270 N.am  111  ALA111     -0.1977
    135  CA        -2.7880  -11.2350   -8.7730 C.3   111  ALA111      0.1597
    136  C         -1.9970  -11.3180   -7.4740 C.2   111  ALA111      0.2287
    137  O         -0.7600  -11.2620   -7.4840 O.2   111  ALA111     -0.2864
    138  CB        -2.8980  -12.6180   -9.3990 C.3   111  ALA111      0.0319
    139  N         -2.1230  -17.9940   -9.6190 N.3   116  LYS116     -0.1231
    140  CA        -3.0080  -17.4210  -10.6300 C.3   116  LYS116      0.1693
    141  C         -2.1760  -16.8080  -11.7500 C.2   116  LYS116      0.2592
    142  O         -2.4800  -16.9920  -12.9240 O.2   116  LYS116     -0.2718
    143  CB        -3.9540  -16.3840  -10.0120 C.3   116  LYS116      0.0285
    144  CG        -4.7220  -15.5100  -10.9940 C.3   116  LYS116      0.0035
    145  CD        -5.5480  -16.2960  -12.0070 C.3   116  LYS116      0.0206
    146  CE        -6.7300  -17.0020  -11.3710 C.3   116  LYS116      0.1093
    147  NZ        -7.6500  -17.5870  -12.3920 N.3   116  LYS116     -0.1314
    148  N         -1.1220  -16.0860  -11.3870 N.am  117  SER117     -0.1952
    149  CA        -0.1860  -15.5580  -12.3780 C.3   117  SER117      0.1924
    150  C          0.4940  -16.6790  -13.1630 C.2   117  SER117      0.2314
    151  O          0.7340  -16.5460  -14.3620 O.2   117  SER117     -0.2863
    152  CB         0.8530  -14.6640  -11.7070 C.3   117  SER117      0.2116
    153  OG         0.2240  -13.5740  -11.0590 O.3   117  SER117     -0.2180
    154  N         -0.8580  -17.8700  -16.6050 N.3   120  TYR120     -0.1241
    155  CA        -0.7190  -17.0350  -17.7970 C.3   120  TYR120      0.1605
    156  C          0.6920  -17.0180  -18.3550 C.2   120  TYR120      0.2264
    157  O          0.9730  -16.2790  -19.2970 O.2   120  TYR120     -0.2867
    158  CB        -1.1830  -15.6110  -17.4810 C.3   120  TYR120      0.0534
    159  CG        -2.6670  -15.5630  -17.2440 C.ar  120  TYR120     -0.0201
    160  CD1       -3.1960  -15.7900  -15.9820 C.ar  120  TYR120     -0.0009
    161  CD2       -3.5450  -15.3370  -18.2920 C.ar  120  TYR120     -0.0009
    162  CE1       -4.5640  -15.7710  -15.7680 C.ar  120  TYR120      0.0417
    163  CE2       -4.9110  -15.3140  -18.0890 C.ar  120  TYR120      0.0417
    164  CZ        -5.4150  -15.5340  -16.8280 C.ar  120  TYR120      0.1957
    165  OH        -6.7750  -15.5110  -16.6340 O.3   120  TYR120     -0.2866
    166  N          0.5710  -18.2290  -21.7650 N.3   123  GLY123     -0.1210
    167  CA        -0.5390  -17.6120  -22.4960 C.3   123  GLY123      0.1956
    168  C         -1.8650  -17.7160  -21.7630 C.2   123  GLY123      0.2611
    169  O         -1.9420  -18.2520  -20.6580 O.2   123  GLY123     -0.2717
    170  N         -2.9170  -17.2030  -22.3880 N.am  124  ILE124     -0.1979
    171  CA        -4.2530  -17.2150  -21.7930 C.3   124  ILE124      0.1595
    172  C         -4.7010  -18.6590  -21.6190 C.2   124  ILE124      0.2287
    173  O         -4.5840  -19.4590  -22.5390 O.2   124  ILE124     -0.2864
    174  CB        -5.2600  -16.4550  -22.6800 C.3   124  ILE124      0.0276
    175  CG1       -4.9040  -14.9630  -22.7210 C.3   124  ILE124      0.0022
    176  CG2       -6.6880  -16.6420  -22.1740 C.3   124  ILE124      0.0022
    177  CD1       -5.5110  -14.2220  -23.8930 C.3   124  ILE124      0.0001
    178  N         -7.6270  -10.0490   -7.2900 N.3   180  GLU180     -0.1245
    179  CA        -6.9690   -9.7990   -8.5570 C.3   180  GLU180      0.1567
    180  C         -7.2040   -8.3280   -8.8650 C.2   180  GLU180      0.2260
    181  O         -8.1900   -7.7520   -8.4110 O.2   180  GLU180     -0.2867
    182  CB        -7.5510  -10.7010   -9.6390 C.3   180  GLU180      0.0388
    183  CG        -7.4440  -12.1880   -9.3080 C.3   180  GLU180      0.1160
    184  CD        -8.3530  -13.0520  -10.1630 C.2   180  GLU180      0.3649
    185  OE1       -9.0390  -12.4950  -11.0460 O.co2 180  GLU180     -0.2457
    186  OE2       -8.3900  -14.2840   -9.9430 O.co2 180  GLU180     -0.2457
@<TRIPOS>BOND
     1    56    57    1
     2    56    55    1
     3    57    58    2
     4    55    54    1
     5    58    59    1
     6    58    60    1
     7    54    51    1
     8    47    49   ar
     9    47    45   ar
    10    49    48   ar
    11    51    50    1
    12    51    52    1
    13    45    44   ar
    14    53    52    2
    15    48    46   ar
    16    52    61   am
    17    44    46   ar
    18    44    43    1
    19   177   175    1
    20    61    62    1
    21    74    73    2
    22    36    37    1
    23    36    33    1
    24    43    40    1
    25    35    34    2
    26    37    38    1
    27    40    39    1
    28    40    41    1
    29    69    70   ar
    30    69    67   ar
    31    34    39   am
    32    34    33    1
    33    75    72    1
    34    62    63    1
    35    62    65    1
    36   175   174    1
    37    71    72    1
    38    71    63   am
    39   174   176    1
    40   174   171    1
    41    70    68   ar
    42    73    72    1
    43    73    76   am
    44    67    66   ar
    45    33    32    1
    46   173   172    2
    47   167   166    1
    48   167   168    1
    49   170   171    1
    50   170   168   am
    51    63    64    2
    52    68    66   ar
    53    78    77    1
    54    78    79    2
    55    66    65    1
    56    38    32    1
    57    42    41    2
    58    84    82   ar
    59    84    86   ar
    60    82    81   ar
    61    77    76    1
    62    77    80    1
    63   171   172    1
    64   168   169    2
    65    32    28   am
    66    31    30    1
    67    86    87    1
    68    86    85   ar
    69    81    80    1
    70    81    83   ar
    71    88    89    1
    72    28    29    2
    73    28    27    1
    74    30    27    1
    75    85    83   ar
    76    27    26    1
    77   157   156    2
    78    89    90    1
    79    91    90    2
    80    90    92   am
    81   156   155    1
    82   161   163   ar
    83   161   159   ar
    84   163   164   ar
    85    26    24   am
    86   155   158    1
    87   155   154    1
    88   158   159    1
    89    92    93    1
    90    21    20   ar
    91    21    19   ar
    92    25    24    2
    93   119   117   ar
    94   119   121   ar
    95   159   160   ar
    96   122   121    1
    97    24    23    1
    98   164   165    1
    99   164   162   ar
   100   117   116   ar
   101    20    18   ar
   102   102   103    2
   103   102   101    1
   104    93    94    1
   105    93    96    1
   106   121   120   ar
   107    19    17   ar
   108    94   100   am
   109    94    95    2
   110   100   101    1
   111   160   162   ar
   112   111   112    1
   113    97    96    1
   114    97    98    1
   115   101   104    1
   116   116   115    1
   117   116   118   ar
   118    23    22    1
   119   120   118   ar
   120    18    17   ar
   121    17    16    1
   122   115   112    1
   123    22    14   am
   124   112   113    1
   125   114   113    2
   126   151   150    2
   127   104   105    1
   128    98    99    1
   129    14    15    2
   130    14    13    1
   131   113   123   am
   132    16    13    1
   133   133   131   ar
   134   133   132   ar
   135   131   129   ar
   136   105   107   ar
   137   105   106   ar
   138    13    12    1
   139   150   149    1
   140   107   109   ar
   141   142   141    2
   142   132   130   ar
   143   106   108   ar
   144   129   128   ar
   145   123   124    1
   146   147   146    1
   147   149   152    1
   148   149   148    1
   149   109   110   ar
   150   145   146    1
   151   145   144    1
   152   130   128   ar
   153   128   127    1
   154    12     3   am
   155   141   148   am
   156   141   140    1
   157   108   110   ar
   158   152   153    1
   159   124   127    1
   160   124   125    1
   161   185   184   ar
   162   144   143    1
   163     4     3    2
   164     3     2    1
   165   140   143    1
   166   140   139    1
   167   125   126    2
   168   125   134   am
   169   184   186   ar
   170   184   183    1
   171   134   135    1
   172   182   183    1
   173   182   179    1
   174     2     5    1
   175     2     1    1
   176   138   135    1
   177     5     6    1
   178   180   179    1
   179   180   181    2
   180   135   136    1
   181   179   178    1
   182     7     6   ar
   183     7     9   ar
   184     6     8   ar
   185   137   136    2
   186     9    11   ar
   187     8    10   ar
   188    11    10   ar
