@<TRIPOS>MOLECULE
tmp/5dd7B00.pdb
 91 84 0 0 0
SMALL
GASTEIGER

@<TRIPOS>ATOM
      1  N         21.7210   23.9780   19.3290 N.3    42  ALA42      -0.1231
      2  CA        22.8560   23.1480   19.7230 C.3    42  ALA42       0.1694
      3  C         24.0960   24.0270   19.8210 C.2    42  ALA42       0.2592
      4  O         24.2740   24.9390   19.0090 O.2    42  ALA42      -0.2718
      5  CB        23.0930   22.0150   18.7360 C.3    42  ALA42       0.0304
      6  N         24.9280   23.7590   20.8350 N.am   43  ASP43      -0.1974
      7  CA        26.1450   24.5310   21.0920 C.3    43  ASP43       0.1709
      8  C         27.2510   23.5750   21.5180 C.2    43  ASP43       0.2293
      9  O         27.0190   22.6760   22.3320 O.2    43  ASP43      -0.2864
     10  CB        25.9460   25.5990   22.1810 C.3    43  ASP43       0.1436
     11  CG        25.6690   26.9940   21.6090 C.2    43  ASP43       0.3671
     12  OD1       26.2170   27.3280   20.5430 O.co2  43  ASP43      -0.2456
     13  OD2       24.9380   27.7690   22.2640 O.co2  43  ASP43      -0.2456
     14  N         24.5390   26.3890   28.7870 N.3    67  VAL67      -0.1245
     15  CA        24.6420   27.3330   27.6740 C.3    67  VAL67       0.1561
     16  C         23.5690   27.0450   26.6400 C.2    67  VAL67       0.2260
     17  O         23.1350   27.9490   25.9200 O.2    67  VAL67      -0.2867
     18  CB        26.0510   27.3480   27.0430 C.3    67  VAL67       0.0252
     19  CG1       27.1150   27.6340   28.1080 C.3    67  VAL67       0.0019
     20  CG2       26.3490   26.0510   26.2880 C.3    67  VAL67       0.0019
     21  N         19.8830   29.3410   25.2630 N.3    71  ASP71      -0.1239
     22  CA        19.3570   29.6500   23.9340 C.3    71  ASP71       0.1674
     23  C         17.8770   29.3050   23.7990 C.2    71  ASP71       0.2266
     24  O         17.1740   29.9400   23.0010 O.2    71  ASP71      -0.2867
     25  CB        20.1800   28.9400   22.8600 C.3    71  ASP71       0.1410
     26  CG        21.3860   29.7460   22.4350 C.2    71  ASP71       0.3668
     27  OD1       21.2350   30.9730   22.2470 O.co2  71  ASP71      -0.2456
     28  OD2       22.4780   29.1590   22.3080 O.co2  71  ASP71      -0.2456
     29  N         15.1410   37.8800   17.5490 N.3   143  ARG143     -0.1245
     30  CA        16.1180   38.9630   17.5520 C.3   143  ARG143      0.1563
     31  C         15.6690   40.1450   16.7150 C.2   143  ARG143      0.2260
     32  O         16.2420   41.2330   16.8550 O.2   143  ARG143     -0.2867
     33  CB        17.4690   38.4830   17.0380 C.3   143  ARG143      0.0307
     34  CG        18.1110   37.4050   17.9020 C.3   143  ARG143      0.0489
     35  CD        19.4200   36.9640   17.2750 C.3   143  ARG143      0.2205
     36  NE        20.0520   35.9040   18.0710 N.pl3 143  ARG143     -0.0865
     37  CZ        21.2730   35.4390   17.8500 C.cat 143  ARG143      0.5346
     38  NH1       21.9960   35.9360   16.8510 N.pl3 143  ARG143      0.1354
     39  NH2       21.7710   34.4930   18.6360 N.pl3 143  ARG143      0.1354
     40  N         20.5470   35.9130   24.2260 N.3   198  ASP198     -0.1239
     41  CA        21.3420   35.6660   25.4240 C.3   198  ASP198      0.1674
     42  C         22.7870   36.0940   25.1910 C.2   198  ASP198      0.2266
     43  O         23.3140   36.0130   24.0760 O.2   198  ASP198     -0.2867
     44  CB        21.2870   34.2020   25.8760 C.3   198  ASP198      0.1410
     45  CG        21.8440   33.2530   24.8470 C.2   198  ASP198      0.3668
     46  OD1       21.5840   33.4840   23.6640 O.co2 198  ASP198     -0.2456
     47  OD2       22.5440   32.2890   25.2310 O.co2 198  ASP198     -0.2456
     48  N         26.1280   35.5050   25.2450 N.3   200  SER200     -0.1202
     49  CA        27.1830   34.5000   25.2480 C.3   200  SER200      0.2020
     50  C         28.5240   35.0420   24.7740 C.2   200  SER200      0.2618
     51  O         29.5720   34.5770   25.2430 O.2   200  SER200     -0.2717
     52  CB        26.7760   33.3110   24.3680 C.3   200  SER200      0.2103
     53  OG        26.3340   33.7500   23.0890 O.3   200  SER200     -0.2182
     54  N         28.5180   36.0220   23.8690 N.am  201  ASP201     -0.1973
     55  CA        29.7440   36.5340   23.2710 C.3   201  ASP201      0.1709
     56  C         30.1530   37.9090   23.7780 C.2   201  ASP201      0.2293
     57  O         31.3200   38.2830   23.6160 O.2   201  ASP201     -0.2864
     58  CB        29.6090   36.5870   21.7440 C.3   201  ASP201      0.1436
     59  CG        29.4480   35.2090   21.1300 C.2   201  ASP201      0.3671
     60  OD1       30.0720   34.2580   21.6620 O.co2 201  ASP201     -0.2456
     61  OD2       28.7110   35.0910   20.1300 O.co2 201  ASP201     -0.2456
     62  N         26.3090   41.0200   21.1270 N.3   206  ASP206     -0.1239
     63  CA        25.0330   40.3100   21.0980 C.3   206  ASP206      0.1674
     64  C         23.8570   41.2690   20.9390 C.2   206  ASP206      0.2266
     65  O         22.9510   41.0150   20.1340 O.2   206  ASP206     -0.2867
     66  CB        24.9060   39.4460   22.3490 C.3   206  ASP206      0.1410
     67  CG        25.7710   38.1980   22.2590 C.2   206  ASP206      0.3668
     68  OD1       25.8980   37.6750   21.1220 O.co2 206  ASP206     -0.2456
     69  OD2       26.3320   37.7630   23.2950 O.co2 206  ASP206     -0.2456
     70  N         23.4490   41.9850   17.3180 N.3   209  HIS209     -0.1241
     71  CA        22.6640   41.0850   16.4760 C.3   209  HIS209      0.1621
     72  C         21.2000   41.5060   16.4400 C.2   209  HIS209      0.2264
     73  O         20.5440   41.3990   15.3940 O.2   209  HIS209     -0.2867
     74  CB        22.7720   39.6390   16.9650 C.3   209  HIS209      0.0745
     75  CG        24.1490   39.0560   16.8570 C.ar  209  HIS209      0.0817
     76  ND1       24.9070   39.1430   15.7080 N.ar  209  HIS209     -0.2268
     77  CD2       24.9070   38.3860   17.7600 C.ar  209  HIS209      0.1154
     78  CE1       26.0690   38.5430   15.9030 C.ar  209  HIS209      0.1986
     79  NE2       26.0920   38.0680   17.1360 N.ar  209  HIS209     -0.2212
     80  N         25.7030   34.6530   29.8680 N.3   250  TYR250     -0.1241
     81  CA        24.4670   33.8720   29.7630 C.3   250  TYR250      0.1605
     82  C         23.3240   34.5600   30.5130 C.2   250  TYR250      0.2264
     83  O         22.4350   33.9240   31.0810 O.2   250  TYR250     -0.2867
     84  CB        24.7030   32.4030   30.1840 C.3   250  TYR250      0.0534
     85  CG        25.6970   31.8220   29.2050 C.ar  250  TYR250     -0.0201
     86  CD1       25.2990   31.4880   27.9140 C.ar  250  TYR250     -0.0009
     87  CD2       27.0520   31.7090   29.5290 C.ar  250  TYR250     -0.0009
     88  CE1       26.2120   31.0040   26.9760 C.ar  250  TYR250      0.0417
     89  CE2       27.9720   31.2560   28.5990 C.ar  250  TYR250      0.0417
     90  CZ        27.5430   30.8960   27.3270 C.ar  250  TYR250      0.1957
     91  OH        28.4420   30.4280   26.4080 O.3   250  TYR250     -0.2866
@<TRIPOS>BOND
     1    73    72    2
     2    76    78   ar
     3    76    75   ar
     4    78    79   ar
     5    72    71    1
     6    71    74    1
     7    71    70    1
     8    31    32    2
     9    31    30    1
    10    38    37    1
    11    75    74    1
    12    75    77   ar
    13    33    30    1
    14    33    34    1
    15    79    77   ar
    16    35    34    1
    17    35    36    1
    18    29    30    1
    19    37    36    2
    20    37    39    1
    21     5     2    1
    22     4     3    2
    23     1     2    1
    24     2     3    1
    25     3     6   am
    26    61    59   ar
    27    65    64    2
    28    12    11   ar
    29     6     7    1
    30    64    63    1
    31     7     8    1
    32     7    10    1
    33    63    62    1
    34    63    66    1
    35    68    67   ar
    36    59    60   ar
    37    59    58    1
    38     8     9    2
    39    11    10    1
    40    11    13   ar
    41    58    55    1
    42    27    26   ar
    43    67    66    1
    44    67    69   ar
    45    28    26   ar
    46    26    25    1
    47    25    22    1
    48    24    23    2
    49    53    52    1
    50    55    56    1
    51    55    54    1
    52    57    56    2
    53    46    45   ar
    54    23    22    1
    55    54    50   am
    56    22    21    1
    57    43    42    2
    58    40    41    1
    59    52    49    1
    60    50    51    2
    61    50    49    1
    62    45    47   ar
    63    45    44    1
    64    42    41    1
    65    48    49    1
    66    41    44    1
    67    17    16    2
    68    20    18    1
    69    91    90    1
    70    16    15    1
    71    88    90   ar
    72    88    86   ar
    73    18    15    1
    74    18    19    1
    75    90    89   ar
    76    15    14    1
    77    86    85   ar
    78    89    87   ar
    79    85    87   ar
    80    85    84    1
    81    81    80    1
    82    81    84    1
    83    81    82    1
    84    82    83    2
