@<TRIPOS>MOLECULE
tmp/5dd7B02.pdb
 124 118 0 0 0
SMALL
GASTEIGER

@<TRIPOS>ATOM
      1  N         32.3410    1.7020   25.2610 N.3     3  GLU3       -0.1231
      2  CA        31.3350    2.7080   24.9190 C.3     3  GLU3        0.1699
      3  C         29.9690    2.4180   25.5330 C.2     3  GLU3        0.2592
      4  O         29.3670    3.2880   26.1710 O.2     3  GLU3       -0.2718
      5  CB        31.2240    2.7910   23.3980 C.3     3  GLU3        0.0402
      6  CG        30.1600    3.7440   22.8650 C.3     3  GLU3        0.1161
      7  CD        29.9600    3.5780   21.3730 C.2     3  GLU3        0.3649
      8  OE1       30.7570    2.8450   20.7410 O.co2   3  GLU3       -0.2457
      9  OE2       29.0140    4.1780   20.8280 O.co2   3  GLU3       -0.2457
     10  N         29.4350    1.2160   25.3140 N.am    4  PHE4       -0.1976
     11  CA        28.0540    0.9800   25.7200 C.3     4  PHE4        0.1639
     12  C         27.9260    0.8910   27.2350 C.2     4  PHE4        0.2290
     13  O         26.9360    1.3720   27.8000 O.2     4  PHE4       -0.2864
     14  CB        27.5160   -0.2690   25.0280 C.3     4  PHE4        0.0560
     15  CG        27.4920   -0.1400   23.5240 C.ar    4  PHE4       -0.0200
     16  CD1       26.8650    0.9440   22.9320 C.ar    4  PHE4       -0.0042
     17  CD2       28.1300   -1.0660   22.7160 C.ar    4  PHE4       -0.0042
     18  CE1       26.8500    1.0980   21.5500 C.ar    4  PHE4       -0.0003
     19  CE2       28.1230   -0.9320   21.3370 C.ar    4  PHE4       -0.0003
     20  CZ        27.4830    0.1570   20.7510 C.ar    4  PHE4       -0.0000
     21  N         27.8320    4.5210   28.5470 N.3     7  ILE7       -0.1245
     22  CA        26.4990    5.1050   28.4420 C.3     7  ILE7        0.1561
     23  C         25.6180    4.6220   29.5880 C.2     7  ILE7        0.2260
     24  O         24.9370    5.4160   30.2460 O.2     7  ILE7       -0.2867
     25  CB        25.8780    4.7720   27.0750 C.3     7  ILE7        0.0252
     26  CG1       26.7200    5.3860   25.9460 C.3     7  ILE7        0.0019
     27  CG2       24.4330    5.2630   27.0040 C.3     7  ILE7        0.0019
     28  CD1       26.4140    4.8010   24.5700 C.3     7  ILE7        0.0001
     29  N         25.1830    7.8520   31.6950 N.3    11  PHE11      -0.1241
     30  CA        24.2760    8.6940   30.9180 C.3    11  PHE11       0.1605
     31  C         22.9390    8.0120   30.6640 C.2    11  PHE11       0.2264
     32  O         22.3330    8.2210   29.6150 O.2    11  PHE11      -0.2867
     33  CB        24.9140    9.1060   29.5900 C.3    11  PHE11       0.0534
     34  CG        26.2560    9.7350   29.7480 C.ar   11  PHE11      -0.0203
     35  CD1       26.3890   10.9260   30.4330 C.ar   11  PHE11      -0.0042
     36  CD2       27.3890    9.1290   29.2280 C.ar   11  PHE11      -0.0042
     37  CE1       27.6300   11.5160   30.5970 C.ar   11  PHE11      -0.0003
     38  CE2       28.6400    9.7110   29.3900 C.ar   11  PHE11      -0.0003
     39  CZ        28.7570   10.9160   30.0750 C.ar   11  PHE11      -0.0000
     40  N         13.0050    7.3320   25.5090 N.3    22  GLY22      -0.1210
     41  CA        14.3030    7.8310   25.9040 C.3    22  GLY22       0.1956
     42  C         15.4360    6.9570   25.4000 C.2    22  GLY22       0.2612
     43  O         15.3000    6.2100   24.4250 O.2    22  GLY22      -0.2717
     44  N         16.5620    7.0350   26.1110 N.am   23  ILE23      -0.1965
     45  CA        17.7980    6.3770   25.6950 C.3    23  ILE23       0.1727
     46  C         17.6000    4.8840   25.4750 C.2    23  ILE23       0.2617
     47  O         16.9410    4.1900   26.2670 O.2    23  ILE23      -0.2715
     48  CB        18.8780    6.6540   26.7550 C.3    23  ILE23       0.0290
     49  CG1       19.3080    8.1170   26.6540 C.3    23  ILE23       0.0022
     50  CG2       20.0820    5.7500   26.5720 C.3    23  ILE23       0.0023
     51  CD1       19.9120    8.6220   27.8860 C.3    23  ILE23       0.0001
     52  N         18.1710    4.3800   24.3790 N.am   24  GLY24      -0.1940
     53  CA        18.1820    2.9510   24.1200 C.3    24  GLY24       0.2014
     54  C         17.9150    2.5460   22.6850 C.2    24  GLY24       0.2639
     55  O         18.1400    1.3910   22.3020 O.2    24  GLY24      -0.2714
     56  N         17.4320    3.4780   21.8790 N.am   25  ASP25      -0.1957
     57  CA        17.0700    3.1830   20.5020 C.3    25  ASP25       0.1840
     58  C         17.8430    4.1140   19.5690 C.2    25  ASP25       0.2622
     59  O         18.6740    4.9170   20.0050 O.2    25  ASP25      -0.2715
     60  CB        15.5560    3.3210   20.3060 C.3    25  ASP25       0.1450
     61  CG        14.9870    2.2230   19.4550 C.2    25  ASP25       0.3671
     62  OD1       15.3230    2.1800   18.2570 O.co2  25  ASP25      -0.2456
     63  OD2       14.2250    1.3780   19.9710 O.co2  25  ASP25      -0.2456
     64  N         17.5810    3.9960   18.2620 N.am   26  ASP26      -0.1957
     65  CA        18.3630    4.7720   17.2980 C.3    26  ASP26       0.1840
     66  C         18.0850    6.2600   17.3950 C.2    26  ASP26       0.2622
     67  O         18.9960    7.0780   17.2010 O.2    26  ASP26      -0.2715
     68  CB        18.0970    4.2470   15.8930 C.3    26  ASP26       0.1450
     69  CG        18.5470    2.8240   15.7520 C.2    26  ASP26       0.3671
     70  OD1       19.7570    2.5860   15.5020 O.co2  26  ASP26      -0.2456
     71  OD2       17.7040    1.9230   15.9450 O.co2  26  ASP26      -0.2456
     72  N         16.8480    6.6270   17.7070 N.am   27  SER27      -0.1950
     73  CA        16.4730    7.9990   18.0110 C.3    27  SER27       0.1924
     74  C         15.6060    8.0050   19.2590 C.2    27  SER27       0.2314
     75  O         15.0960    6.9700   19.7000 O.2    27  SER27      -0.2863
     76  CB        15.6850    8.6520   16.8650 C.3    27  SER27       0.2116
     77  OG        16.4000    8.6200   15.6500 O.3    27  SER27      -0.2180
     78  N         23.0840   14.6120   24.2740 N.3    84  LEU84      -0.1245
     79  CA        24.4700   14.8200   24.6920 C.3    84  LEU84       0.1561
     80  C         25.4030   14.0670   23.7480 C.2    84  LEU84       0.2260
     81  O         25.4160   12.8340   23.7440 O.2    84  LEU84      -0.2867
     82  CB        24.6690   14.3440   26.1340 C.3    84  LEU84       0.0270
     83  CG        26.1240   14.2190   26.5780 C.3    84  LEU84       0.0019
     84  CD1       26.7870   15.6060   26.5760 C.3    84  LEU84       0.0001
     85  CD2       26.1710   13.5990   27.9640 C.3    84  LEU84       0.0001
     86  N         29.2930   13.4900   23.2300 N.3    86  ILE86      -0.1245
     87  CA        30.5630   13.7380   23.8940 C.3    86  ILE86       0.1561
     88  C         31.6440   12.9440   23.1880 C.2    86  ILE86       0.2260
     89  O         31.4520   11.7630   22.8750 O.2    86  ILE86      -0.2867
     90  CB        30.5080   13.4000   25.3960 C.3    86  ILE86       0.0252
     91  CG1       31.8820   13.6190   26.0220 C.3    86  ILE86       0.0019
     92  CG2       29.9840   11.9870   25.6480 C.3    86  ILE86       0.0019
     93  CD1       31.8120   14.0600   27.4490 C.3    86  ILE86       0.0001
     94  N         17.4130   14.0840   29.8930 N.3   114  LEU114     -0.1245
     95  CA        18.4520   13.6650   28.9540 C.3   114  LEU114      0.1561
     96  C         17.9340   12.4360   28.2140 C.2   114  LEU114      0.2260
     97  O         17.7800   11.3730   28.8170 O.2   114  LEU114     -0.2867
     98  CB        19.7600   13.3660   29.6880 C.3   114  LEU114      0.0270
     99  CG        20.8550   12.7430   28.8030 C.3   114  LEU114      0.0019
    100  CD1       21.2160   13.6500   27.6260 C.3   114  LEU114      0.0001
    101  CD2       22.0960   12.4310   29.6010 C.3   114  LEU114      0.0001
    102  N         18.9410   11.2630   24.8620 N.3   116  GLY116     -0.1210
    103  CA        19.7350   10.6220   23.8270 C.3   116  GLY116      0.1956
    104  C         21.0740   11.3120   23.6760 C.2   116  GLY116      0.2612
    105  O         21.4080   12.2380   24.4200 O.2   116  GLY116     -0.2717
    106  N         21.8380   10.8500   22.6960 N.am  117  GLY117     -0.1942
    107  CA        23.1460   11.4180   22.4650 C.3   117  GLY117      0.2014
    108  C         24.0250   10.4640   21.6780 C.2   117  GLY117      0.2639
    109  O         23.5400    9.5560   21.0080 O.2   117  GLY117     -0.2714
    110  N         25.3280   10.7160   21.7760 N.am  118  ASP118     -0.1957
    111  CA        26.3280    9.9220   21.0820 C.3   118  ASP118      0.1840
    112  C         27.6130    9.9790   21.8790 C.2   118  ASP118      0.2622
    113  O         27.9420   11.0200   22.4530 O.2   118  ASP118     -0.2715
    114  CB        26.5810   10.4390   19.6610 C.3   118  ASP118      0.1450
    115  CG        27.3760    9.4450   18.8200 C.2   118  ASP118      0.3671
    116  OD1       27.0810    8.2170   18.8440 O.co2 118  ASP118     -0.2456
    117  OD2       28.2870    9.8940   18.1020 O.co2 118  ASP118     -0.2456
    118  N         28.3370    8.8670   21.8980 N.am  119  THR119     -0.1951
    119  CA        29.5870    8.7740   22.6360 C.3   119  THR119      0.1897
    120  C         30.6590    8.3090   21.6700 C.2   119  THR119      0.2313
    121  O         30.4790    7.2890   20.9950 O.2   119  THR119     -0.2863
    122  CB        29.4430    7.7970   23.8090 C.3   119  THR119      0.1794
    123  OG1       28.3410    8.2220   24.6260 O.3   119  THR119     -0.2208
    124  CG2       30.7330    7.7400   24.6360 C.3   119  THR119      0.0378
@<TRIPOS>BOND
     1    70    69   ar
     2    77    76    1
     3    69    68    1
     4    69    71   ar
     5    68    65    1
     6    76    73    1
     7    67    66    2
     8    65    66    1
     9    65    64    1
    10    66    72   am
    11    72    73    1
    12    73    74    1
    13   117   115   ar
    14    62    61   ar
    15    64    58   am
    16   115   116   ar
    17   115   114    1
    18    74    75    2
    19    61    63   ar
    20    61    60    1
    21    58    59    2
    22    58    57    1
    23   114   111    1
    24    60    57    1
    25    57    56    1
    26     8     7   ar
    27    20    19   ar
    28    20    18   ar
    29     9     7   ar
    30   121   120    2
    31   109   108    2
    32   111   110    1
    33   111   112    1
    34    19    17   ar
    35     7     6    1
    36    18    16   ar
    37   120   119    1
    38   108   110   am
    39   108   107    1
    40   112   118   am
    41   112   113    2
    42    56    54   am
    43   118   119    1
    44    55    54    2
    45   107   106    1
    46   119   122    1
    47    54    53    1
    48   106   104   am
    49    17    15   ar
    50     6     5    1
    51    89    88    2
    52    16    15   ar
    53    88    87    1
    54    86    87    1
    55     5     2    1
    56    15    14    1
    57   104   103    1
    58   104   105    2
    59    81    80    2
    60    80    79    1
    61   122   123    1
    62   122   124    1
    63   103   102    1
    64    87    90    1
    65    53    52    1
    66    78    79    1
    67    52    46   am
    68    43    42    2
    69    28    26    1
    70    79    82    1
    71     2     1    1
    72     2     3    1
    73    14    11    1
    74    10     3   am
    75    10    11    1
    76    90    92    1
    77    90    91    1
    78    42    41    1
    79    42    44   am
    80    46    45    1
    81    46    47    2
    82    40    41    1
    83     3     4    2
    84    45    44    1
    85    45    48    1
    86    11    12    1
    87    26    25    1
    88    91    93    1
    89    82    83    1
    90    50    48    1
    91    84    83    1
    92    83    85    1
    93    49    48    1
    94    49    51    1
    95    27    25    1
    96    25    22    1
    97    12    13    2
    98   100    99    1
    99    96    97    2
   100    96    95    1
   101    22    21    1
   102    22    23    1
   103    99   101    1
   104    99    98    1
   105    95    98    1
   106    95    94    1
   107    36    38   ar
   108    36    34   ar
   109    38    39   ar
   110    23    24    2
   111    33    34    1
   112    33    30    1
   113    32    31    2
   114    34    35   ar
   115    39    37   ar
   116    35    37   ar
   117    31    30    1
   118    30    29    1
