@<TRIPOS>MOLECULE
tmp/5dd7B01.pdb
 138 135 0 0 0
SMALL
GASTEIGER

@<TRIPOS>ATOM
      1  N         24.9280   23.7590   20.8350 N.3    43  ASP43      -0.1225
      2  CA        26.1450   24.5310   21.0920 C.3    43  ASP43       0.1805
      3  C         27.2510   23.5750   21.5180 C.2    43  ASP43       0.2598
      4  O         27.0190   22.6760   22.3320 O.2    43  ASP43      -0.2718
      5  CB        25.9460   25.5990   22.1810 C.3    43  ASP43       0.1424
      6  CG        25.6690   26.9940   21.6090 C.2    43  ASP43       0.3668
      7  OD1       26.2170   27.3280   20.5430 O.co2  43  ASP43      -0.2456
      8  OD2       24.9380   27.7690   22.2640 O.co2  43  ASP43      -0.2456
      9  N         28.4480   23.7920   20.9730 N.am   44  THR44      -0.1953
     10  CA        29.6210   22.9550   21.2010 C.3    44  THR44       0.1897
     11  C         30.5510   23.6200   22.2000 C.2    44  THR44       0.2313
     12  O         30.7380   24.8370   22.1570 O.2    44  THR44      -0.2863
     13  CB        30.3910   22.7390   19.8950 C.3    44  THR44       0.1794
     14  OG1       29.5600   22.0660   18.9490 O.3    44  THR44      -0.2208
     15  CG2       31.6530   21.9120   20.1320 C.3    44  THR44       0.0378
     16  N         39.6710   23.7620   26.6600 N.3    48  GLY48      -0.1210
     17  CA        40.7340   24.7210   26.4620 C.3    48  GLY48       0.1956
     18  C         40.3270   25.9640   25.7000 C.2    48  GLY48       0.2612
     19  O         41.0480   26.9690   25.7530 O.2    48  GLY48      -0.2717
     20  N         39.2050   25.9190   24.9820 N.am   49  ARG49      -0.1965
     21  CA        38.6680   27.0880   24.2950 C.3    49  ARG49       0.1729
     22  C         37.4050   27.6190   24.9550 C.2    49  ARG49       0.2616
     23  O         37.2930   28.8240   25.1920 O.2    49  ARG49      -0.2715
     24  CB        38.3920   26.7700   22.8140 C.3    49  ARG49       0.0348
     25  CG        37.8810   27.9900   22.0460 C.3    49  ARG49       0.0492
     26  CD        38.1860   27.9470   20.5570 C.3    49  ARG49       0.2205
     27  NE        39.5850   27.6490   20.2630 N.pl3  49  ARG49      -0.0865
     28  CZ        40.5180   28.5670   20.0270 C.cat  49  ARG49       0.5346
     29  NH1       40.2110   29.8570   20.0520 N.pl3  49  ARG49       0.1354
     30  NH2       41.7620   28.1920   19.7650 N.pl3  49  ARG49       0.1354
     31  N         36.4530   26.7460   25.2830 N.am   50  HIS50      -0.1959
     32  CA        35.2540   27.1730   25.9910 C.3    50  HIS50       0.1787
     33  C         35.3620   27.0390   27.4990 C.2    50  HIS50       0.2620
     34  O         34.4880   27.5400   28.2160 O.2    50  HIS50      -0.2715
     35  CB        34.0410   26.3820   25.5060 C.3    50  HIS50       0.0785
     36  CG        33.7070   26.6440   24.0790 C.ar   50  HIS50       0.0821
     37  ND1       34.3730   26.0350   23.0390 N.ar   50  HIS50      -0.2267
     38  CD2       32.7930   27.4680   23.5150 C.ar   50  HIS50       0.1154
     39  CE1       33.8730   26.4600   21.8940 C.ar   50  HIS50       0.1986
     40  NE2       32.9170   27.3350   22.1560 N.ar   50  HIS50      -0.2212
     41  N         36.3820   26.3630   28.0000 N.am   51  PHE51      -0.1960
     42  CA        36.6200   26.3460   29.4330 C.3    51  PHE51       0.1756
     43  C         38.0950   26.0850   29.6510 C.2    51  PHE51       0.2461
     44  O         38.7430   25.4710   28.7930 O.2    51  PHE51      -0.2730
     45  CB        35.7620   25.2880   30.1560 C.3    51  PHE51       0.0574
     46  CG        35.7390   23.9270   29.4910 C.ar   51  PHE51      -0.0200
     47  CD1       34.7710   23.6080   28.5360 C.ar   51  PHE51      -0.0042
     48  CD2       36.6470   22.9450   29.8670 C.ar   51  PHE51      -0.0042
     49  CE1       34.7420   22.3420   27.9450 C.ar   51  PHE51      -0.0003
     50  CE2       36.6200   21.6840   29.2870 C.ar   51  PHE51      -0.0003
     51  CZ        35.6670   21.3780   28.3300 C.ar   51  PHE51      -0.0000
     52  N         38.6630   26.5610   30.7610 N.am   52  PRO52      -0.2727
     53  CA        40.0520   26.2110   31.0830 C.3    52  PRO52       0.1402
     54  C         40.2350   24.7000   31.1350 C.2    52  PRO52       0.2269
     55  O         39.3400   23.9650   31.5470 O.2    52  PRO52      -0.2865
     56  CB        40.2680   26.8430   32.4600 C.3    52  PRO52       0.0296
     57  CG        39.3240   27.9960   32.4880 C.3    52  PRO52       0.0237
     58  CD        38.1190   27.5900   31.6660 C.3    52  PRO52       0.0939
     59  N         37.6150   34.6470   34.4320 N.3   165  LEU165     -0.1245
     60  CA        38.5990   33.9670   33.5930 C.3   165  LEU165      0.1561
     61  C         39.9820   34.5810   33.7470 C.2   165  LEU165      0.2260
     62  O         40.9950   33.8680   33.7170 O.2   165  LEU165     -0.2867
     63  CB        38.1640   34.0170   32.1310 C.3   165  LEU165      0.0270
     64  CG        39.1080   33.3700   31.1170 C.3   165  LEU165      0.0019
     65  CD1       39.1360   31.8620   31.3400 C.3   165  LEU165      0.0001
     66  CD2       38.6470   33.6880   29.7030 C.3   165  LEU165      0.0001
     67  N         32.0420   32.0690   35.6790 N.3   176  LEU176     -0.1245
     68  CA        32.5960   31.4300   34.4950 C.3   176  LEU176      0.1561
     69  C         32.2260   29.9500   34.4570 C.2   176  LEU176      0.2260
     70  O         31.7590   29.4410   33.4300 O.2   176  LEU176     -0.2867
     71  CB        34.1130   31.6020   34.4790 C.3   176  LEU176      0.0270
     72  CG        34.8550   30.8640   33.3560 C.3   176  LEU176      0.0019
     73  CD1       34.6060   31.5710   32.0320 C.3   176  LEU176      0.0001
     74  CD2       36.3370   30.7870   33.6740 C.3   176  LEU176      0.0001
     75  N         26.1280   35.5050   25.2450 N.3   200  SER200     -0.1202
     76  CA        27.1830   34.5000   25.2480 C.3   200  SER200      0.2020
     77  C         28.5240   35.0420   24.7740 C.2   200  SER200      0.2618
     78  O         29.5720   34.5770   25.2430 O.2   200  SER200     -0.2717
     79  CB        26.7760   33.3110   24.3680 C.3   200  SER200      0.2103
     80  OG        26.3340   33.7500   23.0890 O.3   200  SER200     -0.2182
     81  N         28.5180   36.0220   23.8690 N.am  201  ASP201     -0.1973
     82  CA        29.7440   36.5340   23.2710 C.3   201  ASP201      0.1709
     83  C         30.1530   37.9090   23.7780 C.2   201  ASP201      0.2293
     84  O         31.3200   38.2830   23.6160 O.2   201  ASP201     -0.2864
     85  CB        29.6090   36.5870   21.7440 C.3   201  ASP201      0.1436
     86  CG        29.4480   35.2090   21.1300 C.2   201  ASP201      0.3671
     87  OD1       30.0720   34.2580   21.6620 O.co2 201  ASP201     -0.2456
     88  OD2       28.7110   35.0910   20.1300 O.co2 201  ASP201     -0.2456
     89  N         33.0640   41.0730   27.4780 N.3   246  GLY246     -0.1210
     90  CA        33.5680   39.9130   28.1900 C.3   246  GLY246      0.1956
     91  C         32.9870   38.6020   27.6910 C.2   246  GLY246      0.2612
     92  O         33.7150   37.6310   27.4740 O.2   246  GLY246     -0.2717
     93  N         31.6710   38.5440   27.5300 N.am  247  GLY247     -0.1942
     94  CA        31.0250   37.2980   27.1590 C.3   247  GLY247      0.2014
     95  C         30.9550   36.3210   28.3210 C.2   247  GLY247      0.2638
     96  O         31.3930   36.5890   29.4400 O.2   247  GLY247     -0.2714
     97  N         30.3980   35.1430   28.0240 N.am  248  ASP248     -0.1971
     98  CA        30.2040   34.0750   29.0040 C.3   248  ASP248      0.1709
     99  C         29.2010   34.4490   30.0880 C.2   248  ASP248      0.2293
    100  O         29.1560   33.7980   31.1350 O.2   248  ASP248     -0.2864
    101  CB        31.5230   33.6710   29.6720 C.3   248  ASP248      0.1436
    102  CG        32.2600   32.5930   28.9220 C.2   248  ASP248      0.3671
    103  OD1       31.6120   31.6130   28.4710 O.co2 248  ASP248     -0.2456
    104  OD2       33.5020   32.7210   28.8130 O.co2 248  ASP248     -0.2456
    105  N         25.7030   34.6530   29.8680 N.3   250  TYR250     -0.1241
    106  CA        24.4670   33.8720   29.7630 C.3   250  TYR250      0.1605
    107  C         23.3240   34.5600   30.5130 C.2   250  TYR250      0.2264
    108  O         22.4350   33.9240   31.0810 O.2   250  TYR250     -0.2867
    109  CB        24.7030   32.4030   30.1840 C.3   250  TYR250      0.0534
    110  CG        25.6970   31.8220   29.2050 C.ar  250  TYR250     -0.0201
    111  CD1       25.2990   31.4880   27.9140 C.ar  250  TYR250     -0.0009
    112  CD2       27.0520   31.7090   29.5290 C.ar  250  TYR250     -0.0009
    113  CE1       26.2120   31.0040   26.9760 C.ar  250  TYR250      0.0417
    114  CE2       27.9720   31.2560   28.5990 C.ar  250  TYR250      0.0417
    115  CZ        27.5430   30.8960   27.3270 C.ar  250  TYR250      0.1957
    116  OH        28.4420   30.4280   26.4080 O.3   250  TYR250     -0.2866
    117  N         33.2170   38.1660   21.5080 N.3   301  TYR301     -0.1241
    118  CA        33.8810   36.9280   21.1320 C.3   301  TYR301      0.1605
    119  C         33.3800   36.4360   19.7770 C.2   301  TYR301      0.2264
    120  O         32.1690   36.3460   19.5430 O.2   301  TYR301     -0.2867
    121  CB        33.6550   35.8620   22.2020 C.3   301  TYR301      0.0534
    122  CG        34.5750   34.6700   22.0430 C.ar  301  TYR301     -0.0201
    123  CD1       34.2760   33.6530   21.1470 C.ar  301  TYR301     -0.0009
    124  CD2       35.7560   34.5750   22.7790 C.ar  301  TYR301     -0.0009
    125  CE1       35.1150   32.5710   20.9910 C.ar  301  TYR301      0.0417
    126  CE2       36.5990   33.4890   22.6330 C.ar  301  TYR301      0.0417
    127  CZ        36.2710   32.4890   21.7360 C.ar  301  TYR301      0.1957
    128  OH        37.1070   31.4050   21.5790 O.3   301  TYR301     -0.2866
    129  N         34.7380   33.3590   16.8510 N.3   303  HIS303     -0.1241
    130  CA        35.7540   32.4060   16.4220 C.3   303  HIS303      0.1621
    131  C         36.4240   32.8700   15.1340 C.2   303  HIS303      0.2264
    132  O         35.7820   33.4440   14.2490 O.2   303  HIS303     -0.2867
    133  CB        35.1360   31.0240   16.2290 C.3   303  HIS303      0.0745
    134  CG        34.6830   30.4060   17.5080 C.ar  303  HIS303      0.0817
    135  ND1       35.5460   29.7510   18.3590 N.ar  303  HIS303     -0.2268
    136  CD2       33.4690   30.3780   18.1060 C.ar  303  HIS303      0.1154
    137  CE1       34.8810   29.3340   19.4220 C.ar  303  HIS303      0.1986
    138  NE2       33.6180   29.7010   19.2930 N.ar  303  HIS303     -0.2212
@<TRIPOS>BOND
     1   132   131    2
     2   131   130    1
     3   133   130    1
     4   133   134    1
     5   130   129    1
     6   134   136   ar
     7   134   135   ar
     8   136   138   ar
     9   135   137   ar
    10    14    13    1
    11   138   137   ar
    12   120   119    2
    13    30    28    1
    14   119   118    1
    15    13    15    1
    16    13    10    1
    17    28    29    1
    18    28    27    2
    19    88    86   ar
    20    27    26    1
    21     7     6   ar
    22    26    25    1
    23     1     2    1
    24     9    10    1
    25     9     3   am
    26   125   123   ar
    27   125   127   ar
    28     2     3    1
    29     2     5    1
    30    86    87   ar
    31    86    85    1
    32   118   117    1
    33   118   121    1
    34   123   122   ar
    35    10    11    1
    36     3     4    2
    37   128   127    1
    38     6     5    1
    39     6     8   ar
    40   127   126   ar
    41    85    82    1
    42    39    40   ar
    43    39    37   ar
    44   122   121    1
    45   122   124   ar
    46    25    24    1
    47    40    38   ar
    48    12    11    2
    49   126   124   ar
    50    24    21    1
    51    37    36   ar
    52    80    79    1
    53    82    83    1
    54    82    81    1
    55    38    36   ar
    56    84    83    2
    57    81    77   am
    58    36    35    1
    59    21    22    1
    60    21    20    1
    61    79    76    1
    62    77    78    2
    63    77    76    1
    64    22    23    2
    65    22    31   am
    66    20    18   am
    67    75    76    1
    68    31    32    1
    69    35    32    1
    70    18    19    2
    71    18    17    1
    72    32    33    1
    73   116   115    1
    74    17    16    1
    75   113   115   ar
    76   113   111   ar
    77    94    93    1
    78    94    95    1
    79   115   114   ar
    80    92    91    2
    81    89    90    1
    82    33    41   am
    83    33    34    2
    84    93    91   am
    85    91    90    1
    86   111   110   ar
    87    49    51   ar
    88    49    47   ar
    89    41    42    1
    90    97    95   am
    91    97    98    1
    92    95    96    2
    93    51    50   ar
    94   103   102   ar
    95    47    46   ar
    96   114   112   ar
    97    44    43    2
    98   104   102   ar
    99   102   101    1
   100    98   101    1
   101    98    99    1
   102   110   112   ar
   103   110   109    1
   104    50    48   ar
   105    42    43    1
   106    42    45    1
   107    46    48   ar
   108    46    45    1
   109    43    52   am
   110    66    64    1
   111   106   105    1
   112   106   109    1
   113   106   107    1
   114    99   100    2
   115   107   108    2
   116    52    53    1
   117    52    58    1
   118    53    54    1
   119    53    56    1
   120    64    65    1
   121    64    63    1
   122    54    55    2
   123    58    57    1
   124    73    72    1
   125    63    60    1
   126    56    57    1
   127    72    74    1
   128    72    71    1
   129    70    69    2
   130    60    61    1
   131    60    59    1
   132    62    61    2
   133    69    68    1
   134    71    68    1
   135    68    67    1
