@<TRIPOS>MOLECULE
tmp/5dd9A00.pdb
 152 146 0 0 0
SMALL
GASTEIGER

@<TRIPOS>ATOM
      1  N        -23.5040    7.4570   -6.0960 N.3   133  SER133     -0.1202
      2  CA       -24.0090    6.9540   -7.3820 C.3   133  SER133      0.2020
      3  C        -23.1190    5.8830   -8.0250 C.2   133  SER133      0.2619
      4  O        -23.6150    4.8010   -8.3720 O.2   133  SER133     -0.2717
      5  CB       -24.2880    8.1110   -8.3590 C.3   133  SER133      0.2103
      6  OG       -23.1260    8.8750   -8.5900 O.3   133  SER133     -0.2182
      7  N        -21.8100    6.1660   -8.1820 N.am  134  SER134     -0.1951
      8  CA       -20.9750    5.1430   -8.8270 C.3   134  SER134      0.1924
      9  C        -20.7420    3.9940   -7.8650 C.2   134  SER134      0.2314
     10  O        -20.4470    2.8700   -8.3140 O.2   134  SER134     -0.2863
     11  CB       -19.6520    5.7270   -9.3800 C.3   134  SER134      0.2116
     12  OG       -18.9490    6.4130   -8.3900 O.3   134  SER134     -0.2180
     13  N        -17.4890    2.7440  -17.4100 N.3   156  LEU156     -0.1231
     14  CA       -17.2230    4.0670  -16.8160 C.3   156  LEU156      0.1693
     15  C        -17.0630    5.0950  -17.9200 C.2   156  LEU156      0.2593
     16  O        -16.2900    4.9160  -18.8570 O.2   156  LEU156     -0.2718
     17  CB       -15.8820    4.0160  -16.0540 C.3   156  LEU156      0.0284
     18  CG       -15.8720    3.0420  -14.8440 C.3   156  LEU156      0.0019
     19  CD1      -14.4330    2.9520  -14.3050 C.3   156  LEU156      0.0001
     20  CD2      -16.9410    3.4350  -13.7960 C.3   156  LEU156      0.0001
     21  N        -17.7710    6.1940  -17.7720 N.am  157  SER157     -0.1938
     22  CA       -17.4210    7.4000  -18.5170 C.3   157  SER157      0.2055
     23  C        -16.6870    8.3640  -17.5520 C.2   157  SER157      0.2643
     24  O        -16.3200    8.0050  -16.4330 O.2   157  SER157     -0.2714
     25  CB       -18.6560    8.0730  -19.1500 C.3   157  SER157      0.2130
     26  OG       -19.4820    8.6760  -18.1780 O.3   157  SER157     -0.2179
     27  N        -16.5270    9.6250  -17.9800 N.am  158  GLU158     -0.1963
     28  CA       -15.8600   10.5850  -17.1270 C.3   158  GLU158      0.1733
     29  C        -16.7760   11.1260  -16.0330 C.2   158  GLU158      0.2616
     30  O        -16.2980   11.6790  -15.0650 O.2   158  GLU158     -0.2715
     31  CB       -15.2230   11.7250  -17.9430 C.3   158  GLU158      0.0429
     32  CG       -14.0240   11.1790  -18.7120 C.3   158  GLU158      0.1163
     33  CD       -13.2860   12.2130  -19.5390 C.2   158  GLU158      0.3649
     34  OE1      -13.9390   13.0260  -20.2240 O.co2 158  GLU158     -0.2457
     35  OE2      -12.0290   12.1440  -19.5100 O.co2 158  GLU158     -0.2457
     36  N        -18.1040   10.8920  -16.1460 N.am  159  ASP159     -0.1957
     37  CA       -19.0370   11.3840  -15.1230 C.3   159  ASP159      0.1840
     38  C        -20.1260   10.4070  -14.7700 C.2   159  ASP159      0.2622
     39  O        -21.0740   10.7970  -14.0750 O.2   159  ASP159     -0.2715
     40  CB       -19.6810   12.7270  -15.5910 C.3   159  ASP159      0.1450
     41  CG       -20.3060   13.5470  -14.4480 C.2   159  ASP159      0.3671
     42  OD1      -19.6640   13.7210  -13.3960 O.co2 159  ASP159     -0.2456
     43  OD2      -21.4880   13.9950  -14.6370 O.co2 159  ASP159     -0.2456
     44  N        -19.9840    9.1450  -15.1600 N.am  160  HIS160     -0.1959
     45  CA       -21.1120    8.2160  -14.8850 C.3   160  HIS160      0.1787
     46  C        -20.6010    6.7730  -14.9310 C.2   160  HIS160      0.2620
     47  O        -19.5140    6.5290  -15.3860 O.2   160  HIS160     -0.2715
     48  CB       -22.2390    8.4580  -15.9110 C.3   160  HIS160      0.0785
     49  CG       -23.5070    7.6700  -15.6610 C.ar  160  HIS160      0.0821
     50  ND1      -24.0280    7.4630  -14.4030 N.ar  160  HIS160     -0.2267
     51  CD2      -24.3640    7.0720  -16.5370 C.ar  160  HIS160      0.1154
     52  CE1      -25.1600    6.7680  -14.5080 C.ar  160  HIS160      0.1986
     53  NE2      -25.3850    6.5150  -15.7970 N.ar  160  HIS160     -0.2212
     54  N        -21.4070    5.8520  -14.4550 N.am  161  ALA161     -0.1977
     55  CA       -21.0690    4.4530  -14.4120 C.3   161  ALA161      0.1597
     56  C        -22.2880    3.5930  -14.6750 C.2   161  ALA161      0.2287
     57  O        -23.3320    3.9270  -14.2840 O.2   161  ALA161     -0.2864
     58  CB       -20.5620    4.0660  -13.0450 C.3   161  ALA161      0.0319
     59  N        -10.4980    0.8730  -10.1490 N.3   217  PHE217     -0.1241
     60  CA       -11.5690    1.8380   -9.8570 C.3   217  PHE217      0.1605
     61  C        -11.7490    2.0080   -8.3450 C.2   217  PHE217      0.2264
     62  O        -11.8390    3.1350   -7.8590 O.2   217  PHE217     -0.2867
     63  CB       -12.9220    1.4330  -10.5020 C.3   217  PHE217      0.0534
     64  CG       -14.0810    2.2490  -10.0300 C.ar  217  PHE217     -0.0203
     65  CD1      -14.3690    3.4710  -10.6440 C.ar  217  PHE217     -0.0042
     66  CD2      -14.8770    1.8120   -8.9860 C.ar  217  PHE217     -0.0042
     67  CE1      -15.4490    4.2430  -10.2000 C.ar  217  PHE217     -0.0003
     68  CE2      -15.9720    2.5750   -8.5370 C.ar  217  PHE217     -0.0003
     69  CZ       -16.2610    3.7920   -9.1460 C.ar  217  PHE217     -0.0000
     70  N         -8.9180    4.1180   -7.0420 N.3   220  CYS220     -0.1235
     71  CA        -9.1720    5.5560   -7.3490 C.3   220  CYS220      0.1677
     72  C        -10.2330    6.1430   -6.4200 C.2   220  CYS220      0.2270
     73  O        -10.2050    7.3450   -6.0860 O.2   220  CYS220     -0.2867
     74  CB        -9.5810    5.7610   -8.8230 C.3   220  CYS220      0.0956
     75  SG        -8.2390    5.4170   -9.9740 S.3   220  CYS220     -0.0801
     76  N         -6.5260    3.1680  -18.5190 N.3   255  TYR255     -0.1241
     77  CA        -7.2600    3.9010  -17.4810 C.3   255  TYR255      0.1605
     78  C         -6.6540    5.3090  -17.3150 C.2   255  TYR255      0.2264
     79  O         -6.0120    5.5750  -16.3050 O.2   255  TYR255     -0.2867
     80  CB        -7.1940    3.1130  -16.1460 C.3   255  TYR255      0.0534
     81  CG        -8.3130    3.4050  -15.1600 C.ar  255  TYR255     -0.0201
     82  CD1       -8.9850    4.6440  -15.1720 C.ar  255  TYR255     -0.0009
     83  CD2       -8.7500    2.4090  -14.2690 C.ar  255  TYR255     -0.0009
     84  CE1      -10.0110    4.9110  -14.2630 C.ar  255  TYR255      0.0417
     85  CE2       -9.7690    2.6640  -13.3610 C.ar  255  TYR255      0.0417
     86  CZ       -10.4040    3.9100  -13.3750 C.ar  255  TYR255      0.1957
     87  OH       -11.4160    4.1340  -12.4540 O.3   255  TYR255     -0.2866
     88  N         -7.8760    8.2010  -16.3090 N.3   257  MET257     -0.1245
     89  CA        -8.1020    8.9440  -15.0430 C.3   257  MET257      0.1570
     90  C         -7.2560    8.4500  -13.8680 C.2   257  MET257      0.2261
     91  O         -6.8480    9.2280  -13.0170 O.2   257  MET257     -0.2867
     92  CB        -9.6030    9.0080  -14.6720 C.3   257  MET257      0.0387
     93  CG       -10.4170    9.9540  -15.5780 C.3   257  MET257      0.0595
     94  SD       -12.1750    9.9700  -15.1280 S.3   257  MET257     -0.1393
     95  CE       -12.7260    8.3750  -15.8220 C.3   257  MET257      0.0692
     96  N         -4.8050   10.6320  -11.5890 N.3   261  ASN261     -0.1240
     97  CA        -4.8670   10.5830  -10.1410 C.3   261  ASN261      0.1653
     98  C         -3.4900   10.2490   -9.5190 C.2   261  ASN261      0.2266
     99  O         -3.0890   10.8800   -8.5710 O.2   261  ASN261     -0.2867
    100  CB        -5.9810    9.5990   -9.6850 C.3   261  ASN261      0.1155
    101  CG        -7.3890   10.0270  -10.1330 C.2   261  ASN261      0.2627
    102  OD1       -7.6830   11.2250  -10.2280 O.2   261  ASN261     -0.2716
    103  ND2       -8.2950    9.0470  -10.3530 N.am  261  ASN261     -0.0877
    104  N         -1.2030   13.2310   -9.8430 N.3   264  ASP264     -0.1239
    105  CA        -1.5690   14.2250   -8.8160 C.3   264  ASP264      0.1674
    106  C         -0.9350   13.8620   -7.4430 C.2   264  ASP264      0.2266
    107  O         -0.4500   14.7460   -6.6980 O.2   264  ASP264     -0.2867
    108  CB        -3.1070   14.4050   -8.6530 C.3   264  ASP264      0.1410
    109  CG        -3.7870   15.1910   -9.7870 C.2   264  ASP264      0.3668
    110  OD1       -3.1190   15.7670  -10.7010 O.co2 264  ASP264     -0.2456
    111  OD2       -5.0580   15.2230   -9.7680 O.co2 264  ASP264     -0.2456
    112  N        -10.7260   14.6990  -19.6410 N.3   298  TYR298     -0.1241
    113  CA        -9.9340   14.8840  -18.4450 C.3   298  TYR298      0.1605
    114  C         -8.4060   14.6690  -18.6100 C.2   298  TYR298      0.2264
    115  O         -7.6620   15.2510  -17.8140 O.2   298  TYR298     -0.2867
    116  CB       -10.4640   14.0570  -17.2500 C.3   298  TYR298      0.0534
    117  CG       -11.7760   14.5390  -16.6880 C.ar  298  TYR298     -0.0201
    118  CD1      -12.0890   15.9020  -16.6630 C.ar  298  TYR298     -0.0009
    119  CD2      -12.6580   13.6670  -16.0910 C.ar  298  TYR298     -0.0009
    120  CE1      -13.2660   16.3700  -16.1050 C.ar  298  TYR298      0.0417
    121  CE2      -13.8330   14.1160  -15.4970 C.ar  298  TYR298      0.0417
    122  CZ       -14.1310   15.4760  -15.5140 C.ar  298  TYR298      0.1957
    123  OH       -15.3080   15.9240  -14.9320 O.3   298  TYR298     -0.2866
    124  N         -7.3560   18.0930  -19.0350 N.3   301  MET301     -0.1230
    125  CA        -7.6230   18.8800  -17.8170 C.3   301  MET301      0.1702
    126  C         -6.6330   18.6210  -16.6810 C.2   301  MET301      0.2592
    127  O         -6.2220   19.5400  -15.9570 O.2   301  MET301     -0.2718
    128  CB        -9.0250   18.6050  -17.2710 C.3   301  MET301      0.0401
    129  CG       -10.0910   19.3160  -18.0510 C.3   301  MET301      0.0596
    130  SD       -10.1250   21.0750  -17.6760 S.3   301  MET301     -0.1393
    131  CE       -11.7620   21.4020  -18.2930 C.3   301  MET301      0.0692
    132  N         -6.2360   17.3440  -16.4860 N.am  302  TYR302     -0.1976
    133  CA        -5.2780   17.0030  -15.4330 C.3   302  TYR302      0.1639
    134  C         -3.9580   17.6950  -15.7770 C.2   302  TYR302      0.2290
    135  O         -3.3330   18.2360  -14.8600 O.2   302  TYR302     -0.2864
    136  CB        -4.9410   15.4830  -15.3980 C.3   302  TYR302      0.0560
    137  CG        -5.8910   14.6240  -14.5950 C.ar  302  TYR302     -0.0198
    138  CD1       -5.8480   14.6170  -13.1880 C.ar  302  TYR302     -0.0009
    139  CD2       -6.7830   13.7460  -15.2610 C.ar  302  TYR302     -0.0009
    140  CE1       -6.7400   13.7720  -12.4260 C.ar  302  TYR302      0.0417
    141  CE2       -7.6350   12.9210  -14.5080 C.ar  302  TYR302      0.0417
    142  CZ        -7.5880   12.9200  -13.1470 C.ar  302  TYR302      0.1957
    143  OH        -8.5060   12.1030  -12.4530 O.3   302  TYR302     -0.2866
    144  N        -17.0910   23.0200  -15.5590 N.3   342  GLU342     -0.1245
    145  CA       -15.6330   23.0830  -15.5950 C.3   342  GLU342      0.1567
    146  C        -15.1030   24.0450  -16.6520 C.2   342  GLU342      0.2260
    147  O        -14.2320   24.8520  -16.3340 O.2   342  GLU342     -0.2867
    148  CB       -15.0250   21.7170  -15.7860 C.3   342  GLU342      0.0388
    149  CG       -15.3790   20.8680  -14.5910 C.3   342  GLU342      0.1160
    150  CD       -14.8090   19.4890  -14.7460 C.2   342  GLU342      0.3649
    151  OE1      -13.7910   19.3680  -15.4810 O.co2 342  GLU342     -0.2457
    152  OE2      -15.3720   18.5610  -14.1410 O.co2 342  GLU342     -0.2457
@<TRIPOS>BOND
     1    34    33   ar
     2   112   113    1
     3    33    35   ar
     4    33    32    1
     5    25    22    1
     6    25    26    1
     7   124   125    1
     8    16    15    2
     9    32    31    1
    10   114   113    1
    11   114   115    2
    12    76    77    1
    13    22    21    1
    14    22    23    1
    15   113   116    1
    16   131   130    1
    17   129   130    1
    18   129   128    1
    19    27    23   am
    20    27    28    1
    21    31    28    1
    22    15    21   am
    23    15    14    1
    24   125   128    1
    25   125   126    1
    26    23    24    2
    27    77    78    1
    28    77    80    1
    29    13    14    1
    30    78    79    2
    31   116   117    1
    32    28    29    1
    33    14    17    1
    34   117   118   ar
    35   117   119   ar
    36   126   132   am
    37   126   127    2
    38   118   120   ar
    39   146   147    2
    40   146   145    1
    41    51    53   ar
    42    51    49   ar
    43   132   133    1
    44    88    89    1
    45    36    29   am
    46    36    37    1
    47    80    81    1
    48   120   122   ar
    49   119   121   ar
    50    17    18    1
    51    29    30    2
    52    48    49    1
    53    48    45    1
    54    95    94    1
    55    53    52   ar
    56   148   145    1
    57   148   149    1
    58   134   133    1
    59   134   135    2
    60    49    50   ar
    61   145   144    1
    62    40    37    1
    63    40    41    1
    64    93    94    1
    65    93    92    1
    66   122   121   ar
    67   122   123    1
    68   151   150   ar
    69   133   136    1
    70   136   137    1
    71    47    46    2
    72   139   137   ar
    73   139   141   ar
    74    82    81   ar
    75    82    84   ar
    76    44    45    1
    77    44    38   am
    78    81    83   ar
    79    37    38    1
    80    89    92    1
    81    89    90    1
    82    46    45    1
    83    46    54   am
    84    18    19    1
    85    18    20    1
    86    38    39    2
    87   150   149    1
    88   150   152   ar
    89    56    55    1
    90    56    57    2
    91    43    41   ar
    92   137   138   ar
    93    52    50   ar
    94   141   142   ar
    95    54    55    1
    96    41    42   ar
    97    55    58    1
    98    83    85   ar
    99    84    86   ar
   100    90    91    2
   101    86    85   ar
   102    86    87    1
   103   138   140   ar
   104   142   143    1
   105   142   140   ar
   106    96    97    1
   107   110   109   ar
   108    65    67   ar
   109    65    64   ar
   110    63    64    1
   111    63    60    1
   112   103   101   am
   113   102   101    2
   114    67    69   ar
   115    59    60    1
   116    97   100    1
   117    97    98    1
   118   101   100    1
   119    64    66   ar
   120    75    74    1
   121    60    61    1
   122   104   105    1
   123   109   111   ar
   124   109   108    1
   125    98    99    2
   126    11     8    1
   127    11    12    1
   128    69    68   ar
   129    66    68   ar
   130     8     7    1
   131     8     9    1
   132    74    71    1
   133   105   108    1
   134   105   106    1
   135     6     5    1
   136     4     3    2
   137     5     2    1
   138    61    62    2
   139    10     9    2
   140     7     3   am
   141     3     2    1
   142   106   107    2
   143     2     1    1
   144    71    70    1
   145    71    72    1
   146    72    73    2
