@<TRIPOS>MOLECULE
tmp/5ddcA00.pdb
 167 159 0 0 0
SMALL
GASTEIGER

@<TRIPOS>ATOM
      1  N        -23.6710    7.6320   -6.0540 N.3   133  SER133     -0.1202
      2  CA       -24.2240    7.1280   -7.3270 C.3   133  SER133      0.2020
      3  C        -23.3490    6.0410   -7.9260 C.2   133  SER133      0.2619
      4  O        -23.8230    4.9290   -8.2590 O.2   133  SER133     -0.2717
      5  CB       -24.3090    8.2640   -8.3670 C.3   133  SER133      0.2103
      6  OG       -24.5880    7.6900   -9.6510 O.3   133  SER133     -0.2182
      7  N        -22.0490    6.3420   -8.1220 N.am  134  SER134     -0.1951
      8  CA       -21.2210    5.3050   -8.7440 C.3   134  SER134      0.1924
      9  C        -20.9780    4.1280   -7.7820 C.2   134  SER134      0.2314
     10  O        -20.6920    3.0250   -8.2370 O.2   134  SER134     -0.2863
     11  CB       -19.9180    5.8620   -9.2910 C.3   134  SER134      0.2116
     12  OG       -19.1710    6.5130   -8.2910 O.3   134  SER134     -0.2180
     13  N        -17.7740    2.8860  -17.3380 N.3   156  LEU156     -0.1231
     14  CA       -17.5090    4.1800  -16.6940 C.3   156  LEU156      0.1693
     15  C        -17.3650    5.2070  -17.8070 C.2   156  LEU156      0.2593
     16  O        -16.5840    5.0020  -18.7420 O.2   156  LEU156     -0.2718
     17  CB       -16.1850    4.1350  -15.9170 C.3   156  LEU156      0.0284
     18  CG       -16.1530    3.1560  -14.7500 C.3   156  LEU156      0.0019
     19  CD1      -14.6880    3.0790  -14.2700 C.3   156  LEU156      0.0001
     20  CD2      -17.1020    3.6700  -13.6530 C.3   156  LEU156      0.0001
     21  N        -18.0750    6.3160  -17.6790 N.am  157  SER157     -0.1938
     22  CA       -17.7000    7.5320  -18.4250 C.3   157  SER157      0.2055
     23  C        -16.9790    8.5030  -17.4750 C.2   157  SER157      0.2643
     24  O        -16.5700    8.1010  -16.3820 O.2   157  SER157     -0.2714
     25  CB       -18.9470    8.1750  -19.0880 C.3   157  SER157      0.2130
     26  OG       -19.7840    8.7930  -18.0970 O.3   157  SER157     -0.2179
     27  N        -16.7770    9.7740  -17.8890 N.am  158  GLU158     -0.1963
     28  CA       -16.1010   10.6990  -17.0190 C.3   158  GLU158      0.1733
     29  C        -17.0120   11.2550  -15.9410 C.2   158  GLU158      0.2616
     30  O        -16.5460   11.8760  -14.9920 O.2   158  GLU158     -0.2715
     31  CB       -15.4700   11.8170  -17.8560 C.3   158  GLU158      0.0429
     32  CG       -14.2800   11.2630  -18.6190 C.3   158  GLU158      0.1163
     33  CD       -13.5220   12.3430  -19.4200 C.2   158  GLU158      0.3649
     34  OE1      -14.1770   13.1270  -20.1370 O.co2 158  GLU158     -0.2457
     35  OE2      -12.2500   12.3020  -19.4260 O.co2 158  GLU158     -0.2457
     36  N        -18.3120   10.9910  -16.0460 N.am  159  ASP159     -0.1957
     37  CA       -19.2560   11.4980  -15.0470 C.3   159  ASP159      0.1840
     38  C        -20.3900   10.5360  -14.6780 C.2   159  ASP159      0.2622
     39  O        -21.3680   10.9460  -14.0520 O.2   159  ASP159     -0.2715
     40  CB       -19.8490   12.8340  -15.5090 C.3   159  ASP159      0.1450
     41  CG       -20.5150   13.5970  -14.3820 C.2   159  ASP159      0.3671
     42  OD1      -19.8720   13.7850  -13.3290 O.co2 159  ASP159     -0.2456
     43  OD2      -21.6770   14.0080  -14.5510 O.co2 159  ASP159     -0.2456
     44  N        -20.2660    9.2660  -15.0510 N.am  160  HIS160     -0.1959
     45  CA       -21.3200    8.3320  -14.7590 C.3   160  HIS160      0.1787
     46  C        -20.8230    6.8910  -14.8380 C.2   160  HIS160      0.2620
     47  O        -19.7000    6.6160  -15.2950 O.2   160  HIS160     -0.2715
     48  CB       -22.4740    8.6010  -15.7580 C.3   160  HIS160      0.0785
     49  CG       -23.7320    7.7990  -15.4980 C.ar  160  HIS160      0.0821
     50  ND1      -24.2580    7.6080  -14.2210 N.ar  160  HIS160     -0.2267
     51  CD2      -24.5750    7.1750  -16.3570 C.ar  160  HIS160      0.1154
     52  CE1      -25.3800    6.8980  -14.3160 C.ar  160  HIS160      0.1986
     53  NE2      -25.5910    6.6140  -15.5980 N.ar  160  HIS160     -0.2212
     54  N        -21.6340    5.9740  -14.3110 N.am  161  ALA161     -0.1977
     55  CA       -21.2760    4.5440  -14.2580 C.3   161  ALA161      0.1597
     56  C        -22.5210    3.7300  -14.5160 C.2   161  ALA161      0.2287
     57  O        -23.6230    4.1240  -14.0980 O.2   161  ALA161     -0.2864
     58  CB       -20.7350    4.2030  -12.8550 C.3   161  ALA161      0.0319
     59  N        -10.7740    1.0540  -10.0960 N.3   217  PHE217     -0.1241
     60  CA       -11.8450    1.9960   -9.8010 C.3   217  PHE217      0.1605
     61  C        -11.9960    2.1560   -8.2810 C.2   217  PHE217      0.2264
     62  O        -12.0270    3.2750   -7.7900 O.2   217  PHE217     -0.2867
     63  CB       -13.1600    1.5550  -10.4040 C.3   217  PHE217      0.0534
     64  CG       -14.3130    2.3700   -9.9390 C.ar  217  PHE217     -0.0203
     65  CD1      -14.6690    3.5590  -10.6050 C.ar  217  PHE217     -0.0042
     66  CD2      -15.0760    1.9480   -8.8850 C.ar  217  PHE217     -0.0042
     67  CE1      -15.7920    4.3030  -10.2190 C.ar  217  PHE217     -0.0003
     68  CE2      -16.2120    2.6870   -8.4800 C.ar  217  PHE217     -0.0003
     69  CZ       -16.5360    3.8780   -9.1070 C.ar  217  PHE217     -0.0000
     70  N         -9.1770    4.2360   -6.9830 N.3   220  CYS220     -0.1235
     71  CA        -9.3780    5.6410   -7.2810 C.3   220  CYS220      0.1677
     72  C        -10.4410    6.2600   -6.3670 C.2   220  CYS220      0.2270
     73  O        -10.4070    7.4660   -6.0960 O.2   220  CYS220     -0.2867
     74  CB        -9.8270    5.8270   -8.7400 C.3   220  CYS220      0.0956
     75  SG        -8.4800    5.5420   -9.9200 S.3   220  CYS220     -0.0801
     76  N         -6.8140    3.3320  -18.4260 N.3   255  TYR255     -0.1241
     77  CA        -7.5490    4.0620  -17.3970 C.3   255  TYR255      0.1605
     78  C         -6.9810    5.5110  -17.2230 C.2   255  TYR255      0.2264
     79  O         -6.3200    5.8050  -16.2650 O.2   255  TYR255     -0.2867
     80  CB        -7.4770    3.2460  -16.0850 C.3   255  TYR255      0.0534
     81  CG        -8.6000    3.5530  -15.0980 C.ar  255  TYR255     -0.0201
     82  CD1       -9.3010    4.7840  -15.1360 C.ar  255  TYR255     -0.0009
     83  CD2       -8.9890    2.5910  -14.1820 C.ar  255  TYR255     -0.0009
     84  CE1      -10.3200    5.0530  -14.2400 C.ar  255  TYR255      0.0417
     85  CE2      -10.0060    2.8400  -13.2690 C.ar  255  TYR255      0.0417
     86  CZ       -10.6820    4.0540  -13.3090 C.ar  255  TYR255      0.1957
     87  OH       -11.6660    4.2530  -12.3820 O.3   255  TYR255     -0.2866
     88  N         -8.1720    8.3580  -16.2630 N.3   257  MET257     -0.1245
     89  CA        -8.3920    9.0950  -15.0140 C.3   257  MET257      0.1570
     90  C         -7.5200    8.5800  -13.8630 C.2   257  MET257      0.2261
     91  O         -7.1720    9.3670  -12.9690 O.2   257  MET257     -0.2867
     92  CB        -9.8970    9.1570  -14.6350 C.3   257  MET257      0.0387
     93  CG       -10.6940   10.1130  -15.5200 C.3   257  MET257      0.0595
     94  SD       -12.4440   10.1420  -15.0570 S.3   257  MET257     -0.1393
     95  CE       -12.9990    8.5420  -15.6920 C.3   257  MET257      0.0692
     96  N         -5.0170   10.7190  -11.6180 N.3   261  ASN261     -0.1240
     97  CA        -5.0750   10.7250  -10.1710 C.3   261  ASN261      0.1653
     98  C         -3.7030   10.3690   -9.5520 C.2   261  ASN261      0.2266
     99  O         -3.2870   11.0100   -8.6140 O.2   261  ASN261     -0.2867
    100  CB        -6.2110    9.7840   -9.6580 C.3   261  ASN261      0.1155
    101  CG        -7.6350   10.2210  -10.1280 C.2   261  ASN261      0.2627
    102  OD1       -7.9310   11.4220  -10.2570 O.2   261  ASN261     -0.2716
    103  ND2       -8.5560    9.2130  -10.3310 N.am  261  ASN261     -0.0877
    104  N         -1.4250   13.4120   -9.9230 N.3   264  ASP264     -0.1239
    105  CA        -1.7520   14.3930   -8.9250 C.3   264  ASP264      0.1674
    106  C         -1.1260   14.0300   -7.5700 C.2   264  ASP264      0.2266
    107  O         -0.6900   14.9100   -6.8430 O.2   264  ASP264     -0.2867
    108  CB        -3.2720   14.4890   -8.7320 C.3   264  ASP264      0.1410
    109  CG        -3.9860   15.3080   -9.8390 C.2   264  ASP264      0.3668
    110  OD1       -3.3660   15.9150  -10.7450 O.co2 264  ASP264     -0.2456
    111  OD2       -5.2060   15.3180   -9.7970 O.co2 264  ASP264     -0.2456
    112  N        -11.0630   14.8890  -19.5800 N.3   298  TYR298     -0.1241
    113  CA       -10.2470   15.1050  -18.4350 C.3   298  TYR298      0.1605
    114  C         -8.7180   14.8720  -18.5930 C.2   298  TYR298      0.2264
    115  O         -7.9720   15.5070  -17.8490 O.2   298  TYR298     -0.2867
    116  CB       -10.7620   14.2900  -17.2470 C.3   298  TYR298      0.0534
    117  CG       -12.0850   14.7460  -16.6820 C.ar  298  TYR298     -0.0201
    118  CD1      -12.3990   16.1440  -16.5700 C.ar  298  TYR298     -0.0009
    119  CD2      -12.9690   13.8180  -16.0970 C.ar  298  TYR298     -0.0009
    120  CE1      -13.5700   16.5570  -15.9400 C.ar  298  TYR298      0.0417
    121  CE2      -14.1490   14.2420  -15.4760 C.ar  298  TYR298      0.0417
    122  CZ       -14.4560   15.6010  -15.4620 C.ar  298  TYR298      0.1957
    123  OH       -15.6120   16.0750  -14.8090 O.3   298  TYR298     -0.2866
    124  N         -7.5190   18.2440  -19.0530 N.3   301  MET301     -0.1230
    125  CA        -7.8060   19.0350  -17.8600 C.3   301  MET301      0.1702
    126  C         -6.8290   18.7290  -16.7350 C.2   301  MET301      0.2592
    127  O         -6.3730   19.6370  -16.0380 O.2   301  MET301     -0.2718
    128  CB        -9.2330   18.7710  -17.3620 C.3   301  MET301      0.0401
    129  CG       -10.2970   19.4210  -18.2190 C.3   301  MET301      0.0596
    130  SD       -10.2520   21.2100  -18.0210 S.3   301  MET301     -0.1393
    131  CE       -11.9910   21.5760  -17.7810 C.3   301  MET301      0.0692
    132  N         -6.4750   17.4330  -16.5690 N.am  302  TYR302     -0.1976
    133  CA        -5.4870   17.0960  -15.5220 C.3   302  TYR302      0.1639
    134  C         -4.1750   17.7860  -15.8250 C.2   302  TYR302      0.2290
    135  O         -3.5450   18.3640  -14.9170 O.2   302  TYR302     -0.2864
    136  CB        -5.2040   15.6160  -15.4950 C.3   302  TYR302      0.0560
    137  CG        -6.1610   14.7840  -14.6990 C.ar  302  TYR302     -0.0198
    138  CD1       -6.1450   14.7950  -13.2920 C.ar  302  TYR302     -0.0009
    139  CD2       -7.0300   13.9030  -15.3590 C.ar  302  TYR302     -0.0009
    140  CE1       -7.0230   13.9420  -12.5520 C.ar  302  TYR302      0.0417
    141  CE2       -7.9200   13.0990  -14.6330 C.ar  302  TYR302      0.0417
    142  CZ        -7.8870   13.0940  -13.2730 C.ar  302  TYR302      0.1957
    143  OH        -8.7800   12.2840  -12.5350 O.3   302  TYR302     -0.2866
    144  N         -4.3310   21.6190  -15.2830 N.3   305  GLY305     -0.1225
    145  CA        -4.3610   21.9600  -13.8550 C.3   305  GLY305      0.1811
    146  C         -2.9700   21.9240  -13.2480 C.2   305  GLY305      0.2280
    147  O         -2.5940   22.8220  -12.5230 O.2   305  GLY305     -0.2866
    148  N         -1.1240   25.2020  -11.6930 N.3   309  ARG309     -0.1245
    149  CA        -0.5650   25.2770  -10.3000 C.3   309  ARG309      0.1563
    150  C          0.8810   25.6610  -10.3170 C.2   309  ARG309      0.2260
    151  O          1.3950   26.2350   -9.3240 O.2   309  ARG309     -0.2867
    152  CB        -0.7280   23.9180   -9.5820 C.3   309  ARG309      0.0307
    153  CG        -2.1920   23.6580   -9.1960 C.3   309  ARG309      0.0489
    154  CD        -2.4050   22.3820   -8.4050 C.3   309  ARG309      0.2205
    155  NE        -2.0160   21.1650   -9.1470 N.pl3 309  ARG309     -0.0865
    156  CZ        -2.8330   20.4950   -9.9540 C.cat 309  ARG309      0.5346
    157  NH1       -4.0770   20.9680  -10.1740 N.pl3 309  ARG309      0.1354
    158  NH2       -2.4010   19.3640  -10.5440 N.pl3 309  ARG309      0.1354
    159  N        -17.1830   23.0580  -15.5420 N.3   342  GLU342     -0.1245
    160  CA       -15.7280   23.0770  -15.5740 C.3   342  GLU342      0.1567
    161  C        -15.1850   24.0740  -16.6350 C.2   342  GLU342      0.2260
    162  O        -14.2710   24.8590  -16.3640 O.2   342  GLU342     -0.2867
    163  CB       -15.1510   21.6940  -15.8060 C.3   342  GLU342      0.0388
    164  CG       -15.4100   20.7590  -14.6500 C.3   342  GLU342      0.1160
    165  CD       -14.2900   20.7610  -13.6350 C.2   342  GLU342      0.3649
    166  OE1      -13.6480   21.8260  -13.4410 O.co2 342  GLU342     -0.2457
    167  OE2      -14.0420   19.6900  -13.0380 O.co2 342  GLU342     -0.2457
@<TRIPOS>BOND
     1    34    33   ar
     2   112   113    1
     3    35    33   ar
     4    33    32    1
     5    25    22    1
     6    25    26    1
     7   124   125    1
     8    16    15    2
     9    32    31    1
    10   114   113    1
    11   114   115    2
    12   113   116    1
    13    76    77    1
    14    22    21    1
    15    22    23    1
    16   129   130    1
    17   129   128    1
    18   130   131    1
    19    27    23   am
    20    27    28    1
    21   125   128    1
    22   125   126    1
    23    31    28    1
    24    15    21   am
    25    15    14    1
    26    23    24    2
    27    77    78    1
    28    77    80    1
    29    13    14    1
    30   116   117    1
    31    78    79    2
    32    28    29    1
    33   126   132   am
    34   126   127    2
    35    14    17    1
    36   117   118   ar
    37   117   119   ar
    38   161   162    2
    39   161   160    1
    40   118   120   ar
    41   132   133    1
    42    51    53   ar
    43    51    49   ar
    44    88    89    1
    45   119   121   ar
    46    80    81    1
    47    36    29   am
    48    36    37    1
    49    29    30    2
    50   120   122   ar
    51    17    18    1
    52   134   133    1
    53   134   135    2
    54   163   160    1
    55   163   164    1
    56    48    49    1
    57    48    45    1
    58    95    94    1
    59    53    52   ar
    60   160   159    1
    61   133   136    1
    62    93    94    1
    63    93    92    1
    64    40    37    1
    65    40    41    1
    66    49    50   ar
    67   136   137    1
    68   121   122   ar
    69   122   123    1
    70   139   137   ar
    71   139   141   ar
    72    47    46    2
    73   144   145    1
    74    82    81   ar
    75    82    84   ar
    76    81    83   ar
    77    44    45    1
    78    44    38   am
    79    37    38    1
    80    89    92    1
    81    89    90    1
    82    46    45    1
    83    46    54   am
    84    18    19    1
    85    18    20    1
    86   137   138   ar
    87    38    39    2
    88   164   165    1
    89   141   142   ar
    90    43    41   ar
    91    56    55    1
    92    56    57    2
    93    41    42   ar
    94    52    50   ar
    95    54    55    1
    96    55    58    1
    97    84    86   ar
    98    83    85   ar
    99    90    91    2
   100   145   146    1
   101   165   166   ar
   102   165   167   ar
   103    86    85   ar
   104    86    87    1
   105   138   140   ar
   106   142   140   ar
   107   142   143    1
   108   146   147    2
   109   148   149    1
   110    96    97    1
   111   110   109   ar
   112    65    67   ar
   113    65    64   ar
   114   158   156    1
   115    63    64    1
   116    63    60    1
   117   103   101   am
   118   150   149    1
   119   150   151    2
   120   149   152    1
   121   102   101    2
   122    67    69   ar
   123   157   156    1
   124    97   100    1
   125    97    98    1
   126   101   100    1
   127    59    60    1
   128   156   155    2
   129    64    66   ar
   130   104   105    1
   131    75    74    1
   132   109   111   ar
   133   109   108    1
   134    60    61    1
   135     6     5    1
   136   152   153    1
   137    98    99    2
   138    11     8    1
   139    11    12    1
   140   153   154    1
   141   155   154    1
   142    69    68   ar
   143   105   108    1
   144   105   106    1
   145    66    68   ar
   146     8     7    1
   147     8     9    1
   148    74    71    1
   149     5     2    1
   150    61    62    2
   151     4     3    2
   152    10     9    2
   153     7     3   am
   154     3     2    1
   155   106   107    2
   156     2     1    1
   157    71    70    1
   158    71    72    1
   159    72    73    2
