@<TRIPOS>MOLECULE
tmp/5ddeA00.pdb
 152 146 0 0 0
SMALL
GASTEIGER

@<TRIPOS>ATOM
      1  N        -23.4490    7.3830   -6.0350 N.3   133  SER133     -0.1202
      2  CA       -23.8990    6.9070   -7.3430 C.3   133  SER133      0.2020
      3  C        -23.0450    5.7900   -7.9330 C.2   133  SER133      0.2619
      4  O        -23.5370    4.6840   -8.2730 O.2   133  SER133     -0.2717
      5  CB       -23.8990    8.0850   -8.3570 C.3   133  SER133      0.2103
      6  OG       -24.2650    7.5810   -9.6280 O.3   133  SER133     -0.2182
      7  N        -21.7610    6.0870   -8.1310 N.am  134  SER134     -0.1951
      8  CA       -20.8990    5.0730   -8.7480 C.3   134  SER134      0.1924
      9  C        -20.6470    3.9170   -7.7820 C.2   134  SER134      0.2314
     10  O        -20.3600    2.8230   -8.2210 O.2   134  SER134     -0.2863
     11  CB       -19.5920    5.6900   -9.2800 C.3   134  SER134      0.2116
     12  OG       -18.8270    6.2680   -8.2690 O.3   134  SER134     -0.2180
     13  N        -17.4280    2.7400  -17.2920 N.3   156  LEU156     -0.1231
     14  CA       -17.1800    4.0490  -16.7210 C.3   156  LEU156      0.1693
     15  C        -17.0450    5.1010  -17.8020 C.2   156  LEU156      0.2593
     16  O        -16.2790    4.9130  -18.7000 O.2   156  LEU156     -0.2718
     17  CB       -15.9320    4.0950  -15.9100 C.3   156  LEU156      0.0284
     18  CG       -15.8830    3.0930  -14.7560 C.3   156  LEU156      0.0019
     19  CD1      -14.4750    2.9910  -14.1800 C.3   156  LEU156      0.0001
     20  CD2      -16.8470    3.5330  -13.6660 C.3   156  LEU156      0.0001
     21  N        -17.7600    6.2120  -17.6390 N.am  157  SER157     -0.1938
     22  CA       -17.4460    7.4170  -18.3420 C.3   157  SER157      0.2055
     23  C        -16.7270    8.3900  -17.3920 C.2   157  SER157      0.2643
     24  O        -16.3950    8.0060  -16.2940 O.2   157  SER157     -0.2714
     25  CB       -18.6980    8.0630  -18.9260 C.3   157  SER157      0.2130
     26  OG       -19.5010    8.6710  -17.9670 O.3   157  SER157     -0.2179
     27  N        -16.4880    9.6200  -17.8250 N.am  158  GLU158     -0.1963
     28  CA       -15.8130   10.5770  -16.9810 C.3   158  GLU158      0.1733
     29  C        -16.7270   11.1070  -15.8750 C.2   158  GLU158      0.2616
     30  O        -16.2290   11.7430  -14.9420 O.2   158  GLU158     -0.2715
     31  CB       -15.1720   11.6980  -17.8440 C.3   158  GLU158      0.0429
     32  CG       -13.9820   11.1530  -18.5870 C.3   158  GLU158      0.1163
     33  CD       -13.2370   12.1970  -19.3870 C.2   158  GLU158      0.3649
     34  OE1      -13.8830   13.0470  -20.0740 O.co2 158  GLU158     -0.2457
     35  OE2      -11.9900   12.1470  -19.3560 O.co2 158  GLU158     -0.2457
     36  N        -18.0380   10.8510  -15.9720 N.am  159  ASP159     -0.1957
     37  CA       -18.9930   11.3690  -14.9540 C.3   159  ASP159      0.1840
     38  C        -20.1020   10.4080  -14.5730 C.2   159  ASP159      0.2622
     39  O        -21.0390   10.8220  -13.9310 O.2   159  ASP159     -0.2715
     40  CB       -19.7060   12.6120  -15.5180 C.3   159  ASP159      0.1450
     41  CG       -20.3600   13.4770  -14.4380 C.2   159  ASP159      0.3671
     42  OD1      -19.7120   13.6850  -13.4200 O.co2 159  ASP159     -0.2456
     43  OD2      -21.5560   13.9030  -14.5660 O.co2 159  ASP159     -0.2456
     44  N        -20.0230    9.1610  -14.9970 N.am  160  HIS160     -0.1959
     45  CA       -21.0810    8.1850  -14.7340 C.3   160  HIS160      0.1787
     46  C        -20.5420    6.7500  -14.7910 C.2   160  HIS160      0.2620
     47  O        -19.4370    6.5010  -15.2820 O.2   160  HIS160     -0.2715
     48  CB       -22.1930    8.4270  -15.7490 C.3   160  HIS160      0.0785
     49  CG       -23.4460    7.6470  -15.5010 C.ar  160  HIS160      0.0821
     50  ND1      -23.9830    7.4750  -14.2410 N.ar  160  HIS160     -0.2267
     51  CD2      -24.2870    7.0280  -16.3540 C.ar  160  HIS160      0.1154
     52  CE1      -25.1160    6.7940  -14.3280 C.ar  160  HIS160      0.1986
     53  NE2      -25.3000    6.4660  -15.5980 N.ar  160  HIS160     -0.2212
     54  N        -21.3120    5.8150  -14.2560 N.am  161  ALA161     -0.1977
     55  CA       -20.9770    4.4100  -14.2290 C.3   161  ALA161      0.1597
     56  C        -22.2430    3.6020  -14.4860 C.2   161  ALA161      0.2287
     57  O        -23.3310    3.9580  -14.0590 O.2   161  ALA161     -0.2864
     58  CB       -20.4380    4.0360  -12.8670 C.3   161  ALA161      0.0319
     59  N        -10.3870    0.9250  -10.0110 N.3   217  PHE217     -0.1241
     60  CA       -11.4620    1.8930   -9.7200 C.3   217  PHE217      0.1605
     61  C        -11.6810    2.0360   -8.2050 C.2   217  PHE217      0.2264
     62  O        -11.7720    3.1410   -7.7010 O.2   217  PHE217     -0.2867
     63  CB       -12.7510    1.4520  -10.3930 C.3   217  PHE217      0.0534
     64  CG       -13.9720    2.2100   -9.9350 C.ar  217  PHE217     -0.0203
     65  CD1      -14.3930    3.3760  -10.5960 C.ar  217  PHE217     -0.0042
     66  CD2      -14.6950    1.7770   -8.8550 C.ar  217  PHE217     -0.0042
     67  CE1      -15.4960    4.0680  -10.1520 C.ar  217  PHE217     -0.0003
     68  CE2      -15.7720    2.4830   -8.3970 C.ar  217  PHE217     -0.0003
     69  CZ       -16.1920    3.6250   -9.0400 C.ar  217  PHE217     -0.0000
     70  N         -8.8200    4.1220   -6.8770 N.3   220  CYS220     -0.1235
     71  CA        -9.1260    5.5370   -7.2000 C.3   220  CYS220      0.1677
     72  C        -10.1770    6.1290   -6.2780 C.2   220  CYS220      0.2270
     73  O        -10.1320    7.3190   -5.9590 O.2   220  CYS220     -0.2867
     74  CB        -9.5930    5.6780   -8.6580 C.3   220  CYS220      0.0956
     75  SG        -8.2320    5.4330   -9.8420 S.3   220  CYS220     -0.0801
     76  N         -6.5530    3.1710  -18.3510 N.3   255  TYR255     -0.1241
     77  CA        -7.2740    3.9280  -17.3330 C.3   255  TYR255      0.1605
     78  C         -6.6970    5.3560  -17.1580 C.2   255  TYR255      0.2264
     79  O         -6.0230    5.6410  -16.1780 O.2   255  TYR255     -0.2867
     80  CB        -7.2350    3.1330  -16.0340 C.3   255  TYR255      0.0534
     81  CG        -8.3210    3.4530  -15.0430 C.ar  255  TYR255     -0.0201
     82  CD1       -9.0040    4.6740  -15.0350 C.ar  255  TYR255     -0.0009
     83  CD2       -8.6520    2.5140  -14.1040 C.ar  255  TYR255     -0.0009
     84  CE1       -9.9990    4.9330  -14.0990 C.ar  255  TYR255      0.0417
     85  CE2       -9.6340    2.7710  -13.1540 C.ar  255  TYR255      0.0417
     86  CZ       -10.3310    3.9570  -13.1940 C.ar  255  TYR255      0.1957
     87  OH       -11.2910    4.1900  -12.2380 O.3   255  TYR255     -0.2866
     88  N         -7.8300    8.2950  -16.1250 N.3   257  MET257     -0.1245
     89  CA        -8.1020    9.0280  -14.8860 C.3   257  MET257      0.1570
     90  C         -7.2700    8.5290  -13.7310 C.2   257  MET257      0.2261
     91  O         -6.8740    9.3250  -12.8650 O.2   257  MET257     -0.2867
     92  CB        -9.5840    9.0520  -14.5510 C.3   257  MET257      0.0387
     93  CG       -10.4120    9.9280  -15.4830 C.3   257  MET257      0.0595
     94  SD       -12.1250   10.0530  -14.9840 S.3   257  MET257     -0.1393
     95  CE       -12.7740    8.5020  -15.6240 C.3   257  MET257      0.0692
     96  N         -4.7930   10.6520  -11.4610 N.3   261  ASN261     -0.1240
     97  CA        -4.8480   10.6740   -9.9990 C.3   261  ASN261      0.1653
     98  C         -3.4740   10.2960   -9.3960 C.2   261  ASN261      0.2266
     99  O         -3.0000   10.9010   -8.4120 O.2   261  ASN261     -0.2867
    100  CB        -5.9740    9.7730   -9.4480 C.3   261  ASN261      0.1155
    101  CG        -7.3850   10.1320   -9.9710 C.2   261  ASN261      0.2627
    102  OD1       -7.6890   11.2880  -10.2940 O.2   261  ASN261     -0.2716
    103  ND2       -8.2660    9.1370   -9.9980 N.am  261  ASN261     -0.0877
    104  N         -1.2230   13.3010   -9.7190 N.3   264  ASP264     -0.1239
    105  CA        -1.5870   14.2840   -8.7110 C.3   264  ASP264      0.1674
    106  C         -0.9690   13.9120   -7.3730 C.2   264  ASP264      0.2266
    107  O         -0.4520   14.7940   -6.6510 O.2   264  ASP264     -0.2867
    108  CB        -3.0930   14.4360   -8.5140 C.3   264  ASP264      0.1410
    109  CG        -3.7770   15.1670   -9.6400 C.2   264  ASP264      0.3668
    110  OD1       -3.1180   15.7640  -10.5640 O.co2 264  ASP264     -0.2456
    111  OD2       -5.0270   15.1610   -9.5890 O.co2 264  ASP264     -0.2456
    112  N        -10.7990   14.7610  -19.5000 N.3   298  TYR298     -0.1241
    113  CA       -10.0030   14.9390  -18.3280 C.3   298  TYR298      0.1605
    114  C         -8.4940   14.7170  -18.4410 C.2   298  TYR298      0.2264
    115  O         -7.7780   15.3450  -17.6850 O.2   298  TYR298     -0.2867
    116  CB       -10.5380   14.1420  -17.1320 C.3   298  TYR298      0.0534
    117  CG       -11.8440   14.6300  -16.5500 C.ar  298  TYR298     -0.0201
    118  CD1      -12.2060   15.9720  -16.5810 C.ar  298  TYR298     -0.0009
    119  CD2      -12.7450   13.7470  -15.9950 C.ar  298  TYR298     -0.0009
    120  CE1      -13.3680   16.4330  -15.9940 C.ar  298  TYR298      0.0417
    121  CE2      -13.9240   14.2020  -15.4340 C.ar  298  TYR298      0.0417
    122  CZ       -14.2270   15.5210  -15.4250 C.ar  298  TYR298      0.1957
    123  OH       -15.4280   15.9070  -14.8420 O.3   298  TYR298     -0.2866
    124  N         -7.2700   18.0920  -18.8880 N.3   301  MET301     -0.1230
    125  CA        -7.5800   18.9150  -17.7170 C.3   301  MET301      0.1702
    126  C         -6.6400   18.6270  -16.5660 C.2   301  MET301      0.2592
    127  O         -6.1910   19.5540  -15.8740 O.2   301  MET301     -0.2718
    128  CB        -9.0040   18.6960  -17.2400 C.3   301  MET301      0.0401
    129  CG       -10.0420   19.2850  -18.1580 C.3   301  MET301      0.0596
    130  SD       -10.1750   21.0570  -17.8990 S.3   301  MET301     -0.1393
    131  CE       -11.8330   21.3040  -18.5220 C.3   301  MET301      0.0692
    132  N         -6.3200   17.3500  -16.3650 N.am  302  TYR302     -0.1976
    133  CA        -5.2790   16.9920  -15.3460 C.3   302  TYR302      0.1639
    134  C         -3.9540   17.6690  -15.6460 C.2   302  TYR302      0.2290
    135  O         -3.3320   18.2450  -14.7450 O.2   302  TYR302     -0.2864
    136  CB        -4.9830   15.4990  -15.3040 C.3   302  TYR302      0.0560
    137  CG        -5.9270   14.6380  -14.4980 C.ar  302  TYR302     -0.0198
    138  CD1       -5.8440   14.5950  -13.1250 C.ar  302  TYR302     -0.0009
    139  CD2       -6.8720   13.8410  -15.1320 C.ar  302  TYR302     -0.0009
    140  CE1       -6.6830   13.7750  -12.3680 C.ar  302  TYR302      0.0417
    141  CE2       -7.7020   13.0210  -14.3970 C.ar  302  TYR302      0.0417
    142  CZ        -7.6050   12.9750  -13.0430 C.ar  302  TYR302      0.1957
    143  OH        -8.4650   12.1330  -12.3360 O.3   302  TYR302     -0.2866
    144  N        -16.8350   22.8420  -15.4810 N.3   342  GLU342     -0.1245
    145  CA       -15.3930   22.8650  -15.5530 C.3   342  GLU342      0.1567
    146  C        -14.9050   23.8760  -16.5920 C.2   342  GLU342      0.2260
    147  O        -14.0240   24.6920  -16.2870 O.2   342  GLU342     -0.2867
    148  CB       -14.7890   21.4850  -15.8490 C.3   342  GLU342      0.0388
    149  CG       -14.9890   20.4860  -14.7410 C.3   342  GLU342      0.1160
    150  CD       -14.1040   20.6780  -13.4910 C.2   342  GLU342      0.3649
    151  OE1      -13.0750   21.4050  -13.4470 O.co2 342  GLU342     -0.2457
    152  OE2      -14.4670   20.0460  -12.4880 O.co2 342  GLU342     -0.2457
@<TRIPOS>BOND
     1    34    33   ar
     2   112   113    1
     3    33    35   ar
     4    33    32    1
     5    25    22    1
     6    25    26    1
     7   124   125    1
     8    16    15    2
     9    32    31    1
    10   131   130    1
    11   114   113    1
    12   114   115    2
    13    76    77    1
    14    22    21    1
    15    22    23    1
    16   113   116    1
    17   129   130    1
    18   129   128    1
    19    31    28    1
    20    27    23   am
    21    27    28    1
    22    15    21   am
    23    15    14    1
    24   125   128    1
    25   125   126    1
    26    23    24    2
    27    77    78    1
    28    77    80    1
    29    13    14    1
    30    78    79    2
    31   116   117    1
    32    28    29    1
    33    14    17    1
    34   146   147    2
    35   146   145    1
    36   118   117   ar
    37   118   120   ar
    38   126   132   am
    39   126   127    2
    40   117   119   ar
    41   132   133    1
    42    51    53   ar
    43    51    49   ar
    44    88    89    1
    45    80    81    1
    46   119   121   ar
    47   120   122   ar
    48    36    29   am
    49    36    37    1
    50    17    18    1
    51    29    30    2
    52   148   145    1
    53   148   149    1
    54    48    49    1
    55    48    45    1
    56   134   133    1
    57   134   135    2
    58    95    94    1
    59    53    52   ar
    60   145   144    1
    61    40    37    1
    62    40    41    1
    63    49    50   ar
    64    93    94    1
    65    93    92    1
    66   121   122   ar
    67   122   123    1
    68   133   136    1
    69   136   137    1
    70    47    46    2
    71   139   137   ar
    72   139   141   ar
    73    81    82   ar
    74    81    83   ar
    75    82    84   ar
    76    44    45    1
    77    44    38   am
    78    37    38    1
    79    89    92    1
    80    89    90    1
    81    46    45    1
    82    46    54   am
    83    18    19    1
    84    18    20    1
    85   149   150    1
    86    38    39    2
    87    43    41   ar
    88   137   138   ar
    89    56    55    1
    90    56    57    2
    91    41    42   ar
    92   141   142   ar
    93    52    50   ar
    94    54    55    1
    95    55    58    1
    96    83    85   ar
    97    84    86   ar
    98    90    91    2
    99   150   151   ar
   100   150   152   ar
   101    86    85   ar
   102    86    87    1
   103   138   140   ar
   104   142   140   ar
   105   142   143    1
   106    96    97    1
   107    65    67   ar
   108    65    64   ar
   109   110   109   ar
   110    63    64    1
   111    63    60    1
   112   102   101    2
   113    67    69   ar
   114    59    60    1
   115    97   100    1
   116    97    98    1
   117   103   101   am
   118   101   100    1
   119    64    66   ar
   120    75    74    1
   121    60    61    1
   122   104   105    1
   123   109   111   ar
   124   109   108    1
   125     6     5    1
   126    98    99    2
   127    11     8    1
   128    11    12    1
   129    69    68   ar
   130    66    68   ar
   131     8     7    1
   132     8     9    1
   133   105   108    1
   134   105   106    1
   135    74    71    1
   136     5     2    1
   137     4     3    2
   138    10     9    2
   139    61    62    2
   140     7     3   am
   141     3     2    1
   142   106   107    2
   143     2     1    1
   144    71    70    1
   145    71    72    1
   146    72    73    2
