@<TRIPOS>MOLECULE
tmp/5ddfA00.pdb
 152 146 0 0 0
SMALL
GASTEIGER

@<TRIPOS>ATOM
      1  N         23.3270    7.4560    6.0550 N.3   133  SER133     -0.1202
      2  CA        23.7680    6.9690    7.3500 C.3   133  SER133      0.2020
      3  C         22.9320    5.8550    7.9320 C.2   133  SER133      0.2619
      4  O         23.4540    4.7730    8.2740 O.2   133  SER133     -0.2717
      5  CB        23.8370    8.1080    8.3880 C.3   133  SER133      0.2103
      6  OG        24.2060    7.5850    9.6890 O.3   133  SER133     -0.2182
      7  N         21.6370    6.1140    8.1120 N.am  134  SER134     -0.1951
      8  CA        20.7700    5.1340    8.7680 C.3   134  SER134      0.1924
      9  C         20.5610    3.9600    7.8250 C.2   134  SER134      0.2314
     10  O         20.3030    2.8490    8.2600 O.2   134  SER134     -0.2863
     11  CB        19.4410    5.7070    9.2650 C.3   134  SER134      0.2116
     12  OG        18.7270    6.3830    8.2600 O.3   134  SER134     -0.2180
     13  N         17.3730    2.8300   17.3150 N.3   156  LEU156     -0.1231
     14  CA        17.1390    4.1450   16.7680 C.3   156  LEU156      0.1693
     15  C         16.9470    5.1890   17.8540 C.2   156  LEU156      0.2593
     16  O         16.0860    5.0300   18.7240 O.2   156  LEU156     -0.2718
     17  CB        15.8710    4.0900   15.9400 C.3   156  LEU156      0.0284
     18  CG        15.8230    3.1860   14.6930 C.3   156  LEU156      0.0019
     19  CD1       14.4170    3.1320   14.1300 C.3   156  LEU156      0.0001
     20  CD2       16.8290    3.6450   13.6770 C.3   156  LEU156      0.0001
     21  N         17.6660    6.2870   17.7450 N.am  157  SER157     -0.1938
     22  CA        17.3340    7.4760   18.5230 C.3   157  SER157      0.2055
     23  C         16.5810    8.4350   17.6100 C.2   157  SER157      0.2643
     24  O         16.0530    8.0170   16.5810 O.2   157  SER157     -0.2714
     25  CB        18.5450    8.1290   19.1480 C.3   157  SER157      0.2130
     26  OG        19.4070    8.6970   18.1750 O.3   157  SER157     -0.2179
     27  N         16.5130    9.7440   17.9500 N.am  158  GLU158     -0.1963
     28  CA        15.7900   10.6510   17.1200 C.3   158  GLU158      0.1733
     29  C         16.7130   11.1730   16.0140 C.2   158  GLU158      0.2616
     30  O         16.2180   11.7720   15.1090 O.2   158  GLU158     -0.2715
     31  CB        15.1850   11.7870   17.9490 C.3   158  GLU158      0.0429
     32  CG        14.0260   11.2970   18.7600 C.3   158  GLU158      0.1163
     33  CD        13.2730   12.3650   19.5280 C.2   158  GLU158      0.3649
     34  OE1       13.8640   13.1750   20.2560 O.co2 158  GLU158     -0.2457
     35  OE2       12.0180   12.3400   19.4240 O.co2 158  GLU158     -0.2457
     36  N         18.0280   10.9190   16.0770 N.am  159  ASP159     -0.1957
     37  CA        18.9970   11.4360   15.0690 C.3   159  ASP159      0.1840
     38  C         20.0790   10.4760   14.6670 C.2   159  ASP159      0.2622
     39  O         20.9890   10.8820   13.9920 O.2   159  ASP159     -0.2715
     40  CB        19.6740   12.6870   15.6140 C.3   159  ASP159      0.1450
     41  CG        20.3420   13.5500   14.5600 C.2   159  ASP159      0.3671
     42  OD1       19.7370   13.8080   13.5210 O.co2 159  ASP159     -0.2456
     43  OD2       21.4810   13.9790   14.8160 O.co2 159  ASP159     -0.2456
     44  N         19.9850    9.2370   15.1140 N.am  160  HIS160     -0.1959
     45  CA        21.0300    8.2560   14.8370 C.3   160  HIS160      0.1787
     46  C         20.4620    6.8280   14.8640 C.2   160  HIS160      0.2620
     47  O         19.4540    6.5470   15.4880 O.2   160  HIS160     -0.2715
     48  CB        22.1680    8.5010   15.8320 C.3   160  HIS160      0.0785
     49  CG        23.4280    7.7220   15.5930 C.ar  160  HIS160      0.0821
     50  ND1       23.9720    7.5400   14.3400 N.ar  160  HIS160     -0.2267
     51  CD2       24.2600    7.0810   16.4710 C.ar  160  HIS160      0.1154
     52  CE1       25.1010    6.8540   14.4520 C.ar  160  HIS160      0.1986
     53  NE2       25.2730    6.5270   15.7270 N.ar  160  HIS160     -0.2212
     54  N         21.2350    5.8870   14.3010 N.am  161  ALA161     -0.1977
     55  CA        20.9300    4.4810   14.2580 C.3   161  ALA161      0.1597
     56  C         22.1780    3.6620   14.5380 C.2   161  ALA161      0.2287
     57  O         23.2690    4.0530   14.1340 O.2   161  ALA161     -0.2864
     58  CB        20.4430    4.1250   12.8450 C.3   161  ALA161      0.0319
     59  N         10.3570    0.9230   10.0910 N.3   217  PHE217     -0.1241
     60  CA        11.4170    1.8480    9.7450 C.3   217  PHE217      0.1605
     61  C         11.5830    2.0450    8.2150 C.2   217  PHE217      0.2264
     62  O         11.6810    3.1680    7.7490 O.2   217  PHE217     -0.2867
     63  CB        12.7410    1.4590   10.3930 C.3   217  PHE217      0.0534
     64  CG        13.8880    2.2350    9.9150 C.ar  217  PHE217     -0.0203
     65  CD1       14.2370    3.4410   10.5360 C.ar  217  PHE217     -0.0042
     66  CD2       14.6740    1.7910    8.8890 C.ar  217  PHE217     -0.0042
     67  CE1       15.3140    4.1860   10.1250 C.ar  217  PHE217     -0.0003
     68  CE2       15.7200    2.5440    8.4510 C.ar  217  PHE217     -0.0003
     69  CZ        16.0640    3.7480    9.0560 C.ar  217  PHE217     -0.0000
     70  N          8.7030    4.1570    6.9120 N.3   220  CYS220     -0.1235
     71  CA         8.9690    5.5740    7.2330 C.3   220  CYS220      0.1677
     72  C         10.0360    6.1530    6.2770 C.2   220  CYS220      0.2270
     73  O          9.9950    7.3390    5.9460 O.2   220  CYS220     -0.2867
     74  CB         9.3890    5.7860    8.7240 C.3   220  CYS220      0.0956
     75  SG         7.9980    5.4720    9.8400 S.3   220  CYS220     -0.0801
     76  N          6.5130    3.2610   18.3670 N.3   255  TYR255     -0.1241
     77  CA         7.2390    4.0300   17.3480 C.3   255  TYR255      0.1605
     78  C          6.6170    5.4220   17.2100 C.2   255  TYR255      0.2264
     79  O          5.8990    5.7260   16.2460 O.2   255  TYR255     -0.2867
     80  CB         7.2520    3.2280   16.0350 C.3   255  TYR255      0.0534
     81  CG         8.2950    3.5320   15.0290 C.ar  255  TYR255     -0.0201
     82  CD1        8.9930    4.7470   15.0370 C.ar  255  TYR255     -0.0009
     83  CD2        8.5680    2.6110   14.0650 C.ar  255  TYR255     -0.0009
     84  CE1        9.9810    5.0480   14.0740 C.ar  255  TYR255      0.0417
     85  CE2        9.5310    2.8760   13.1090 C.ar  255  TYR255      0.0417
     86  CZ        10.2430    4.0810   13.1270 C.ar  255  TYR255      0.1957
     87  OH        11.2370    4.3180   12.1900 O.3   255  TYR255     -0.2866
     88  N          7.8300    8.3450   16.1470 N.3   257  MET257     -0.1245
     89  CA         8.0470    9.1030   14.9410 C.3   257  MET257      0.1570
     90  C          7.1940    8.5850   13.7770 C.2   257  MET257      0.2261
     91  O          6.7440    9.3650   12.9230 O.2   257  MET257     -0.2867
     92  CB         9.5300    9.2070   14.5910 C.3   257  MET257      0.0387
     93  CG        10.3570   10.0990   15.5210 C.3   257  MET257      0.0595
     94  SD        12.1000   10.1860   15.0520 S.3   257  MET257     -0.1393
     95  CE        12.6790    8.5920   15.6350 C.3   257  MET257      0.0692
     96  N          4.6940   10.7200   11.4810 N.3   261  ASN261     -0.1240
     97  CA         4.7260   10.6950   10.0270 C.3   261  ASN261      0.1653
     98  C          3.3530   10.3230    9.4170 C.2   261  ASN261      0.2266
     99  O          2.9290   10.9390    8.4370 O.2   261  ASN261     -0.2867
    100  CB         5.8630    9.7680    9.5210 C.3   261  ASN261      0.1155
    101  CG         7.2720   10.2030    9.9820 C.2   261  ASN261      0.2627
    102  OD1        7.5480   11.3680   10.2990 O.2   261  ASN261     -0.2716
    103  ND2        8.1830    9.2630    9.9610 N.am  261  ASN261     -0.0877
    104  N          1.1150   13.3700    9.7210 N.3   264  ASP264     -0.1239
    105  CA         1.4920   14.3550    8.7060 C.3   264  ASP264      0.1674
    106  C          0.8570   13.9620    7.3570 C.2   264  ASP264      0.2266
    107  O          0.3680   14.8320    6.6120 O.2   264  ASP264     -0.2867
    108  CB         3.0030   14.4850    8.5600 C.3   264  ASP264      0.1410
    109  CG         3.6780   15.2770    9.6850 C.2   264  ASP264      0.3668
    110  OD1        3.0090   15.8690   10.5960 O.co2 264  ASP264     -0.2456
    111  OD2        4.9330   15.3290    9.6320 O.co2 264  ASP264     -0.2456
    112  N         10.7290   14.9130   19.5510 N.3   298  TYR298     -0.1241
    113  CA         9.9260   15.0730   18.3820 C.3   298  TYR298      0.1605
    114  C          8.4420   14.8270   18.5060 C.2   298  TYR298      0.2264
    115  O          7.7210   15.4460   17.7180 O.2   298  TYR298     -0.2867
    116  CB        10.4930   14.2580   17.2500 C.3   298  TYR298      0.0534
    117  CG        11.8340   14.7380   16.6900 C.ar  298  TYR298     -0.0201
    118  CD1       12.2000   16.0790   16.7020 C.ar  298  TYR298     -0.0009
    119  CD2       12.6880   13.8700   16.0920 C.ar  298  TYR298     -0.0009
    120  CE1       13.3880   16.5210   16.1350 C.ar  298  TYR298      0.0417
    121  CE2       13.8690   14.2770   15.5190 C.ar  298  TYR298      0.0417
    122  CZ        14.2160   15.6190   15.5260 C.ar  298  TYR298      0.1957
    123  OH        15.3890   16.0660   14.9530 O.3   298  TYR298     -0.2866
    124  N          7.2910   18.2370   18.9540 N.3   301  MET301     -0.1230
    125  CA         7.5840   19.0500   17.7660 C.3   301  MET301      0.1702
    126  C          6.6140   18.7570   16.6340 C.2   301  MET301      0.2592
    127  O          6.1850   19.7050   15.9220 O.2   301  MET301     -0.2718
    128  CB         8.9930   18.8130   17.2310 C.3   301  MET301      0.0401
    129  CG        10.0720   19.3820   18.1250 C.3   301  MET301      0.0596
    130  SD        10.1300   21.1740   17.9810 S.3   301  MET301     -0.1393
    131  CE        11.6700   21.4730   18.8350 C.3   301  MET301      0.0692
    132  N          6.2780   17.4680   16.4340 N.am  302  TYR302     -0.1976
    133  CA         5.2740   17.0940   15.3970 C.3   302  TYR302      0.1639
    134  C          3.9590   17.8050   15.6820 C.2   302  TYR302      0.2290
    135  O          3.3310   18.3910   14.7620 O.2   302  TYR302     -0.2864
    136  CB         4.9890   15.5950   15.3210 C.3   302  TYR302      0.0560
    137  CG         5.9480   14.7600   14.4890 C.ar  302  TYR302     -0.0198
    138  CD1        5.8310   14.7190   13.1090 C.ar  302  TYR302     -0.0009
    139  CD2        6.8430   13.8890   15.1130 C.ar  302  TYR302     -0.0009
    140  CE1        6.6700   13.9250   12.3190 C.ar  302  TYR302      0.0417
    141  CE2        7.6870   13.1030   14.3200 C.ar  302  TYR302      0.0417
    142  CZ         7.5890   13.1160   12.9430 C.ar  302  TYR302      0.1957
    143  OH         8.4320   12.3040   12.1740 O.3   302  TYR302     -0.2866
    144  N         16.8840   22.9240   15.6180 N.3   342  GLU342     -0.1245
    145  CA        15.4360   22.9170   15.7220 C.3   342  GLU342      0.1567
    146  C         14.9180   23.9190   16.7520 C.2   342  GLU342      0.2260
    147  O         14.0680   24.7460   16.4490 O.2   342  GLU342     -0.2867
    148  CB        14.8630   21.5440   16.0020 C.3   342  GLU342      0.0388
    149  CG        15.0520   20.5540   14.8780 C.3   342  GLU342      0.1160
    150  CD        14.1460   20.7800   13.6620 C.2   342  GLU342      0.3649
    151  OE1       13.0660   21.4220   13.7490 O.co2 342  GLU342     -0.2457
    152  OE2       14.5380   20.2560   12.5980 O.co2 342  GLU342     -0.2457
@<TRIPOS>BOND
     1    73    72    2
     2     1     2    1
     3    72    71    1
     4   107   106    2
     5    70    71    1
     6    71    74    1
     7     2     3    1
     8     2     5    1
     9   106   105    1
    10    62    61    2
    11     9    10    2
    12     9     8    1
    13     3     7   am
    14     3     4    2
    15     7     8    1
    16    61    60    1
    17    12    11    1
    18     5     6    1
    19    99    98    2
    20    68    66   ar
    21    68    69   ar
    22   108   105    1
    23   108   109    1
    24   105   104    1
    25    74    75    1
    26     8    11    1
    27    66    64   ar
    28    69    67   ar
    29    98    97    1
    30   100   101    1
    31   100    97    1
    32   111   109   ar
    33   109   110   ar
    34    60    59    1
    35    60    63    1
    36    64    63    1
    37    64    65   ar
    38   103   101   am
    39   101   102    2
    40    97    96    1
    41    67    65   ar
    42   143   142    1
    43    87    86    1
    44   140   142   ar
    45   140   138   ar
    46   152   150   ar
    47    58    55    1
    48    91    90    2
    49   142   141   ar
    50    85    86   ar
    51    85    83   ar
    52   138   137   ar
    53    86    84   ar
    54    42    41   ar
    55   150   151   ar
    56   150   149    1
    57    20    18    1
    58    90    89    1
    59    39    38    2
    60    83    81   ar
    61    84    82   ar
    62    19    18    1
    63    57    56    2
    64    55    54    1
    65    55    56    1
    66    54    46   am
    67   141   139   ar
    68    50    52   ar
    69    50    49   ar
    70    52    53   ar
    71   137   139   ar
    72   137   136    1
    73    41    43   ar
    74    41    40    1
    75    92    89    1
    76    92    93    1
    77    38    37    1
    78    38    44   am
    79    18    17    1
    80   135   134    2
    81    45    46    1
    82    45    44    1
    83    45    48    1
    84    46    47    2
    85   149   148    1
    86    89    88    1
    87   123   122    1
    88    81    82   ar
    89    81    80    1
    90    94    93    1
    91    94    95    1
    92    37    40    1
    93    37    36    1
    94    30    29    2
    95   136   133    1
    96   133   134    1
    97   133   132    1
    98   121   122   ar
    99   121   119   ar
   100   122   120   ar
   101    49    48    1
   102    49    51   ar
   103   144   145    1
   104   145   148    1
   105   145   146    1
   106    53    51   ar
   107   127   126    2
   108    17    14    1
   109    29    36   am
   110    29    28    1
   111    80    77    1
   112   119   117   ar
   113   120   118   ar
   114    79    78    2
   115   132   126   am
   116   147   146    2
   117    24    23    2
   118   126   125    1
   119   117   118   ar
   120   117   116    1
   121    14    13    1
   122    14    15    1
   123    28    31    1
   124    28    27    1
   125    78    77    1
   126   128   125    1
   127   128   129    1
   128   116   113    1
   129    77    76    1
   130    23    27   am
   131    23    22    1
   132   115   114    2
   133    21    15   am
   134    21    22    1
   135   125   124    1
   136    15    16    2
   137    31    32    1
   138   130   129    1
   139   130   131    1
   140    26    25    1
   141   113   114    1
   142   113   112    1
   143    22    25    1
   144    32    33    1
   145    35    33   ar
   146    33    34   ar
