@<TRIPOS>MOLECULE
tmp/5ddgA00.pdb
 126 120 0 0 0
SMALL
GASTEIGER

@<TRIPOS>ATOM
      1  N        -20.6440   50.2860   18.5010 N.3    14  GLY14      -0.1210
      2  CA       -21.2440   49.6400   19.6350 C.3    14  GLY14       0.1956
      3  C        -20.9630   50.4300   20.8890 C.2    14  GLY14       0.2612
      4  O        -20.0020   51.2060   20.9550 O.2    14  GLY14      -0.2717
      5  N        -21.8260   50.2300   21.8810 N.am   15  ILE15      -0.1965
      6  CA       -21.6630   50.7940   23.2050 C.3    15  ILE15       0.1727
      7  C        -21.6240   49.6460   24.1940 C.2    15  ILE15       0.2616
      8  O        -22.3530   48.6760   24.0300 O.2    15  ILE15      -0.2715
      9  CB       -22.8520   51.6790   23.5650 C.3    15  ILE15       0.0290
     10  CG1      -22.9400   52.8700   22.6260 C.3    15  ILE15       0.0022
     11  CG2      -22.7280   52.1820   24.9890 C.3    15  ILE15       0.0023
     12  CD1      -21.8040   53.8590   22.7860 C.3    15  ILE15       0.0001
     13  N        -20.7930   49.7650   25.2230 N.am   16  ASP16      -0.1971
     14  CA       -20.6780   48.7280   26.2310 C.3    16  ASP16       0.1709
     15  C        -20.4910   49.3330   27.6050 C.2    16  ASP16       0.2293
     16  O        -19.6430   50.2000   27.7860 O.2    16  ASP16      -0.2864
     17  CB       -19.5060   47.8230   25.8990 C.3    16  ASP16       0.1436
     18  CG       -19.8470   46.8150   24.8350 C.2    16  ASP16       0.3671
     19  OD1      -20.9250   46.2020   24.9630 O.co2  16  ASP16      -0.2456
     20  OD2      -19.0590   46.6280   23.8820 O.co2  16  ASP16      -0.2456
     21  N        -26.6950   36.4600   28.4980 N.3    34  ARG34      -0.1245
     22  CA       -27.2800   36.9380   27.2380 C.3    34  ARG34       0.1563
     23  C        -28.4730   36.1320   26.7690 C.2    34  ARG34       0.2260
     24  O        -28.3530   34.9390   26.5320 O.2    34  ARG34      -0.2867
     25  CB       -26.2300   36.9720   26.1310 C.3    34  ARG34       0.0307
     26  CG       -25.0910   37.9380   26.4140 C.3    34  ARG34       0.0489
     27  CD       -23.9550   37.7250   25.4410 C.3    34  ARG34       0.2205
     28  NE       -24.3870   38.0420   24.0900 N.pl3  34  ARG34      -0.0865
     29  CZ       -24.4810   39.2730   23.6190 C.cat  34  ARG34       0.5346
     30  NH1      -24.8850   39.4710   22.3690 N.pl3  34  ARG34       0.1354
     31  NH2      -24.1620   40.3030   24.3920 N.pl3  34  ARG34       0.1354
     32  N        -25.4730   37.2930   19.3270 N.3    38  PRO38      -0.2116
     33  CA       -24.4350   36.2970   19.4170 C.3    38  PRO38       0.1372
     34  C        -24.1230   35.9330   20.8450 C.2    38  PRO38       0.2244
     35  O        -24.4640   36.6640   21.7600 O.2    38  PRO38      -0.2868
     36  CB       -23.2330   37.0150   18.8170 C.3    38  PRO38       0.0268
     37  CG       -23.4660   38.4270   19.1670 C.3    38  PRO38       0.0207
     38  CD       -24.9290   38.5860   18.9010 C.3    38  PRO38       0.0892
     39  N        -21.2390   42.2990   29.1870 N.3    44  LEU44      -0.1245
     40  CA       -21.6150   43.6270   29.6200 C.3    44  LEU44       0.1561
     41  C        -22.9080   44.0220   28.9430 C.2    44  LEU44       0.2260
     42  O        -23.3330   43.3890   27.9990 O.2    44  LEU44      -0.2867
     43  CB       -20.5400   44.6160   29.2190 C.3    44  LEU44       0.0270
     44  CG       -19.1320   44.3290   29.7320 C.3    44  LEU44       0.0019
     45  CD1      -18.1480   45.2170   28.9940 C.3    44  LEU44       0.0001
     46  CD2      -19.0170   44.5590   31.2260 C.3    44  LEU44       0.0001
     47  N        -24.9020   46.2720   26.4550 N.3    45  GLY45      -0.1210
     48  CA       -24.4380   46.9590   25.2680 C.3    45  GLY45       0.1956
     49  C        -25.5310   47.4400   24.3520 C.2    45  GLY45       0.2612
     50  O        -26.7060   47.2130   24.6040 O.2    45  GLY45      -0.2717
     51  N        -25.1180   48.1220   23.2880 N.am   46  GLY46      -0.1942
     52  CA       -26.0280   48.6260   22.2670 C.3    46  GLY46       0.2014
     53  C        -25.2570   49.1980   21.0910 C.2    46  GLY46       0.2638
     54  O        -24.0740   48.9020   20.9160 O.2    46  GLY46      -0.2714
     55  N        -25.9220   50.0260   20.2960 N.am   47  PHE47      -0.1973
     56  CA       -25.3190   50.6330   19.1220 C.3    47  PHE47       0.1639
     57  C        -25.6870   52.0920   19.0260 C.2    47  PHE47       0.2290
     58  O        -26.8330   52.4390   19.2100 O.2    47  PHE47      -0.2864
     59  CB       -25.8320   49.9440   17.8700 C.3    47  PHE47       0.0560
     60  CG       -25.2850   48.5710   17.6780 C.ar   47  PHE47      -0.0200
     61  CD1      -24.0010   48.3980   17.1960 C.ar   47  PHE47      -0.0042
     62  CD2      -26.0370   47.4550   17.9950 C.ar   47  PHE47      -0.0042
     63  CE1      -23.4800   47.1330   17.0340 C.ar   47  PHE47      -0.0003
     64  CE2      -25.5210   46.1850   17.8380 C.ar   47  PHE47      -0.0003
     65  CZ       -24.2410   46.0240   17.3590 C.ar   47  PHE47      -0.0000
     66  N        -12.6850   41.6330   16.9010 N.3    83  ARG83      -0.1231
     67  CA       -13.1570   41.6670   18.2870 C.3    83  ARG83       0.1694
     68  C        -14.5520   41.0940   18.3950 C.2    83  ARG83       0.2592
     69  O        -14.8620   40.4300   19.3780 O.2    83  ARG83      -0.2718
     70  CB       -13.1010   43.0780   18.8940 C.3    83  ARG83       0.0321
     71  CG       -13.9340   44.1640   18.2190 C.3    83  ARG83       0.0489
     72  CD       -13.9560   45.4130   19.0990 C.3    83  ARG83       0.2205
     73  NE       -14.7250   45.1590   20.3080 N.pl3  83  ARG83      -0.0865
     74  CZ       -16.0510   45.1020   20.3370 C.cat  83  ARG83       0.5346
     75  NH1      -16.7630   45.3340   19.2300 N.pl3  83  ARG83       0.1354
     76  NH2      -16.6710   44.8220   21.4780 N.pl3  83  ARG83       0.1354
     77  N        -15.3820   41.3470   17.3830 N.am   84  ASP84      -0.1974
     78  CA       -16.7050   40.7390   17.3080 C.3    84  ASP84       0.1709
     79  C        -16.7420   39.8010   16.0990 C.2    84  ASP84       0.2293
     80  O        -16.8010   40.2780   14.9670 O.2    84  ASP84      -0.2864
     81  CB       -17.7940   41.8110   17.1960 C.3    84  ASP84       0.1436
     82  CG       -19.2020   41.2230   17.2220 C.2    84  ASP84       0.3671
     83  OD1      -19.3720   40.0620   16.8020 O.co2  84  ASP84      -0.2456
     84  OD2      -20.1460   41.9210   17.6530 O.co2  84  ASP84      -0.2456
     85  N        -17.4860   45.6230   14.4220 N.3    89  VAL89      -0.1245
     86  CA       -18.0480   46.5850   15.3390 C.3    89  VAL89       0.1561
     87  C        -16.8970   47.2330   16.0730 C.2    89  VAL89       0.2260
     88  O        -16.0500   46.5520   16.6740 O.2    89  VAL89      -0.2867
     89  CB       -18.9260   45.8860   16.3750 C.3    89  VAL89       0.0252
     90  CG1      -19.4940   46.8940   17.3570 C.3    89  VAL89       0.0019
     91  CG2      -20.0350   45.1010   15.6930 C.3    89  VAL89       0.0019
     92  N        -16.3860   49.3690   19.2660 N.3    91  SER91      -0.1217
     93  CA       -17.2130   49.6300   20.4420 C.3    91  SER91       0.1889
     94  C        -16.5800   50.6250   21.3690 C.2    91  SER91       0.2288
     95  O        -15.4240   50.4750   21.7580 O.2    91  SER91      -0.2866
     96  CB       -17.4880   48.3660   21.2380 C.3    91  SER91       0.2089
     97  OG       -18.5330   48.6090   22.1660 O.3    91  SER91      -0.2183
     98  N        -17.6940   37.5280   27.1590 N.3   125  ILE125     -0.1231
     99  CA       -17.4720   37.3990   25.7440 C.3   125  ILE125      0.1692
    100  C        -16.4680   38.3980   25.1860 C.2   125  ILE125      0.2592
    101  O        -16.1400   39.4040   25.8110 O.2   125  ILE125     -0.2718
    102  CB       -18.7840   37.5570   24.9600 C.3   125  ILE125      0.0266
    103  CG1      -19.3730   38.9560   25.1070 C.3   125  ILE125      0.0019
    104  CG2      -19.8010   36.5440   25.4360 C.3   125  ILE125      0.0020
    105  CD1      -20.5680   39.1780   24.1820 C.3   125  ILE125      0.0001
    106  N        -15.9770   38.0810   23.9990 N.am  126  PHE126     -0.1976
    107  CA       -15.2880   39.0400   23.1460 C.3   126  PHE126      0.1639
    108  C        -14.1650   39.7120   23.9290 C.2   126  PHE126      0.2290
    109  O        -13.4560   39.0230   24.6590 O.2   126  PHE126     -0.2864
    110  CB       -16.2670   40.0750   22.5870 C.3   126  PHE126      0.0560
    111  CG       -17.4190   39.5030   21.8180 C.ar  126  PHE126     -0.0200
    112  CD1      -17.5430   38.1440   21.5620 C.ar  126  PHE126     -0.0042
    113  CD2      -18.3840   40.3650   21.3170 C.ar  126  PHE126     -0.0042
    114  CE1      -18.6200   37.6630   20.8440 C.ar  126  PHE126     -0.0003
    115  CE2      -19.4570   39.8950   20.5910 C.ar  126  PHE126     -0.0003
    116  CZ       -19.5780   38.5410   20.3520 C.ar  126  PHE126     -0.0000
    117  N        -14.6410   41.9240   26.3220 N.3   128  HIS128     -0.1241
    118  CA       -15.2260   42.5640   27.4880 C.3   128  HIS128      0.1621
    119  C        -14.3120   42.5390   28.7120 C.2   128  HIS128      0.2264
    120  O        -14.2530   43.5160   29.4550 O.2   128  HIS128     -0.2867
    121  CB       -16.5820   41.9690   27.7750 C.3   128  HIS128      0.0745
    122  CG       -17.6100   42.3520   26.7560 C.ar  128  HIS128      0.0817
    123  ND1      -18.9580   42.1490   26.9430 N.ar  128  HIS128     -0.2268
    124  CD2      -17.4890   42.9550   25.5530 C.ar  128  HIS128      0.1154
    125  CE1      -19.6250   42.5900   25.8950 C.ar  128  HIS128      0.1986
    126  NE2      -18.7560   43.0850   25.0350 N.ar  128  HIS128     -0.2212
@<TRIPOS>BOND
     1    85    86    1
     2    80    79    2
     3    86    87    1
     4    86    89    1
     5    91    89    1
     6    87    88    2
     7    79    78    1
     8    89    90    1
     9    83    82   ar
    10    66    67    1
    11    63    61   ar
    12    63    65   ar
    13    61    60   ar
    14    81    82    1
    15    81    78    1
    16    82    84   ar
    17    78    77    1
    18    65    64   ar
    19    77    68   am
    20    60    59    1
    21    60    62   ar
    22    64    62   ar
    23    59    56    1
    24    71    70    1
    25    71    72    1
    26    67    68    1
    27    67    70    1
    28    68    69    2
    29     1     2    1
    30    36    37    1
    31    36    33    1
    32    38    37    1
    33    38    32    1
    34    57    56    1
    35    57    58    2
    36    72    73    1
    37    56    55    1
    38    75    74    1
    39    92    93    1
    40    32    33    1
    41    33    34    1
    42     2     3    1
    43    55    53   am
    44    73    74    2
    45    74    76    1
    46   116   115   ar
    47   116   114   ar
    48    93    96    1
    49    93    94    1
    50   115   113   ar
    51   114   112   ar
    52    34    35    2
    53     3     4    2
    54     3     5   am
    55    54    53    2
    56    53    52    1
    57    96    97    1
    58   113   111   ar
    59    94    95    2
    60   112   111   ar
    61   111   110    1
    62     5     6    1
    63    52    51    1
    64    30    29    1
    65   110   107    1
    66    10    12    1
    67    10     9    1
    68   107   108    1
    69   107   106    1
    70     6     9    1
    71     6     7    1
    72    51    49   am
    73     9    11    1
    74    29    28    2
    75    29    31    1
    76    20    18   ar
    77   108   109    2
    78   106   100   am
    79     8     7    2
    80    28    27    1
    81   105   103    1
    82     7    13   am
    83    49    50    2
    84    49    48    1
    85    18    19   ar
    86    18    17    1
    87   102   103    1
    88   102   104    1
    89   102    99    1
    90   126   124   ar
    91   126   125   ar
    92   100    99    1
    93   100   101    2
    94    13    14    1
    95    48    47    1
    96    27    26    1
    97   124   122   ar
    98    99    98    1
    99   125   123   ar
   100    17    14    1
   101    25    26    1
   102    25    22    1
   103    14    15    1
   104   117   118    1
   105    24    23    2
   106   122   123   ar
   107   122   121    1
   108    23    22    1
   109    22    21    1
   110   118   121    1
   111   118   119    1
   112    15    16    2
   113    42    41    2
   114   119   120    2
   115    41    40    1
   116    45    44    1
   117    39    40    1
   118    43    40    1
   119    43    44    1
   120    44    46    1
