@<TRIPOS>MOLECULE
tmp/5ddkA00.pdb
 191 184 0 0 0
SMALL
GASTEIGER

@<TRIPOS>ATOM
      1  N          3.0350   -4.9410   18.2520 N.3    91  PHE91      -0.1241
      2  CA         2.2590   -6.1240   18.6040 C.3    91  PHE91       0.1605
      3  C          3.1370   -7.3660   18.5640 C.2    91  PHE91       0.2264
      4  O          3.9220   -7.5520   17.6340 O.2    91  PHE91      -0.2867
      5  CB         1.0610   -6.2720   17.6560 C.3    91  PHE91       0.0534
      6  CG         0.0350   -7.2780   18.1120 C.ar   91  PHE91      -0.0203
      7  CD1       -0.9940   -6.9030   18.9620 C.ar   91  PHE91      -0.0042
      8  CD2        0.0870   -8.5890   17.6720 C.ar   91  PHE91      -0.0042
      9  CE1       -1.9460   -7.8260   19.3770 C.ar   91  PHE91      -0.0003
     10  CE2       -0.8550   -9.5130   18.0800 C.ar   91  PHE91      -0.0003
     11  CZ        -1.8750   -9.1310   18.9350 C.ar   91  PHE91      -0.0000
     12  N         -8.2570  -11.7660   16.3900 N.3   269  VAL269     -0.1231
     13  CA        -7.3810  -12.9160   16.5320 C.3   269  VAL269      0.1692
     14  C         -7.6990  -13.6270   17.8470 C.2   269  VAL269      0.2593
     15  O         -7.8930  -12.9840   18.8830 O.2   269  VAL269     -0.2718
     16  CB        -5.8850  -12.5150   16.4720 C.3   269  VAL269      0.0266
     17  CG1       -5.5760  -11.8290   15.1470 C.3   269  VAL269      0.0020
     18  CG2       -5.5050  -11.6080   17.6390 C.3   269  VAL269      0.0020
     19  N         -7.7890  -14.9540   17.8000 N.am  270  GLY270     -0.1942
     20  CA        -8.0890  -15.7270   18.9900 C.3   270  GLY270      0.2014
     21  C         -8.8440  -17.0180   18.7310 C.2   270  GLY270      0.2639
     22  O         -9.1720  -17.3380   17.5910 O.2   270  GLY270     -0.2714
     23  N         -9.1260  -17.7500   19.8060 N.am  271  ASN271     -0.1958
     24  CA        -9.7540  -19.0670   19.7240 C.3   271  ASN271      0.1819
     25  C        -11.2790  -19.0150   19.6450 C.2   271  ASN271      0.2621
     26  O        -11.9110  -19.9100   19.0810 O.2   271  ASN271     -0.2715
     27  CB        -9.3470  -19.9160   20.9320 C.3   271  ASN271      0.1195
     28  CG        -7.8530  -19.8900   21.1880 C.2   271  ASN271      0.2630
     29  OD1       -7.0500  -20.0590   20.2730 O.2   271  ASN271     -0.2716
     30  ND2       -7.4730  -19.6690   22.4400 N.am  271  ASN271     -0.0877
     31  N        -11.8660  -17.9770   20.2320 N.am  272  VAL272     -0.1977
     32  CA       -13.3160  -17.8250   20.2350 C.3   272  VAL272      0.1596
     33  C        -13.8070  -17.4760   18.8360 C.2   272  VAL272      0.2287
     34  O        -14.9330  -17.7990   18.4580 O.2   272  VAL272     -0.2864
     35  CB       -13.7640  -16.7370   21.2260 C.3   272  VAL272      0.0276
     36  CG1      -15.1910  -16.9890   21.6770 C.3   272  VAL272      0.0022
     37  CG2      -12.8350  -16.7110   22.4240 C.3   272  VAL272      0.0022
     38  N        -14.3330   -9.1170   18.9040 N.3   360  ASN360     -0.1225
     39  CA       -13.0090   -9.2480   19.5010 C.3   360  ASN360      0.1785
     40  C        -13.0050   -9.9590   20.8470 C.2   360  ASN360      0.2598
     41  O        -14.0090   -9.9830   21.5610 O.2   360  ASN360     -0.2718
     42  CB       -12.3700   -7.8670   19.6470 C.3   360  ASN360      0.1169
     43  CG       -12.1070   -7.2140   18.3080 C.2   360  ASN360      0.2627
     44  OD1      -11.1370   -7.5460   17.6290 O.2   360  ASN360     -0.2716
     45  ND2      -12.9770   -6.2920   17.9140 N.am  360  ASN360     -0.0877
     46  N        -11.8620  -10.5470   21.1800 N.am  361  GLY361     -0.1942
     47  CA       -11.7010  -11.2120   22.4520 C.3   361  GLY361      0.2014
     48  C        -11.3800  -10.1840   23.5110 C.2   361  GLY361      0.2639
     49  O        -11.2070   -9.0020   23.2060 O.2   361  GLY361     -0.2714
     50  N        -11.3070  -10.6300   24.7590 N.am  362  MET362     -0.1963
     51  CA       -10.9240   -9.7490   25.8490 C.3   362  MET362      0.1736
     52  C        -10.3440  -10.5370   27.0070 C.2   362  MET362      0.2616
     53  O        -10.6650  -11.7070   27.1990 O.2   362  MET362     -0.2715
     54  CB       -12.1220   -8.9220   26.3330 C.3   362  MET362      0.0427
     55  CG       -13.2300   -9.7290   26.9920 C.3   362  MET362      0.0599
     56  SD       -14.5180   -8.6750   27.6970 S.3   362  MET362     -0.1393
     57  CE       -15.4350   -9.8550   28.6860 C.3   362  MET362      0.0692
     58  N         -9.4750   -9.8830   27.7660 N.am  363  ILE363     -0.1963
     59  CA        -9.0330  -10.4130   29.0440 C.3   363  ILE363      0.1727
     60  C        -10.2060  -10.3800   30.0110 C.2   363  ILE363      0.2616
     61  O        -10.6380  -11.4100   30.5270 O.2   363  ILE363     -0.2715
     62  CB        -7.8600   -9.5970   29.6290 C.3   363  ILE363      0.0290
     63  CG1       -6.6530   -9.6350   28.6870 C.3   363  ILE363      0.0022
     64  CG2       -7.4950  -10.0990   31.0200 C.3   363  ILE363      0.0023
     65  CD1       -6.0430  -11.0060   28.5280 C.3   363  ILE363      0.0001
     66  N        -10.7350   -9.1820   30.2280 N.am  364  GLU364     -0.1977
     67  CA       -11.7740   -8.9860   31.2250 C.3   364  GLU364      0.1602
     68  C        -12.5760   -7.7200   30.9600 C.2   364  GLU364      0.2287
     69  O        -12.1320   -6.8210   30.2450 O.2   364  GLU364     -0.2864
     70  CB       -11.1550   -8.9130   32.6280 C.3   364  GLU364      0.0415
     71  CG       -10.3640   -7.6310   32.8630 C.3   364  GLU364      0.1163
     72  CD        -9.5740   -7.6250   34.1640 C.2   364  GLU364      0.3649
     73  OE1       -9.8460   -8.4670   35.0430 O.co2 364  GLU364     -0.2457
     74  OE2       -8.6740   -6.7680   34.3040 O.co2 364  GLU364     -0.2457
     75  N         -7.9420   -5.6940   27.2500 N.3   373  SER373     -0.1217
     76  CA        -7.5330   -6.6320   26.2060 C.3   373  SER373      0.1889
     77  C         -6.0690   -7.0330   26.3170 C.2   373  SER373      0.2288
     78  O         -5.5930   -7.8570   25.5350 O.2   373  SER373     -0.2866
     79  CB        -7.7670   -6.0340   24.8110 C.3   373  SER373      0.2089
     80  OG        -9.1410   -5.8310   24.5440 O.3   373  SER373     -0.2183
     81  N         -2.7430   -8.2810   32.1850 N.3   376  VAL376     -0.1231
     82  CA        -3.2170   -9.1090   33.2860 C.3   376  VAL376      0.1692
     83  C         -2.7750   -8.5200   34.6310 C.2   376  VAL376      0.2591
     84  O         -1.5980   -8.1960   34.8240 O.2   376  VAL376     -0.2718
     85  CB        -2.7170  -10.5570   33.1320 C.3   376  VAL376      0.0266
     86  CG1       -3.2460  -11.4380   34.2550 C.3   376  VAL376      0.0020
     87  CG2       -3.1410  -11.1090   31.7770 C.3   376  VAL376      0.0020
     88  N         -3.7390   -8.3710   35.5400 N.am  377  MET377     -0.1979
     89  CA        -3.5620   -7.6800   36.8230 C.3   377  MET377      0.1605
     90  C         -3.1850   -6.2110   36.6270 C.2   377  MET377      0.2287
     91  O         -2.8160   -5.5270   37.5820 O.2   377  MET377     -0.2864
     92  CB        -2.5100   -8.3770   37.6940 C.3   377  MET377      0.0413
     93  CG        -2.8130   -9.8360   37.9870 C.3   377  MET377      0.0598
     94  SD        -4.3540  -10.0560   38.8940 S.3   377  MET377     -0.1393
     95  CE        -5.2400  -11.1420   37.7860 C.3   377  MET377      0.0692
     96  N         -0.0960   -9.2900   27.7730 N.3   382  MET382     -0.1230
     97  CA        -0.3820  -10.5000   27.0130 C.3   382  MET382      0.1702
     98  C          0.1660  -10.3210   25.5940 C.2   382  MET382      0.2592
     99  O          1.3400  -10.5910   25.3450 O.2   382  MET382     -0.2718
    100  CB        -1.8860  -10.7970   26.9930 C.3   382  MET382      0.0401
    101  CG        -2.2710  -12.0680   26.2340 C.3   382  MET382      0.0596
    102  SD        -1.4920  -13.5570   26.8930 S.3   382  MET382     -0.1393
    103  CE        -2.1830  -13.5580   28.5490 C.3   382  MET382      0.0692
    104  N         -0.6640   -9.8330   24.6750 N.am  383  ASN383     -0.1960
    105  CA        -0.2200   -9.6280   23.2960 C.3   383  ASN383      0.1819
    106  C         -0.1050   -8.1520   22.9120 C.2   383  ASN383      0.2622
    107  O          0.9770   -7.6810   22.5600 O.2   383  ASN383     -0.2715
    108  CB        -1.1610  -10.3420   22.3220 C.3   383  ASN383      0.1195
    109  CG        -1.3050  -11.8230   22.6310 C.2   383  ASN383      0.2630
    110  OD1       -0.3210  -12.5060   22.9130 O.2   383  ASN383     -0.2716
    111  ND2       -2.5370  -12.3220   22.5900 N.am  383  ASN383     -0.0877
    112  N         -1.2220   -7.4320   22.9800 N.am  384  GLY384     -0.1940
    113  CA        -1.2650   -6.0230   22.6220 C.3   384  GLY384      0.2014
    114  C         -2.6620   -5.6440   22.1720 C.2   384  GLY384      0.2639
    115  O         -3.4790   -6.5220   21.9070 O.2   384  GLY384     -0.2714
    116  N         -2.9530   -4.3480   22.0930 N.am  385  ILE385     -0.1963
    117  CA        -4.3050   -3.9110   21.7500 C.3   385  ILE385      0.1727
    118  C         -4.6430   -4.2630   20.2960 C.2   385  ILE385      0.2617
    119  O         -5.8000   -4.5260   19.9600 O.2   385  ILE385     -0.2715
    120  CB        -4.4920   -2.3850   21.9960 C.3   385  ILE385      0.0290
    121  CG1       -5.9710   -1.9960   21.8840 C.3   385  ILE385      0.0022
    122  CG2       -3.6280   -1.5540   21.0480 C.3   385  ILE385      0.0023
    123  CD1       -6.2770   -0.5950   22.3880 C.3   385  ILE385      0.0001
    124  N         -3.6230   -4.2910   19.4430 N.am  386  GLY386     -0.1940
    125  CA        -3.8150   -4.6180   18.0430 C.3   386  GLY386      0.2014
    126  C         -4.7140   -3.6290   17.3200 C.2   386  GLY386      0.2639
    127  O         -4.6230   -2.4220   17.5360 O.2   386  GLY386     -0.2714
    128  N         -5.5840   -4.1380   16.4540 N.am  387  GLY387     -0.1939
    129  CA        -6.5190   -3.2820   15.7460 C.3   387  GLY387      0.2014
    130  C         -7.9010   -3.3030   16.3720 C.2   387  GLY387      0.2639
    131  O         -8.8580   -2.7840   15.7990 O.2   387  GLY387     -0.2714
    132  N         -8.0010   -3.8960   17.5580 N.am  388  SER388     -0.1949
    133  CA        -9.2800   -4.0210   18.2480 C.3   388  SER388      0.1924
    134  C         -9.8570   -2.6490   18.5720 C.2   388  SER388      0.2314
    135  O        -11.0670   -2.4620   18.5370 O.2   388  SER388     -0.2863
    136  CB        -9.1320   -4.8530   19.5240 C.3   388  SER388      0.2116
    137  OG        -8.3730   -4.1760   20.5170 O.3   388  SER388     -0.2180
    138  N        -16.1090  -10.8910   23.2080 N.3   401  LEU401     -0.1231
    139  CA       -16.4100  -12.2840   23.5070 C.3   401  LEU401      0.1693
    140  C        -15.3150  -12.9210   24.3560 C.2   401  LEU401      0.2593
    141  O        -14.1270  -12.7210   24.1010 O.2   401  LEU401     -0.2718
    142  CB       -16.5920  -13.0700   22.2050 C.3   401  LEU401      0.0284
    143  CG       -17.4930  -12.3950   21.1640 C.3   401  LEU401      0.0019
    144  CD1      -16.6670  -11.8380   20.0180 C.3   401  LEU401      0.0001
    145  CD2      -18.5640  -13.3370   20.6520 C.3   401  LEU401      0.0001
    146  N        -15.7190  -13.7010   25.3530 N.am  402  SER402     -0.1939
    147  CA       -14.7700  -14.3150   26.2740 C.3   402  SER402      0.2040
    148  C        -15.4220  -15.3940   27.1210 C.2   402  SER402      0.2485
    149  O        -16.6110  -15.3210   27.4120 O.2   402  SER402     -0.2729
    150  CB       -14.1540  -13.2480   27.1880 C.3   402  SER402      0.2129
    151  OG       -13.3910  -13.8330   28.2270 O.3   402  SER402     -0.2179
    152  N        -14.6440  -16.4100   27.5200 N.am  403  PRO403     -0.2726
    153  CA       -15.1280  -17.2960   28.5870 C.3   403  PRO403      0.1402
    154  C        -15.4250  -16.4580   29.8270 C.2   403  PRO403      0.2269
    155  O        -14.7260  -15.4660   30.0410 O.2   403  PRO403     -0.2865
    156  CB       -13.9530  -18.2520   28.8220 C.3   403  PRO403      0.0296
    157  CG       -13.1660  -18.2090   27.5490 C.3   403  PRO403      0.0237
    158  CD       -13.3210  -16.8120   27.0140 C.3   403  PRO403      0.0939
    159  N        -11.4640  -17.5130   33.8300 N.3   406  ALA406     -0.1231
    160  CA       -10.1390  -17.8360   33.3130 C.3   406  ALA406      0.1694
    161  C         -9.3760  -18.6760   34.3270 C.2   406  ALA406      0.2591
    162  O         -9.7240  -18.6960   35.5100 O.2   406  ALA406     -0.2718
    163  CB        -9.3640  -16.5640   32.9840 C.3   406  ALA406      0.0304
    164  N         -8.3450  -19.3700   33.8530 N.am  407  LYS407     -0.1980
    165  CA        -7.4590  -20.1630   34.7040 C.3   407  LYS407      0.1596
    166  C         -8.2070  -21.1900   35.5510 C.2   407  LYS407      0.2287
    167  O         -8.1250  -21.1730   36.7780 O.2   407  LYS407     -0.2864
    168  CB        -6.6320  -19.2420   35.6070 C.3   407  LYS407      0.0298
    169  CG        -5.7420  -18.2940   34.8240 C.3   407  LYS407      0.0038
    170  CD        -4.6490  -17.7010   35.6840 C.3   407  LYS407      0.0206
    171  CE        -3.7380  -16.8120   34.8530 C.3   407  LYS407      0.1093
    172  NZ        -3.0040  -17.5880   33.8120 N.3   407  LYS407     -0.1314
    173  N        -10.1640  -17.3150   38.0690 N.3   411  ILE411     -0.1231
    174  CA       -10.3080  -15.9000   37.7450 C.3   411  ILE411      0.1692
    175  C        -11.6770  -15.6280   37.1310 C.2   411  ILE411      0.2593
    176  O        -12.1560  -16.3990   36.3030 O.2   411  ILE411     -0.2718
    177  CB        -9.1950  -15.4270   36.7800 C.3   411  ILE411      0.0266
    178  CG1       -7.8730  -15.2640   37.5350 C.3   411  ILE411      0.0019
    179  CG2       -9.5740  -14.1150   36.0990 C.3   411  ILE411      0.0020
    180  CD1       -6.7480  -14.7030   36.6860 C.3   411  ILE411      0.0001
    181  N        -12.3150  -14.5420   37.5560 N.am  412  SER412     -0.1938
    182  CA       -13.5450  -14.0850   36.9190 C.3   412  SER412      0.2055
    183  C        -13.2230  -13.1000   35.8060 C.2   412  SER412      0.2642
    184  O        -12.4940  -12.1330   36.0220 O.2   412  SER412     -0.2714
    185  CB       -14.4750  -13.4290   37.9360 C.3   412  SER412      0.2130
    186  OG       -15.6430  -12.9400   37.3030 O.3   412  SER412     -0.2179
    187  N        -13.7680  -13.3430   34.6170 N.am  413  ALA413     -0.1977
    188  CA       -13.5610  -12.4360   33.4930 C.3   413  ALA413      0.1597
    189  C        -14.4440  -11.1980   33.6310 C.2   413  ALA413      0.2287
    190  O        -14.2830  -10.2310   32.8870 O.2   413  ALA413     -0.2864
    191  CB       -13.8330  -13.1420   32.1690 C.3   413  ALA413      0.0319
@<TRIPOS>BOND
     1    17    16    1
     2   129   130    1
     3   129   128    1
     4   131   130    2
     5   130   132   am
     6    12    13    1
     7   128   126   am
     8    16    13    1
     9    16    18    1
    10    13    14    1
    11   126   127    2
    12   126   125    1
    13   132   133    1
    14    22    21    2
    15    44    43    2
    16     4     3    2
    17     5     6    1
    18     5     2    1
    19     8    10   ar
    20     8     6   ar
    21    19    14   am
    22    19    20    1
    23    14    15    2
    24    45    43   am
    25   125   124    1
    26    10    11   ar
    27     6     7   ar
    28   133   134    1
    29   133   136    1
    30     1     2    1
    31    43    42    1
    32    34    33    2
    33   135   134    2
    34     3     2    1
    35    21    20    1
    36    21    23   am
    37    33    32    1
    38    38    39    1
    39    11     9   ar
    40     7     9   ar
    41    26    25    2
    42   124   118   am
    43    39    42    1
    44    39    40    1
    45   136   137    1
    46    25    24    1
    47    25    31   am
    48    24    23    1
    49    24    27    1
    50   119   118    2
    51   144   143    1
    52    31    32    1
    53    32    35    1
    54    29    28    2
    55   118   117    1
    56   145   143    1
    57    40    46   am
    58    40    41    2
    59    27    28    1
    60   122   120    1
    61   143   142    1
    62    46    47    1
    63    28    30   am
    64    35    36    1
    65    35    37    1
    66   117   120    1
    67   117   116    1
    68   121   120    1
    69   121   123    1
    70   115   114    2
    71   116   114   am
    72   114   113    1
    73   142   139    1
    74   108   109    1
    75   108   105    1
    76    47    48    1
    77   107   106    2
    78   111   109   am
    79   113   112    1
    80   109   110    2
    81   106   112   am
    82   106   105    1
    83    49    48    2
    84   138   139    1
    85   105   104    1
    86   139   140    1
    87    48    50   am
    88   141   140    2
    89   140   146   am
    90    80    79    1
    91   104    98   am
    92    50    51    1
    93    79    76    1
    94    99    98    2
    95   146   147    1
    96    78    77    2
    97    98    97    1
    98    51    54    1
    99    51    52    1
   100    76    77    1
   101    76    75    1
   102   101   102    1
   103   101   100    1
   104   147   148    1
   105   147   150    1
   106    54    55    1
   107   102   103    1
   108    55    56    1
   109   100    97    1
   110    52    53    2
   111    52    58   am
   112    97    96    1
   113   158   152    1
   114   158   157    1
   115   148   149    2
   116   148   152   am
   117   150   151    1
   118   152   153    1
   119   157   156    1
   120    56    57    1
   121    58    59    1
   122    65    63    1
   123   153   156    1
   124   153   154    1
   125    63    62    1
   126    59    62    1
   127    59    60    1
   128    62    64    1
   129   154   155    2
   130    60    66   am
   131    60    61    2
   132    66    67    1
   133    69    68    2
   134    68    67    1
   135    67    70    1
   136    87    85    1
   137   191   188    1
   138    81    82    1
   139    70    71    1
   140    71    72    1
   141   190   189    2
   142   163   160    1
   143    85    82    1
   144    85    86    1
   145    82    83    1
   146   160   159    1
   147   160   161    1
   148   188   189    1
   149   188   187    1
   150   172   171    1
   151   164   161   am
   152   164   165    1
   153    72    74   ar
   154    72    73   ar
   155   161   162    2
   156   187   183   am
   157    83    84    2
   158    83    88   am
   159   165   166    1
   160   165   168    1
   161   169   168    1
   162   169   170    1
   163   171   170    1
   164    88    89    1
   165   166   167    2
   166   183   184    2
   167   183   182    1
   168   179   177    1
   169   176   175    2
   170    90    89    1
   171    90    91    2
   172   180   178    1
   173   177   178    1
   174   177   174    1
   175    89    92    1
   176   182   181    1
   177   182   185    1
   178   175   181   am
   179   175   174    1
   180   186   185    1
   181    92    93    1
   182   174   173    1
   183    95    94    1
   184    93    94    1
