@<TRIPOS>MOLECULE
tmp/5ddsA00.pdb
 122 116 0 0 0
SMALL
GASTEIGER

@<TRIPOS>ATOM
      1  N          6.8570    2.8620  -10.2460 N.3    50  PHE50      -0.1241
      2  CA         6.5430    2.0980   -9.0390 C.3    50  PHE50       0.1605
      3  C          5.2680    1.3130   -9.2020 C.2    50  PHE50       0.2264
      4  O          4.5420    1.0660   -8.2100 O.2    50  PHE50      -0.2867
      5  CB         6.4480    3.0300   -7.8210 C.3    50  PHE50       0.0534
      6  CG         7.7440    3.6940   -7.4730 C.ar   50  PHE50      -0.0203
      7  CD1        8.8710    2.9390   -7.2080 C.ar   50  PHE50      -0.0042
      8  CD2        7.8440    5.0730   -7.4180 C.ar   50  PHE50      -0.0042
      9  CE1       10.0720    3.5430   -6.8910 C.ar   50  PHE50      -0.0003
     10  CE2        9.0570    5.6840   -7.0960 C.ar   50  PHE50      -0.0003
     11  CZ        10.1620    4.9160   -6.8350 C.ar   50  PHE50      -0.0000
     12  N         -4.3680   11.7110   -5.9090 N.3   114  SER114     -0.1202
     13  CA        -3.2370   10.8470   -5.5850 C.3   114  SER114      0.2020
     14  C         -3.6510    9.7790   -4.6090 C.2   114  SER114      0.2619
     15  O         -4.7320    9.8570   -4.0040 O.2   114  SER114     -0.2717
     16  CB        -2.0980   11.6630   -5.0040 C.3   114  SER114      0.2103
     17  OG        -2.4110   12.1090   -3.6990 O.3   114  SER114     -0.2182
     18  N         -2.8000    8.7770   -4.4520 N.am  115  GLY115     -0.1942
     19  CA        -3.0780    7.6630   -3.5520 C.3   115  GLY115      0.2014
     20  C         -3.1700    8.0950   -2.1010 C.2   115  GLY115      0.2638
     21  O         -3.9830    7.5810   -1.3480 O.2   115  GLY115     -0.2714
     22  N         -2.3290    9.0530   -1.7140 N.am  116  ALA116     -0.1977
     23  CA        -2.3470    9.5710   -0.3760 C.3   116  ALA116      0.1597
     24  C         -3.6260   10.3320   -0.1180 C.2   116  ALA116      0.2287
     25  O         -4.1730   10.2890    0.9970 O.2   116  ALA116     -0.2864
     26  CB        -1.1430   10.4610   -0.1360 C.3   116  ALA116      0.0319
     27  N         -6.4380    7.6990    0.3820 N.3   119  ASN119     -0.1240
     28  CA        -6.3980    7.1410    1.7180 C.3   119  ASN119      0.1653
     29  C         -6.8760    8.1410    2.7930 C.2   119  ASN119      0.2266
     30  O         -7.4440    7.7480    3.7790 O.2   119  ASN119     -0.2867
     31  CB        -5.0220    6.6470    2.0410 C.3   119  ASN119      0.1155
     32  CG        -4.7040    5.3270    1.3630 C.2   119  ASN119      0.2627
     33  OD1       -5.5920    4.5390    1.0750 O.2   119  ASN119     -0.2716
     34  ND2       -3.4690    5.0950    1.1190 N.am  119  ASN119     -0.0877
     35  N          3.2780    1.2650    3.8790 N.3   199  PHE199     -0.1227
     36  CA         3.4170    2.5290    3.2180 C.3   199  PHE199      0.1736
     37  C          2.0620    2.9660    2.7020 C.2   199  PHE199      0.2595
     38  O          1.4810    2.3040    1.8300 O.2   199  PHE199     -0.2718
     39  CB         4.4010    2.4110    2.0700 C.3   199  PHE199      0.0547
     40  CG         4.6950    3.7170    1.3830 C.ar  199  PHE199     -0.0202
     41  CD1        5.7140    4.5430    1.8400 C.ar  199  PHE199     -0.0042
     42  CD2        3.9600    4.1190    0.2850 C.ar  199  PHE199     -0.0042
     43  CE1        5.9860    5.7460    1.2070 C.ar  199  PHE199     -0.0003
     44  CE2        4.2310    5.3290   -0.3510 C.ar  199  PHE199     -0.0003
     45  CZ         5.2380    6.1350    0.1090 C.ar  199  PHE199     -0.0000
     46  N          1.5480    4.0700    3.2320 N.am  200  HIS200     -0.1961
     47  CA         0.1850    4.5340    2.8690 C.3   200  HIS200      0.1787
     48  C          0.1690    5.9850    2.3540 C.2   200  HIS200      0.2621
     49  O         -0.9000    6.5450    2.0830 O.2   200  HIS200     -0.2715
     50  CB        -0.7550    4.3930    4.0620 C.3   200  HIS200      0.0785
     51  CG        -1.0590    2.9770    4.4180 C.ar  200  HIS200      0.0821
     52  ND1       -1.7610    2.1390    3.5820 N.ar  200  HIS200     -0.2267
     53  CD2       -0.7520    2.2490    5.5080 C.ar  200  HIS200      0.1154
     54  CE1       -1.8770    0.9550    4.1460 C.ar  200  HIS200      0.1986
     55  NE2       -1.2740    0.9930    5.3150 N.ar  200  HIS200     -0.2212
     56  N          1.3540    6.5780    2.2060 N.am  201  GLY201     -0.1940
     57  CA         1.4730    7.9720    1.7370 C.3   201  GLY201      0.2014
     58  C          2.4290    8.7920    2.5780 C.2   201  GLY201      0.2638
     59  O          2.9650    8.3080    3.6200 O.2   201  GLY201     -0.2714
     60  N          2.6530   10.0200    2.1550 N.am  202  LYS202     -0.1977
     61  CA         3.6480   10.8610    2.7660 C.3   202  LYS202      0.1596
     62  C          3.1040   12.2620    3.0620 C.2   202  LYS202      0.2287
     63  O          3.8820   13.2070    3.2880 O.2   202  LYS202     -0.2864
     64  CB         4.8760   10.9710    1.8560 C.3   202  LYS202      0.0298
     65  CG         5.6550    9.6680    1.6820 C.3   202  LYS202      0.0038
     66  CD         7.1670    9.9020    1.8260 C.3   202  LYS202      0.0206
     67  CE         7.9670    8.9830    0.9160 C.3   202  LYS202      0.1093
     68  NZ         9.3240    9.5240    0.6420 N.3   202  LYS202     -0.1314
     69  N         -2.2160   -3.2510    3.0950 N.3   274  GLU274     -0.1245
     70  CA        -1.8850   -3.4700    1.6840 C.3   274  GLU274      0.1567
     71  C         -1.8570   -4.9390    1.3820 C.2   274  GLU274      0.2260
     72  O         -1.1560   -5.6840    2.0350 O.2   274  GLU274     -0.2867
     73  CB        -0.5050   -2.8790    1.3520 C.3   274  GLU274      0.0388
     74  CG        -0.2570   -1.4900    1.8710 C.3   274  GLU274      0.1160
     75  CD         1.2300   -1.1250    1.8520 C.2   274  GLU274      0.3649
     76  OE1        1.8000   -0.8490    2.9470 O.co2 274  GLU274     -0.2457
     77  OE2        1.8290   -1.1130    0.7410 O.co2 274  GLU274     -0.2457
     78  N         -0.3330   -6.3600   -0.8930 N.3   276  VAL276     -0.1245
     79  CA         1.0900   -6.6510   -1.0940 C.3   276  VAL276      0.1561
     80  C          1.8950   -5.4490   -0.6680 C.2   276  VAL276      0.2260
     81  O          1.6260   -4.3000   -1.1150 O.2   276  VAL276     -0.2867
     82  CB         1.4010   -6.9660   -2.5780 C.3   276  VAL276      0.0252
     83  CG1        2.8280   -7.4810   -2.7300 C.3   276  VAL276      0.0019
     84  CG2        0.3970   -7.9800   -3.1290 C.3   276  VAL276      0.0019
     85  N         -5.7100   -0.6180    1.1250 N.3   307  ASP307     -0.1239
     86  CA        -4.9360    0.2610    0.2280 C.3   307  ASP307      0.1674
     87  C         -4.4460   -0.5360   -1.0360 C.2   307  ASP307      0.2266
     88  O         -3.5440   -1.3310   -0.9490 O.2   307  ASP307     -0.2867
     89  CB        -3.7310    0.8520    1.0060 C.3   307  ASP307      0.1410
     90  CG        -2.8880    1.8220    0.1600 C.2   307  ASP307      0.3668
     91  OD1       -2.9390    1.7400   -1.0920 O.co2 307  ASP307     -0.2456
     92  OD2       -2.1680    2.6710    0.7650 O.co2 307  ASP307     -0.2456
     93  N         -3.6020    1.1190   -3.9280 N.3   309  VAL309     -0.1231
     94  CA        -3.0040    2.1350   -4.7400 C.3   309  VAL309      0.1692
     95  C         -1.9160    1.5490   -5.6780 C.2   309  VAL309      0.2591
     96  O         -1.7510    2.0020   -6.8170 O.2   309  VAL309     -0.2718
     97  CB        -2.4000    3.2210   -3.8780 C.3   309  VAL309      0.0266
     98  CG1       -1.4580    4.0960   -4.6940 C.3   309  VAL309      0.0020
     99  CG2       -3.5060    4.0600   -3.2380 C.3   309  VAL309      0.0020
    100  N         -1.1970    0.5450   -5.1900 N.am  310  GLN310     -0.1979
    101  CA        -0.0990   -0.0690   -5.9530 C.3   310  GLN310      0.1601
    102  C         -0.5150   -1.4410   -6.5540 C.2   310  GLN310      0.2287
    103  O         -0.1570   -1.7680   -7.7140 O.2   310  GLN310     -0.2864
    104  CB         1.1100   -0.2400   -5.0580 C.3   310  GLN310      0.0394
    105  CG         2.3700   -0.6360   -5.7910 C.3   310  GLN310      0.0908
    106  CD         3.5960   -0.7030   -4.8890 C.2   310  GLN310      0.2608
    107  OE1        4.7120   -0.5650   -5.3530 O.2   310  GLN310     -0.2717
    108  NE2        3.3780   -0.9230   -3.5770 N.am  310  GLN310     -0.0878
    109  N         -5.1640    4.0740   -7.2860 N.3   335  ALA335     -0.1231
    110  CA        -4.4730    5.1880   -7.9610 C.3   335  ALA335      0.1694
    111  C         -3.4470    4.6830   -9.0380 C.2   335  ALA335      0.2591
    112  O         -3.7290    3.7560   -9.7910 O.2   335  ALA335     -0.2718
    113  CB        -3.7780    6.0680   -6.9360 C.3   335  ALA335      0.0304
    114  N         -2.2800    5.3210   -9.0770 N.am  336  LYS336     -0.1980
    115  CA        -1.1330    4.8670   -9.9140 C.3   336  LYS336      0.1596
    116  C         -1.5770    4.5240  -11.3910 C.2   336  LYS336      0.2287
    117  O         -1.5900    5.4200  -12.2850 O.2   336  LYS336     -0.2864
    118  CB        -0.3900    3.6600   -9.2360 C.3   336  LYS336      0.0298
    119  CG         1.0140    4.0270   -8.6220 C.3   336  LYS336      0.0038
    120  CD         1.0170    3.9840   -7.0860 C.3   336  LYS336      0.0206
    121  CE         2.4530    4.0310   -6.4960 C.3   336  LYS336      0.1093
    122  NZ         2.5120    4.5870   -5.0430 N.3   336  LYS336     -0.1314
@<TRIPOS>BOND
     1   117   116    2
     2   116   115    1
     3     1     2    1
     4   115   118    1
     5   115   114    1
     6   112   111    2
     7   118   119    1
     8     3     2    1
     9     3     4    2
    10   114   111   am
    11     2     5    1
    12   111   110    1
    13   119   120    1
    14   110   109    1
    15   110   113    1
    16     5     6    1
    17   103   102    2
    18     6     8   ar
    19     6     7   ar
    20     8    10   ar
    21     7     9   ar
    22    10    11   ar
    23   120   121    1
    24     9    11   ar
    25    96    95    2
    26   102   101    1
    27   121   122    1
    28   101   100    1
    29   101   104    1
    30    12    13    1
    31   105   104    1
    32   105   106    1
    33    95   100   am
    34    95    94    1
    35    13    16    1
    36    13    14    1
    37   107   106    2
    38    16    17    1
    39   106   108   am
    40    94    93    1
    41    94    97    1
    42    98    97    1
    43    14    18   am
    44    14    15    2
    45    18    19    1
    46    97    99    1
    47    19    20    1
    48    84    82    1
    49    83    82    1
    50    82    79    1
    51    20    22   am
    52    20    21    2
    53    22    23    1
    54    81    80    2
    55    79    78    1
    56    79    80    1
    57    91    90   ar
    58    87    88    2
    59    87    86    1
    60    23    26    1
    61    23    24    1
    62    44    45   ar
    63    44    42   ar
    64    24    25    2
    65    45    43   ar
    66    90    92   ar
    67    90    89    1
    68    86    89    1
    69    86    85    1
    70    42    40   ar
    71    27    28    1
    72    68    67    1
    73    77    75   ar
    74    67    66    1
    75    33    32    2
    76    34    32   am
    77    43    41   ar
    78    73    70    1
    79    73    74    1
    80    32    31    1
    81    71    70    1
    82    71    72    2
    83    40    41   ar
    84    40    39    1
    85    65    66    1
    86    65    64    1
    87    70    69    1
    88    28    31    1
    89    28    29    1
    90    57    56    1
    91    57    58    1
    92    38    37    2
    93    75    74    1
    94    75    76   ar
    95    64    61    1
    96    39    36    1
    97    49    48    2
    98    60    58   am
    99    60    61    1
   100    56    48   am
   101    48    47    1
   102    58    59    2
   103    37    36    1
   104    37    46   am
   105    61    62    1
   106    29    30    2
   107    47    46    1
   108    47    50    1
   109    62    63    2
   110    36    35    1
   111    52    54   ar
   112    52    51   ar
   113    50    51    1
   114    54    55   ar
   115    51    53   ar
   116    55    53   ar
