@<TRIPOS>MOLECULE
tmp/5ddwB01.pdb
 201 194 0 0 0
SMALL
GASTEIGER

@<TRIPOS>ATOM
      1  N         28.2850  -17.6700   -4.3210 N.3    13  TRP13      -0.1241
      2  CA        28.1790  -19.0000   -3.7910 C.3    13  TRP13       0.1605
      3  C         28.0210  -20.0720   -4.9210 C.2    13  TRP13       0.2264
      4  O         28.7090  -21.0700   -4.9190 O.2    13  TRP13      -0.2867
      5  CB        27.0350  -19.0820   -2.7980 C.3    13  TRP13       0.0550
      6  CG        26.7930  -20.4330   -2.3310 C.ar   13  TRP13       0.0003
      7  CD1       27.5760  -21.1570   -1.4810 C.ar   13  TRP13       0.0946
      8  CD2       25.7410  -21.2910   -2.7350 C.ar   13  TRP13       0.0152
      9  NE1       27.0720  -22.4140   -1.3290 N.ar   13  TRP13      -0.2442
     10  CE2       25.9480  -22.5330   -2.0990 C.ar   13  TRP13       0.0810
     11  CE3       24.6350  -21.1370   -3.5740 C.ar   13  TRP13       0.0012
     12  CZ2       25.0760  -23.5960   -2.2450 C.ar   13  TRP13       0.0191
     13  CZ3       23.7710  -22.2020   -3.7310 C.ar   13  TRP13       0.0001
     14  CH2       23.9940  -23.4170   -3.0670 C.ar   13  TRP13       0.0015
     15  N         12.4600  -27.5540   -9.7790 N.3    50  PHE50      -0.1241
     16  CA        12.1340  -28.3510   -8.6040 C.3    50  PHE50       0.1605
     17  C         10.8220  -29.1660   -8.8190 C.2    50  PHE50       0.2264
     18  O         10.0020  -29.3010   -7.9140 O.2    50  PHE50      -0.2867
     19  CB        12.0340  -27.4510   -7.3700 C.3    50  PHE50       0.0534
     20  CG        13.3300  -26.7500   -7.0220 C.ar   50  PHE50      -0.0203
     21  CD1       14.5050  -27.4890   -6.7890 C.ar   50  PHE50      -0.0042
     22  CD2       13.3870  -25.3580   -6.9040 C.ar   50  PHE50      -0.0042
     23  CE1       15.7340  -26.8350   -6.5460 C.ar   50  PHE50      -0.0003
     24  CE2       14.5970  -24.7140   -6.5870 C.ar   50  PHE50      -0.0003
     25  CZ        15.7770  -25.4600   -6.4460 C.ar   50  PHE50      -0.0000
     26  N          1.3310  -18.8630   -5.5970 N.3   114  SER114     -0.1202
     27  CA         2.4460  -19.7050   -5.3150 C.3   114  SER114      0.2020
     28  C          2.0100  -20.8020   -4.3630 C.2   114  SER114      0.2619
     29  O          0.9280  -20.7250   -3.7810 O.2   114  SER114     -0.2717
     30  CB         3.5530  -18.9080   -4.6770 C.3   114  SER114      0.2103
     31  OG         3.1510  -18.4470   -3.4390 O.3   114  SER114     -0.2182
     32  N          2.8620  -21.8230   -4.2150 N.am  115  GLY115     -0.1942
     33  CA         2.5570  -22.9440   -3.3810 C.3   115  GLY115      0.2014
     34  C          2.4530  -22.5400   -1.9350 C.2   115  GLY115      0.2638
     35  O          1.5780  -23.0330   -1.1940 O.2   115  GLY115     -0.2714
     36  N          3.3090  -21.6100   -1.5340 N.am  116  ALA116     -0.1977
     37  CA         3.2470  -21.0570   -0.2130 C.3   116  ALA116      0.1597
     38  C          1.9210  -20.3370    0.0280 C.2   116  ALA116      0.2287
     39  O          1.3390  -20.4470    1.1200 O.2   116  ALA116     -0.2864
     40  CB         4.4350  -20.1030    0.0300 C.3   116  ALA116      0.0319
     41  N         -0.8680  -22.9770    0.6040 N.3   119  ASN119     -0.1240
     42  CA        -0.7430  -23.5140    1.9360 C.3   119  ASN119      0.1653
     43  C         -1.1940  -22.5550    3.0010 C.2   119  ASN119      0.2266
     44  O         -1.8140  -22.9550    3.9380 O.2   119  ASN119     -0.2867
     45  CB         0.6730  -23.9770    2.2060 C.3   119  ASN119      0.1155
     46  CG         0.9820  -25.2740    1.5240 C.2   119  ASN119      0.2627
     47  OD1        0.0900  -25.9520    1.0650 O.2   119  ASN119     -0.2716
     48  ND2        2.2660  -25.6280    1.4520 N.am  119  ASN119     -0.0877
     49  N          8.7720  -29.3280    3.9660 N.3   196  PHE196     -0.1227
     50  CA         8.8800  -28.0800    3.2510 C.3   196  PHE196      0.1736
     51  C          7.4930  -27.6680    2.7680 C.2   196  PHE196      0.2595
     52  O          6.8770  -28.3690    1.9770 O.2   196  PHE196     -0.2718
     53  CB         9.8240  -28.2470    2.0640 C.3   196  PHE196      0.0547
     54  CG        10.2890  -26.9600    1.4740 C.ar  196  PHE196     -0.0202
     55  CD1        9.3790  -26.0090    1.0640 C.ar  196  PHE196     -0.0042
     56  CD2       11.6040  -26.8160    1.0710 C.ar  196  PHE196     -0.0042
     57  CE1        9.7930  -24.8580    0.4130 C.ar  196  PHE196     -0.0003
     58  CE2       12.0120  -25.6850    0.3530 C.ar  196  PHE196     -0.0003
     59  CZ        11.1060  -24.7070    0.0480 C.ar  196  PHE196     -0.0000
     60  N          6.9960  -26.5550    3.2850 N.am  197  HIS197     -0.1961
     61  CA         5.6510  -26.0780    2.9430 C.3   197  HIS197      0.1787
     62  C          5.6390  -24.6080    2.4400 C.2   197  HIS197      0.2621
     63  O          4.5520  -23.9850    2.3030 O.2   197  HIS197     -0.2715
     64  CB         4.7320  -26.2230    4.1670 C.3   197  HIS197      0.0785
     65  CG         4.4160  -27.6500    4.5180 C.ar  197  HIS197      0.0821
     66  ND1        3.9480  -28.5490    3.5890 N.ar  197  HIS197     -0.2267
     67  CD2        4.6390  -28.3590    5.6460 C.ar  197  HIS197      0.1154
     68  CE1        3.8160  -29.7310    4.1520 C.ar  197  HIS197      0.1986
     69  NE2        4.2080  -29.6370    5.4100 N.ar  197  HIS197     -0.2212
     70  N          6.8320  -24.0590    2.1620 N.am  198  GLY198     -0.1940
     71  CA         6.9620  -22.6600    1.7540 C.3   198  GLY198      0.2014
     72  C          7.7820  -21.8240    2.7290 C.2   198  GLY198      0.2638
     73  O          8.1280  -22.2840    3.8580 O.2   198  GLY198     -0.2714
     74  N          8.0840  -20.5850    2.3220 N.am  199  LYS199     -0.1977
     75  CA         9.0150  -19.7670    3.0560 C.3   199  LYS199      0.1596
     76  C          8.5000  -18.3350    3.2460 C.2   199  LYS199      0.2287
     77  O          9.2860  -17.4140    3.5060 O.2   199  LYS199     -0.2864
     78  CB        10.3820  -19.7640    2.3460 C.3   199  LYS199      0.0298
     79  CG        10.7210  -21.0880    1.6290 C.3   199  LYS199      0.0038
     80  CD        12.1600  -21.5240    1.8610 C.3   199  LYS199      0.0206
     81  CE        13.1470  -20.4310    1.5210 C.3   199  LYS199      0.1093
     82  NZ        14.4640  -20.9840    1.1110 N.3   199  LYS199     -0.1314
     83  N         16.7290  -21.6030    7.4590 N.3   212  TRP212     -0.1241
     84  CA        15.6520  -20.8840    6.7420 C.3   212  TRP212      0.1605
     85  C         14.5930  -20.3560    7.6970 C.2   212  TRP212      0.2264
     86  O         13.9960  -19.2770    7.4560 O.2   212  TRP212     -0.2867
     87  CB        15.0010  -21.7870    5.7150 C.3   212  TRP212      0.0550
     88  CG        15.8850  -22.1740    4.6310 C.ar  212  TRP212      0.0003
     89  CD1       17.1910  -21.7520    4.4230 C.ar  212  TRP212      0.0946
     90  CD2       15.5980  -23.0910    3.5870 C.ar  212  TRP212      0.0152
     91  NE1       17.7120  -22.3660    3.3300 N.ar  212  TRP212     -0.2442
     92  CE2       16.7530  -23.1750    2.7740 C.ar  212  TRP212      0.0810
     93  CE3       14.4780  -23.8390    3.2410 C.ar  212  TRP212      0.0012
     94  CZ2       16.8130  -23.9910    1.6610 C.ar  212  TRP212      0.0191
     95  CZ3       14.5430  -24.6520    2.1360 C.ar  212  TRP212      0.0001
     96  CH2       15.7120  -24.7560    1.3830 C.ar  212  TRP212      0.0015
     97  N          3.3260  -33.8390    3.1920 N.3   271  GLU271     -0.1245
     98  CA         3.6640  -34.1020    1.8140 C.3   271  GLU271      0.1567
     99  C          3.6450  -35.5850    1.5690 C.2   271  GLU271      0.2260
    100  O          4.3810  -36.3020    2.1970 O.2   271  GLU271     -0.2867
    101  CB         5.0640  -33.5630    1.4920 C.3   271  GLU271      0.0388
    102  CG         5.3200  -32.1540    1.9200 C.3   271  GLU271      0.1160
    103  CD         6.7930  -31.8320    1.9110 C.2   271  GLU271      0.3649
    104  OE1        7.3420  -31.5700    3.0060 O.co2 271  GLU271     -0.2457
    105  OE2        7.4320  -31.9290    0.8000 O.co2 271  GLU271     -0.2457
    106  N          5.1150  -37.2070   -0.8020 N.3   273  VAL273     -0.1245
    107  CA         6.5190  -37.4840   -0.9560 C.3   273  VAL273      0.1561
    108  C          7.2820  -36.2800   -0.4860 C.2   273  VAL273      0.2260
    109  O          6.9740  -35.1520   -0.8670 O.2   273  VAL273     -0.2867
    110  CB         6.8810  -37.7720   -2.4210 C.3   273  VAL273      0.0252
    111  CG1        8.3540  -38.1600   -2.5410 C.3   273  VAL273      0.0019
    112  CG2        5.9760  -38.8750   -2.9920 C.3   273  VAL273      0.0019
    113  N          9.9100  -33.8410   -0.0610 N.3   275  GLY275     -0.1210
    114  CA        11.0720  -33.2840   -0.7840 C.3   275  GLY275      0.1956
    115  C         12.1870  -32.8540    0.1290 C.2   275  GLY275      0.2612
    116  O         13.3320  -33.3100   -0.0190 O.2   275  GLY275     -0.2717
    117  N         11.8390  -32.0950    1.1680 N.am  276  GLY276     -0.1956
    118  CA        12.8350  -31.6090    2.1200 C.3   276  GLY276      0.1869
    119  C         13.5210  -32.7150    2.9170 C.2   276  GLY276      0.2309
    120  O         14.3830  -32.4390    3.7680 O.2   276  GLY276     -0.2863
    121  N         12.9860  -36.8920   -0.6410 N.3   279  MET279     -0.1245
    122  CA        12.0280  -37.5990   -1.5290 C.3   279  MET279      0.1570
    123  C         11.4810  -38.9070   -0.9060 C.2   279  MET279      0.2261
    124  O         11.1030  -39.8140   -1.6140 O.2   279  MET279     -0.2867
    125  CB        12.6720  -37.9150   -2.8890 C.3   279  MET279      0.0387
    126  CG        13.2440  -36.7000   -3.6170 C.3   279  MET279      0.0595
    127  SD        12.0450  -35.3840   -3.8750 S.3   279  MET279     -0.1393
    128  CE        13.1420  -33.9690   -4.0280 C.3   279  MET279      0.0692
    129  N         -0.2290  -31.4490    1.1180 N.3   304  ASP304     -0.1239
    130  CA         0.5400  -30.4830    0.2780 C.3   304  ASP304      0.1674
    131  C          1.0730  -31.2030   -0.9470 C.2   304  ASP304      0.2266
    132  O          2.0100  -32.0200   -0.8470 O.2   304  ASP304     -0.2867
    133  CB         1.7130  -29.8910    1.1090 C.3   304  ASP304      0.1410
    134  CG         2.5530  -28.8680    0.3270 C.2   304  ASP304      0.3668
    135  OD1        2.5680  -28.9180   -0.9410 O.co2 304  ASP304     -0.2456
    136  OD2        3.2880  -28.0670    1.0000 O.co2 304  ASP304     -0.2456
    137  N          1.9050  -29.5510   -3.7300 N.3   306  VAL306     -0.1231
    138  CA         2.5750  -28.5520   -4.5480 C.3   306  VAL306      0.1692
    139  C          3.6260  -29.2000   -5.4880 C.2   306  VAL306      0.2591
    140  O          3.7550  -28.8090   -6.6570 O.2   306  VAL306     -0.2718
    141  CB         3.2510  -27.5010   -3.6860 C.3   306  VAL306      0.0266
    142  CG1        4.2330  -26.7040   -4.5050 C.3   306  VAL306      0.0020
    143  CG2        2.2030  -26.5900   -3.0580 C.3   306  VAL306      0.0020
    144  N          4.3120  -30.2410   -4.9860 N.am  307  GLN307     -0.1979
    145  CA         5.3480  -30.9230   -5.7520 C.3   307  GLN307      0.1601
    146  C          4.8670  -32.2840   -6.3000 C.2   307  GLN307      0.2287
    147  O          5.1610  -32.6270   -7.4370 O.2   307  GLN307     -0.2864
    148  CB         6.5910  -31.1090   -4.8970 C.3   307  GLN307      0.0394
    149  CG         7.8910  -30.9680   -5.6770 C.3   307  GLN307      0.0908
    150  CD         9.1200  -31.3770   -4.8850 C.2   307  GLN307      0.2608
    151  OE1        9.9100  -32.1960   -5.3450 O.2   307  GLN307     -0.2717
    152  NE2        9.3260  -30.7500   -3.7280 N.am  307  GLN307     -0.0878
    153  N          0.4070  -26.5140   -6.8680 N.3   332  ALA332     -0.1231
    154  CA         1.0250  -25.3690   -7.5530 C.3   332  ALA332      0.1694
    155  C          2.0080  -25.8730   -8.6580 C.2   332  ALA332      0.2591
    156  O          1.6280  -26.6340   -9.5220 O.2   332  ALA332     -0.2718
    157  CB         1.7530  -24.4800   -6.5360 C.3   332  ALA332      0.0304
    158  N          3.2460  -25.4200   -8.5980 N.am  333  LYS333     -0.1980
    159  CA         4.2840  -25.8010   -9.5500 C.3   333  LYS333      0.1596
    160  C          3.7820  -26.1180  -11.0010 C.2   333  LYS333      0.2287
    161  O          3.6340  -25.1960  -11.8200 O.2   333  LYS333     -0.2864
    162  CB         5.1310  -26.9070   -8.9920 C.3   333  LYS333      0.0298
    163  CG         6.0870  -26.3910   -7.9560 C.3   333  LYS333      0.0038
    164  CD         7.1790  -27.3750   -7.5860 C.3   333  LYS333      0.0206
    165  CE         7.8610  -26.8480   -6.3190 C.3   333  LYS333      0.1093
    166  NZ         9.0550  -27.6020   -5.9380 N.3   333  LYS333     -0.1314
    167  N         25.9260  -29.8890   -3.6790 N.3   450  TYR450     -0.1241
    168  CA        26.1140  -28.7990   -4.6430 C.3   450  TYR450      0.1605
    169  C         27.4270  -28.9310   -5.3930 C.2   450  TYR450      0.2264
    170  O         27.4820  -28.6900   -6.5970 O.2   450  TYR450     -0.2867
    171  CB        26.0530  -27.4260   -3.9440 C.3   450  TYR450      0.0534
    172  CG        24.6620  -27.0430   -3.4660 C.ar  450  TYR450     -0.0201
    173  CD1       23.6610  -26.6820   -4.3780 C.ar  450  TYR450     -0.0009
    174  CD2       24.3400  -27.0720   -2.1120 C.ar  450  TYR450     -0.0009
    175  CE1       22.3750  -26.4240   -3.9530 C.ar  450  TYR450      0.0417
    176  CE2       23.0620  -26.7700   -1.6730 C.ar  450  TYR450      0.0417
    177  CZ        22.0690  -26.5040   -2.5980 C.ar  450  TYR450      0.1957
    178  OH        20.7800  -26.2350   -2.1640 O.3   450  TYR450     -0.2866
    179  N         20.7280  -30.4780   -5.4870 N.3   466  PRO466     -0.2102
    180  CA        20.5440  -31.2690   -4.2990 C.3   466  PRO466      0.1504
    181  C         19.1870  -31.0330   -3.6520 C.2   466  PRO466      0.2575
    182  O         18.5390  -30.0340   -3.9290 O.2   466  PRO466     -0.2718
    183  CB        21.6860  -30.8080   -3.3700 C.3   466  PRO466      0.0282
    184  CG        22.1080  -29.5030   -3.8780 C.3   466  PRO466      0.0208
    185  CD        21.8030  -29.4840   -5.3460 C.3   466  PRO466      0.0893
    186  N         18.7140  -32.0360   -2.9190 N.am  467  ALA467     -0.1980
    187  CA        17.6250  -31.8630   -1.9800 C.3   467  ALA467      0.1597
    188  C         18.1060  -32.0830   -0.5240 C.2   467  ALA467      0.2287
    189  O         19.1960  -32.6490   -0.2830 O.2   467  ALA467     -0.2864
    190  CB        16.4990  -32.8300   -2.3170 C.3   467  ALA467      0.0319
    191  N         18.6660  -34.7630   -6.4590 N.3   475  ARG475     -0.1245
    192  CA        17.3070  -34.8280   -6.9530 C.3   475  ARG475      0.1563
    193  C         17.2990  -35.2870   -8.4070 C.2   475  ARG475      0.2260
    194  O         18.1000  -34.8160   -9.2220 O.2   475  ARG475     -0.2867
    195  CB        16.6260  -33.4300   -6.8400 C.3   475  ARG475      0.0307
    196  CG        15.5640  -33.1790   -7.9130 C.3   475  ARG475      0.0489
    197  CD        15.1930  -31.7190   -8.0150 C.3   475  ARG475      0.2205
    198  NE        14.4430  -31.2440   -6.8550 N.pl3 475  ARG475     -0.0865
    199  CZ        13.1380  -31.4760   -6.6420 C.cat 475  ARG475      0.5346
    200  NH1       12.4360  -32.2660   -7.4640 N.pl3 475  ARG475      0.1354
    201  NH2       12.5410  -30.9390   -5.5890 N.pl3 475  ARG475      0.1354
@<TRIPOS>BOND
     1   161   160    2
     2   160   159    1
     3    15    16    1
     4   159   162    1
     5   159   158    1
     6   156   155    2
     7   194   193    2
     8   162   163    1
     9    17    16    1
    10    17    18    2
    11   155   158   am
    12   155   154    1
    13    16    19    1
    14   193   192    1
    15   197   196    1
    16   197   198    1
    17   163   164    1
    18   196   195    1
    19   164   165    1
    20   154   153    1
    21   154   157    1
    22   200   199    1
    23   147   146    2
    24    19    20    1
    25    20    22   ar
    26    20    21   ar
    27   192   195    1
    28   192   191    1
    29    22    24   ar
    30   198   199    2
    31    21    23   ar
    32   140   139    2
    33   199   201    1
    34   170   169    2
    35    24    25   ar
    36    23    25   ar
    37   165   166    1
    38   146   145    1
    39   145   144    1
    40   145   148    1
    41   149   148    1
    42   149   150    1
    43    26    27    1
    44   139   144   am
    45   139   138    1
    46   179   185    1
    47   179   180    1
    48   169   168    1
    49   185   184    1
    50   151   150    2
    51    27    30    1
    52    27    28    1
    53     3     4    2
    54     3     2    1
    55   150   152   am
    56    30    31    1
    57   168   171    1
    58   168   167    1
    59   138   137    1
    60   138   141    1
    61   142   141    1
    62   173   175   ar
    63   173   172   ar
    64    28    32   am
    65    28    29    2
    66     1     2    1
    67   180   181    1
    68   180   183    1
    69    32    33    1
    70   128   127    1
    71   175   177   ar
    72   171   172    1
    73   182   181    2
    74   184   183    1
    75   127   126    1
    76     2     5    1
    77    13    11   ar
    78    13    14   ar
    79   141   143    1
    80   181   186   am
    81   126   125    1
    82    11     8   ar
    83   172   174   ar
    84    33    34    1
    85    14    12   ar
    86   112   110    1
    87   186   187    1
    88   125   122    1
    89     5     6    1
    90     8     6   ar
    91     8    10   ar
    92   177   178    1
    93   177   176   ar
    94   111   110    1
    95   110   107    1
    96     6     7   ar
    97   190   187    1
    98    12    10   ar
    99   174   176   ar
   100    10     9   ar
   101   187   188    1
   102    34    36   am
   103    34    35    2
   104   124   123    2
   105    36    37    1
   106   122   123    1
   107   122   121    1
   108     7     9   ar
   109   107   106    1
   110   107   108    1
   111   131   132    2
   112   131   130    1
   113   135   134   ar
   114   109   108    2
   115   114   113    1
   116   114   115    1
   117   188   189    2
   118    37    38    1
   119    37    40    1
   120   116   115    2
   121    38    39    2
   122    59    58   ar
   123    59    57   ar
   124   115   117   am
   125   130   133    1
   126   130   129    1
   127   134   136   ar
   128   134   133    1
   129    58    56   ar
   130    57    55   ar
   131    41    42    1
   132   105   103   ar
   133    55    54   ar
   134    47    46    2
   135    56    54   ar
   136    82    81    1
   137   117   118    1
   138    96    94   ar
   139    96    95   ar
   140    48    46   am
   141    54    53    1
   142   101    98    1
   143   101   102    1
   144    81    80    1
   145    46    45    1
   146    99    98    1
   147    99   100    2
   148    79    80    1
   149    79    78    1
   150    94    92   ar
   151    71    70    1
   152    71    72    1
   153    98    97    1
   154   103   102    1
   155   103   104   ar
   156    42    45    1
   157    42    43    1
   158    52    51    2
   159    53    50    1
   160   118   119    1
   161    95    93   ar
   162    70    62   am
   163    63    62    2
   164    74    72   am
   165    74    75    1
   166    78    75    1
   167    62    61    1
   168    72    73    2
   169    51    50    1
   170    51    60   am
   171    92    91   ar
   172    92    90   ar
   173   119   120    2
   174    61    60    1
   175    61    64    1
   176    43    44    2
   177    75    76    1
   178    93    90   ar
   179    76    77    2
   180    50    49    1
   181    91    89   ar
   182    90    88   ar
   183    66    68   ar
   184    66    65   ar
   185    68    69   ar
   186    64    65    1
   187    89    88   ar
   188    65    67   ar
   189    88    87    1
   190    69    67   ar
   191    87    84    1
   192    84    83    1
   193    84    85    1
   194    86    85    2
