@<TRIPOS>MOLECULE
tmp/5de2B00.pdb
 147 142 0 0 0
SMALL
GASTEIGER

@<TRIPOS>ATOM
      1  N         -2.2130   25.8830   31.2070 N.3    97  ALA97      -0.1231
      2  CA        -2.5310   24.4560   31.2130 C.3    97  ALA97       0.1694
      3  C         -1.4150   23.6970   31.9150 C.2    97  ALA97       0.2593
      4  O         -1.5940   23.2720   33.0590 O.2    97  ALA97      -0.2718
      5  CB        -2.7710   23.9330   29.7860 C.3    97  ALA97       0.0304
      6  N         -0.2780   23.5590   31.2470 N.am   98  GLY98      -0.1942
      7  CA         0.8660   22.8500   31.7910 C.3    98  GLY98       0.2014
      8  C          2.1570   23.1750   31.0780 C.2    98  GLY98       0.2638
      9  O          2.1420   23.6650   29.9520 O.2    98  GLY98      -0.2714
     10  N          3.2820   22.9270   31.7450 N.am   99  ASP99      -0.1971
     11  CA         4.6030   23.2040   31.1970 C.3    99  ASP99       0.1709
     12  C          5.5680   22.0380   31.3700 C.2    99  ASP99       0.2293
     13  O          5.3300   21.1480   32.1910 O.2    99  ASP99      -0.2864
     14  CB         5.1800   24.5160   31.7680 C.3    99  ASP99       0.1436
     15  CG         5.4060   24.5430   33.2680 C.2    99  ASP99       0.3671
     16  OD1        4.5920   23.9450   34.0050 O.co2  99  ASP99      -0.2456
     17  OD2        6.3340   25.2410   33.7100 O.co2  99  ASP99      -0.2456
     18  N          6.7970   21.0830   34.8700 N.3   102  ARG102     -0.1231
     19  CA         5.8620   20.2240   35.5970 C.3   102  ARG102      0.1694
     20  C          5.9570   18.7740   35.1330 C.2   102  ARG102      0.2591
     21  O          5.9420   17.8630   35.9590 O.2   102  ARG102     -0.2718
     22  CB         4.4290   20.7530   35.4680 C.3   102  ARG102      0.0321
     23  CG         4.1360   21.7920   36.5290 C.3   102  ARG102      0.0489
     24  CD         2.7320   22.3430   36.4570 C.3   102  ARG102      0.2205
     25  NE         2.5300   23.3520   37.4990 N.pl3 102  ARG102     -0.0865
     26  CZ         2.7970   24.6480   37.3560 C.cat 102  ARG102      0.5346
     27  NH1        3.2620   25.1160   36.2040 N.pl3 102  ARG102      0.1354
     28  NH2        2.5970   25.4850   38.3650 N.pl3 102  ARG102      0.1354
     29  N          6.1020   18.5670   33.8210 N.am  103  MET103     -0.1979
     30  CA         6.2650   17.2440   33.2480 C.3   103  MET103      0.1605
     31  C          7.5290   16.5460   33.7690 C.2   103  MET103      0.2287
     32  O          7.4840   15.3410   34.0110 O.2   103  MET103     -0.2864
     33  CB         6.2790   17.3160   31.7290 C.3   103  MET103      0.0413
     34  CG         5.9840   16.0030   31.1150 C.3   103  MET103      0.0598
     35  SD         6.6140   15.9080   29.4670 S.3   103  MET103     -0.1393
     36  CE         5.1650   15.3980   28.6830 C.3   103  MET103      0.0692
     37  N          6.9030   15.8370   37.6600 N.3   106  HIS106     -0.1226
     38  CA         5.9690   14.7260   37.8370 C.3   106  HIS106      0.1752
     39  C          6.5480   13.3760   37.3570 C.2   106  HIS106      0.2596
     40  O          5.9890   12.3230   37.6740 O.2   106  HIS106     -0.2718
     41  CB         4.6010   15.0430   37.2050 C.3   106  HIS106      0.0759
     42  CG         3.8020   16.0340   38.0030 C.ar  106  HIS106      0.0818
     43  ND1        3.8800   17.3960   37.7560 N.ar  106  HIS106     -0.2268
     44  CD2        2.9590   15.8300   39.0420 C.ar  106  HIS106      0.1154
     45  CE1        3.0780   17.9700   38.6370 C.ar  106  HIS106      0.1986
     46  NE2        2.5020   17.0690   39.4330 N.ar  106  HIS106     -0.2212
     47  N          7.6810   13.3990   36.6310 N.am  107  PHE107     -0.1976
     48  CA         8.3510   12.1760   36.1730 C.3   107  PHE107      0.1639
     49  C          9.4050   11.7820   37.2230 C.2   107  PHE107      0.2290
     50  O          9.7460   10.6030   37.3450 O.2   107  PHE107     -0.2864
     51  CB         9.0230   12.3940   34.8190 C.3   107  PHE107      0.0560
     52  CG         8.3590   11.6900   33.6650 C.ar  107  PHE107     -0.0200
     53  CD1        7.3510   12.3110   32.9380 C.ar  107  PHE107     -0.0042
     54  CD2        8.7810   10.4290   33.2640 C.ar  107  PHE107     -0.0042
     55  CE1        6.7550   11.6690   31.8490 C.ar  107  PHE107     -0.0003
     56  CE2        8.1820    9.7860   32.1760 C.ar  107  PHE107     -0.0003
     57  CZ         7.1720   10.4110   31.4760 C.ar  107  PHE107     -0.0000
     58  N          7.8670   10.1330   40.3870 N.3   110  GLN110     -0.1245
     59  CA         7.4930    8.7640   40.0450 C.3   110  GLN110      0.1566
     60  C          8.7130    7.9260   39.6170 C.2   110  GLN110      0.2260
     61  O          8.5470    6.9040   38.9390 O.2   110  GLN110     -0.2867
     62  CB         6.4200    8.7700   38.9390 C.3   110  GLN110      0.0367
     63  CG         4.9950    8.9820   39.4440 C.3   110  GLN110      0.0905
     64  CD         3.9710    8.9960   38.3280 C.2   110  GLN110      0.2608
     65  OE1        4.1110    8.3290   37.2910 O.2   110  GLN110     -0.2717
     66  NE2        2.8940    9.7400   38.5330 N.am  110  GLN110     -0.0878
     67  N         10.6860    7.8330   37.3000 N.3   112  ARG112     -0.1245
     68  CA        10.5740    7.4380   35.8970 C.3   112  ARG112      0.1563
     69  C         11.3760    8.3400   34.9710 C.2   112  ARG112      0.2260
     70  O         11.3900    9.5540   35.1560 O.2   112  ARG112     -0.2867
     71  CB         9.1020    7.5070   35.4680 C.3   112  ARG112      0.0307
     72  CG         8.3320    6.2080   35.5900 C.3   112  ARG112      0.0489
     73  CD         6.9990    6.3210   34.8780 C.3   112  ARG112      0.2205
     74  NE         7.1590    6.3590   33.4210 N.pl3 112  ARG112     -0.0865
     75  CZ         6.1710    6.5930   32.5630 C.cat 112  ARG112      0.5346
     76  NH1        4.9410    6.8280   33.0010 N.pl3 112  ARG112      0.1354
     77  NH2        6.4080    6.5970   31.2560 N.pl3 112  ARG112      0.1354
     78  N         11.3640    8.5270   22.6680 N.3   117  ARG117     -0.1231
     79  CA        10.3790    8.9040   21.6530 C.3   117  ARG117      0.1694
     80  C          9.4420   10.0250   22.1590 C.2   117  ARG117      0.2592
     81  O          8.9470   10.8110   21.3480 O.2   117  ARG117     -0.2718
     82  CB         9.6180    7.6800   21.0900 C.3   117  ARG117      0.0321
     83  CG         8.6730    6.9650   22.0590 C.3   117  ARG117      0.0489
     84  CD         7.6730    6.1260   21.2890 C.3   117  ARG117      0.2205
     85  NE         6.9800    5.1550   22.1390 N.pl3 117  ARG117     -0.0865
     86  CZ         6.1730    4.1990   21.6840 C.cat 117  ARG117      0.5346
     87  NH1        5.9480    4.0740   20.3800 N.pl3 117  ARG117      0.1354
     88  NH2        5.5870    3.3590   22.5270 N.pl3 117  ARG117      0.1354
     89  N          9.2310   10.1090   23.4940 N.am  118  THR118     -0.1953
     90  CA         8.4120   11.1570   24.1090 C.3   118  THR118      0.1897
     91  C          9.2310   12.4510   24.1080 C.2   118  THR118      0.2313
     92  O          8.6610   13.5130   23.9120 O.2   118  THR118     -0.2863
     93  CB         7.9160   10.7240   25.5020 C.3   118  THR118      0.1794
     94  OG1        7.1270    9.5480   25.3640 O.3   118  THR118     -0.2208
     95  CG2        7.0720   11.7700   26.1870 C.3   118  THR118      0.0378
     96  N          9.2830   13.8640   20.3850 N.3   121  LYS121     -0.1231
     97  CA         7.9180   14.2970   20.0780 C.3   121  LYS121      0.1693
     98  C          7.7680   15.7870   20.4210 C.2   121  LYS121      0.2592
     99  O          7.2970   16.5690   19.5900 O.2   121  LYS121     -0.2718
    100  CB         6.9120   13.4630   20.9010 C.3   121  LYS121      0.0285
    101  CG         5.4930   13.4980   20.3500 C.3   121  LYS121      0.0035
    102  CD         4.4340   13.6510   21.4460 C.3   121  LYS121      0.0206
    103  CE         3.8790   12.3400   21.9590 C.3   121  LYS121      0.1093
    104  NZ         2.6710   12.5440   22.8000 N.3   121  LYS121     -0.1314
    105  N          8.2070   16.1610   21.6460 N.am  122  TYR122     -0.1976
    106  CA         8.1630   17.5060   22.2190 C.3   122  TYR122      0.1639
    107  C          9.2830   18.3920   21.6970 C.2   122  TYR122      0.2290
    108  O          9.0420   19.5670   21.3820 O.2   122  TYR122     -0.2864
    109  CB         8.2390   17.4260   23.7470 C.3   122  TYR122      0.0560
    110  CG         7.0370   16.7470   24.3540 C.ar  122  TYR122     -0.0198
    111  CD1        5.8790   17.4610   24.6300 C.ar  122  TYR122     -0.0009
    112  CD2        7.0440   15.3860   24.6280 C.ar  122  TYR122     -0.0009
    113  CE1        4.7780   16.8490   25.1820 C.ar  122  TYR122      0.0417
    114  CE2        5.9250   14.7520   25.1390 C.ar  122  TYR122      0.0417
    115  CZ         4.8040   15.5040   25.4260 C.ar  122  TYR122      0.1957
    116  OH         3.6950   15.0860   26.0460 O.3   122  TYR122     -0.2866
    117  N          2.8210   23.0720   27.3520 N.3   150  ILE150     -0.1231
    118  CA         2.2340   21.9170   26.6760 C.3   150  ILE150      0.1692
    119  C          0.7290   21.9980   26.8540 C.2   150  ILE150      0.2593
    120  O          0.2430   22.1740   27.9760 O.2   150  ILE150     -0.2718
    121  CB         2.7810   20.5390   27.1740 C.3   150  ILE150      0.0266
    122  CG1        4.3160   20.5510   27.5310 C.3   150  ILE150      0.0019
    123  CG2        2.4410   19.4190   26.1800 C.3   150  ILE150      0.0020
    124  CD1        5.3310   20.7880   26.4020 C.3   150  ILE150      0.0001
    125  N         -0.0080   21.8770   25.7480 N.am  151  THR151     -0.1939
    126  CA        -1.4760   21.9180   25.7380 C.3   151  THR151      0.2028
    127  C         -2.0340   20.5070   25.9900 C.2   151  THR151      0.2642
    128  O         -1.2860   19.5210   25.9000 O.2   151  THR151     -0.2714
    129  CB        -1.9850   22.4470   24.3840 C.3   151  THR151      0.1808
    130  OG1       -1.7450   21.4630   23.3710 O.3   151  THR151     -0.2208
    131  CG2       -1.3880   23.8070   24.0070 C.3   151  THR151      0.0379
    132  N         -3.3590   20.4160   26.2470 N.am  152  ALA152     -0.1963
    133  CA        -4.0870   19.1580   26.4500 C.3   152  ALA152      0.1728
    134  C         -3.8180   18.1630   25.3060 C.2   152  ALA152      0.2617
    135  O         -3.5870   16.9800   25.5570 O.2   152  ALA152     -0.2715
    136  CB        -5.5770   19.4430   26.5470 C.3   152  ALA152      0.0334
    137  N         -3.7870   18.6740   24.0600 N.am  153  THR153     -0.1937
    138  CA        -3.5530   17.9240   22.8210 C.3   153  THR153      0.2028
    139  C         -2.0790   17.4890   22.6530 C.2   153  THR153      0.2642
    140  O         -1.7470   16.8190   21.6650 O.2   153  THR153     -0.2714
    141  CB        -4.0150   18.7680   21.6070 C.3   153  THR153      0.1808
    142  OG1       -4.7880   19.8950   22.0360 O.3   153  THR153     -0.2208
    143  CG2       -4.7930   17.9540   20.5920 C.3   153  THR153      0.0379
    144  N         -1.2190   17.8780   23.6030 N.am  154  GLY154     -0.1954
    145  CA         0.2160   17.6090   23.5530 C.3   154  GLY154      0.1869
    146  C          0.8980   18.4980   22.5270 C.2   154  GLY154      0.2309
    147  O          1.7420   18.0320   21.7510 O.2   154  GLY154     -0.2863
@<TRIPOS>BOND
     1    99    98    2
     2    97    96    1
     3    97    98    1
     4    97   100    1
     5   101   100    1
     6   101   102    1
     7    87    86    1
     8    98   105   am
     9   143   141    1
    10    82    79    1
    11    82    83    1
    12    84    83    1
    13    84    85    1
    14    81    80    2
    15   108   107    2
    16   102   103    1
    17   141   142    1
    18   141   138    1
    19   105   106    1
    20    79    80    1
    21    79    78    1
    22   140   139    2
    23    86    85    2
    24    86    88    1
    25   107   106    1
    26   147   146    2
    27   103   104    1
    28    80    89   am
    29   106   109    1
    30   146   145    1
    31   139   138    1
    32   139   144   am
    33   138   137    1
    34   130   129    1
    35    89    90    1
    36   145   144    1
    37   109   110    1
    38    92    91    2
    39   131   129    1
    40   137   134   am
    41    91    90    1
    42    90    93    1
    43   110   112   ar
    44   110   111   ar
    45   129   126    1
    46   112   114   ar
    47   111   113   ar
    48   114   115   ar
    49   113   115   ar
    50   134   135    2
    51   134   133    1
    52    94    93    1
    53   115   116    1
    54    93    95    1
    55   126   125    1
    56   126   127    1
    57   125   119   am
    58   128   127    2
    59   127   132   am
    60   123   121    1
    61   132   133    1
    62   124   122    1
    63   133   136    1
    64   118   119    1
    65   118   121    1
    66   118   117    1
    67   119   120    2
    68   121   122    1
    69    36    35    1
    70    35    34    1
    71     5     2    1
    72     9     8    2
    73     8    10   am
    74     8     7    1
    75    34    33    1
    76    11    12    1
    77    11    10    1
    78    11    14    1
    79     1     2    1
    80     2     3    1
    81     6     7    1
    82     6     3   am
    83    77    75    1
    84    12    13    2
    85    57    55   ar
    86    57    56   ar
    87    33    30    1
    88    14    15    1
    89    55    53   ar
    90     3     4    2
    91    56    54   ar
    92    75    76    1
    93    75    74    2
    94    53    52   ar
    95    30    31    1
    96    30    29    1
    97    54    52   ar
    98    15    17   ar
    99    15    16   ar
   100    74    73    1
   101    52    51    1
   102    31    32    2
   103    29    20   am
   104    51    48    1
   105    18    19    1
   106    73    72    1
   107    69    70    2
   108    69    68    1
   109    20    19    1
   110    20    21    2
   111    22    19    1
   112    22    23    1
   113    71    72    1
   114    71    68    1
   115    68    67    1
   116    48    47    1
   117    48    49    1
   118    27    26    1
   119    24    23    1
   120    24    25    1
   121    47    39   am
   122    41    38    1
   123    41    42    1
   124    49    50    2
   125    65    64    2
   126    26    25    2
   127    26    28    1
   128    39    40    2
   129    39    38    1
   130    37    38    1
   131    43    42   ar
   132    43    45   ar
   133    42    44   ar
   134    64    66   am
   135    64    63    1
   136    45    46   ar
   137    62    63    1
   138    62    59    1
   139    61    60    2
   140    44    46   ar
   141    60    59    1
   142    59    58    1
