@<TRIPOS>MOLECULE
tmp/5de3A00.pdb
 163 156 0 0 0
SMALL
GASTEIGER

@<TRIPOS>ATOM
      1  N          8.4410   35.7830   14.4630 N.3     9  ASP9       -0.1225
      2  CA         6.9890   35.6050   14.3920 C.3     9  ASP9        0.1805
      3  C          6.3230   36.1990   15.6430 C.2     9  ASP9        0.2598
      4  O          6.8940   36.1330   16.7430 O.2     9  ASP9       -0.2718
      5  CB         6.6540   34.1150   14.2330 C.3     9  ASP9        0.1424
      6  CG         7.3240   33.2420   15.2990 C.2     9  ASP9        0.3668
      7  OD1        8.5660   33.0590   15.2520 O.co2   9  ASP9       -0.2456
      8  OD2        6.6140   32.7440   16.1970 O.co2   9  ASP9       -0.2456
      9  N          5.1530   36.8150   15.4490 N.am   10  ASN10      -0.1960
     10  CA         4.3290   37.4330   16.4960 C.3    10  ASN10       0.1819
     11  C          4.8370   38.7870   17.0430 C.2    10  ASN10       0.2621
     12  O          4.2450   39.3380   17.9730 O.2    10  ASN10      -0.2715
     13  CB         4.1250   36.4550   17.6780 C.3    10  ASN10       0.1195
     14  CG         2.8740   36.7730   18.5080 C.2    10  ASN10       0.2630
     15  OD1        1.7850   36.9740   17.9620 O.2    10  ASN10      -0.2716
     16  ND2        3.0270   36.8140   19.8260 N.am   10  ASN10      -0.0877
     17  N          5.9070   39.3400   16.4590 N.am   11  ALA11      -0.1963
     18  CA         6.4840   40.6030   16.9610 C.3    11  ALA11       0.1728
     19  C          5.6100   41.8130   16.6560 C.2    11  ALA11       0.2617
     20  O          5.6160   42.8050   17.4080 O.2    11  ALA11      -0.2715
     21  CB         7.8800   40.8250   16.3770 C.3    11  ALA11       0.0334
     22  N          4.8730   41.7160   15.5460 N.am   12  GLY12      -0.1940
     23  CA         3.9430   42.7550   15.1290 C.3    12  GLY12       0.2014
     24  C          4.2740   43.4920   13.8380 C.2    12  GLY12       0.2639
     25  O          3.8210   44.6260   13.6340 O.2    12  GLY12      -0.2714
     26  N          5.0360   42.8420   12.9680 N.am   13  LYS13      -0.1963
     27  CA         5.4780   43.4340   11.7010 C.3    13  LYS13       0.1728
     28  C          4.3190   43.8550   10.7750 C.2    13  LYS13       0.2617
     29  O          4.3030   44.9760   10.2490 O.2    13  LYS13      -0.2715
     30  CB         6.4080   42.4550   10.9620 C.3    13  LYS13       0.0311
     31  CG         7.7240   42.1420   11.7290 C.3    13  LYS13       0.0038
     32  CD         8.6500   41.1500   11.0020 C.3    13  LYS13       0.0206
     33  CE         8.0180   39.7660   10.7410 C.3    13  LYS13       0.1093
     34  NZ         7.6960   39.0090   11.9810 N.3    13  LYS13      -0.1314
     35  N          3.3540   42.9610   10.5800 N.am   14  THR14      -0.1937
     36  CA         2.2600   43.2420    9.6580 C.3    14  THR14       0.2028
     37  C          1.2960   44.2830   10.2460 C.2    14  THR14       0.2642
     38  O          0.7700   45.1430    9.5230 O.2    14  THR14      -0.2714
     39  CB         1.5060   41.9480    9.3130 C.3    14  THR14       0.1808
     40  OG1        2.4160   40.9950    8.7530 O.3    14  THR14      -0.2208
     41  CG2        0.3730   42.2270    8.3140 C.3    14  THR14       0.0379
     42  N          1.0860   44.2220   11.5590 N.am   15  THR15      -0.1950
     43  CA         0.2640   45.2110   12.2450 C.3    15  THR15       0.1897
     44  C          0.8570   46.6240   12.1040 C.2    15  THR15       0.2313
     45  O          0.1170   47.5860   11.8550 O.2    15  THR15      -0.2863
     46  CB         0.0700   44.8330   13.7390 C.3    15  THR15       0.1794
     47  OG1       -0.5040   43.5180   13.8200 O.3    15  THR15      -0.2208
     48  CG2       -0.8550   45.8250   14.4460 C.3    15  THR15       0.0378
     49  N         -6.5370   46.3940   11.4020 N.3    25  ILE25      -0.1245
     50  CA        -5.6840   45.3460   11.9440 C.3    25  ILE25       0.1561
     51  C         -6.4610   44.1780   12.5690 C.2    25  ILE25       0.2260
     52  O         -5.8510   43.1880   12.9430 O.2    25  ILE25      -0.2867
     53  CB        -4.7130   45.9050   12.9980 C.3    25  ILE25       0.0252
     54  CG1       -5.4650   46.3460   14.2540 C.3    25  ILE25       0.0019
     55  CG2       -3.8830   47.0450   12.4070 C.3    25  ILE25       0.0019
     56  CD1       -4.5540   46.9390   15.3090 C.3    25  ILE25       0.0001
     57  N         -5.8150   40.5310   10.6920 N.3    28  ILE28      -0.1231
     58  CA        -4.4610   40.0920   10.3540 C.3    28  ILE28       0.1692
     59  C         -4.1950   38.6500   10.7980 C.2    28  ILE28       0.2593
     60  O         -4.5230   38.2580   11.9180 O.2    28  ILE28      -0.2718
     61  CB        -3.4040   41.0320   10.9770 C.3    28  ILE28       0.0266
     62  CG1       -3.5350   42.4360   10.3860 C.3    28  ILE28       0.0019
     63  CG2       -1.9970   40.5070   10.7440 C.3    28  ILE28       0.0020
     64  CD1       -2.6240   43.4530   11.0390 C.3    28  ILE28       0.0001
     65  N         -3.6150   37.8620    9.9010 N.am   29  THR29      -0.1940
     66  CA        -3.2460   36.4860   10.1980 C.3    29  THR29       0.2013
     67  C         -1.7340   36.3190    9.9900 C.2    29  THR29       0.2484
     68  O         -1.1160   37.1470    9.3150 O.2    29  THR29      -0.2729
     69  CB        -4.0360   35.4900    9.3110 C.3    29  THR29       0.1807
     70  OG1       -3.6550   35.6510    7.9400 O.3    29  THR29      -0.2208
     71  CG2       -5.5370   35.7190    9.4520 C.3    29  THR29       0.0379
     72  N         -1.1310   35.2670   10.5800 N.am   30  PRO30      -0.2715
     73  CA         0.3050   35.0370   10.3660 C.3    30  PRO30       0.1536
     74  C          0.6900   35.0280    8.8920 C.2    30  PRO30       0.2599
     75  O         -0.0320   34.4750    8.0600 O.2    30  PRO30      -0.2715
     76  CB         0.5340   33.6590   10.9860 C.3    30  PRO30       0.0310
     77  CG        -0.4920   33.5660   12.0500 C.3    30  PRO30       0.0237
     78  CD        -1.7050   34.2840   11.5190 C.3    30  PRO30       0.0939
     79  N          1.8240   35.6400    8.5790 N.am   31  THR31      -0.1951
     80  CA         2.2540   35.8040    7.1970 C.3    31  THR31       0.1897
     81  C          3.0140   34.5770    6.6850 C.2    31  THR31       0.2313
     82  O          4.1160   34.2720    7.1470 O.2    31  THR31      -0.2863
     83  CB         3.1240   37.0620    7.0600 C.3    31  THR31       0.1794
     84  OG1        2.4030   38.1760    7.5820 O.3    31  THR31      -0.2208
     85  CG2        3.4780   37.3350    5.6080 C.3    31  THR31       0.0378
     86  N          7.5510   43.2360    4.0240 N.3    50  ASP50      -0.1239
     87  CA         7.2870   42.6350    5.3430 C.3    50  ASP50       0.1674
     88  C          7.3470   41.1000    5.2360 C.2    50  ASP50       0.2266
     89  O          6.4300   40.4860    4.6850 O.2    50  ASP50      -0.2867
     90  CB         5.9180   43.1420    5.8510 C.3    50  ASP50       0.1410
     91  CG         5.2350   42.2040    6.8380 C.2    50  ASP50       0.3668
     92  OD1        5.9250   41.5510    7.6470 O.co2  50  ASP50      -0.2456
     93  OD2        3.9720   42.1410    6.8110 O.co2  50  ASP50      -0.2456
     94  N          7.5340   37.0960    6.5040 N.3    52  GLY52      -0.1210
     95  CA         7.0730   36.2550    7.6040 C.3    52  GLY52       0.1956
     96  C          8.2220   35.7700    8.4790 C.2    52  GLY52       0.2612
     97  O          9.3020   35.4920    7.9630 O.2    52  GLY52      -0.2717
     98  N          7.9950   35.6740    9.7900 N.am   53  GLY53      -0.1942
     99  CA         9.0740   35.3680   10.7280 C.3    53  GLY53       0.2014
    100  C          9.1200   33.9870   11.3660 C.2    53  GLY53       0.2638
    101  O         10.0090   33.7290   12.1740 O.2    53  GLY53      -0.2714
    102  N          8.1740   33.1030   11.0430 N.am   54  GLN54      -0.1977
    103  CA         8.2190   31.7340   11.5750 C.3    54  GLN54       0.1601
    104  C          9.5310   31.0650   11.1800 C.2    54  GLN54       0.2287
    105  O         10.0140   31.2730   10.0720 O.2    54  GLN54      -0.2864
    106  CB         7.0240   30.9100   11.0730 C.3    54  GLN54       0.0394
    107  CG         5.7400   31.2240   11.7930 C.3    54  GLN54       0.0908
    108  CD         5.6340   30.5110   13.1270 C.2    54  GLN54       0.2608
    109  OE1        6.5530   29.8030   13.5520 O.2    54  GLN54      -0.2717
    110  NE2        4.5080   30.6970   13.7980 N.am   54  GLN54      -0.0878
    111  N          8.1290   47.1010   20.2180 N.3   109  ASN109     -0.1225
    112  CA         6.6670   47.1530   20.0190 C.3   109  ASN109      0.1785
    113  C          5.8490   46.6300   21.2210 C.2   109  ASN109      0.2597
    114  O          6.4020   46.0050   22.1390 O.2   109  ASN109     -0.2718
    115  CB         6.3060   46.3710   18.7430 C.3   109  ASN109      0.1169
    116  CG         4.8510   46.6060   18.2620 C.2   109  ASN109      0.2627
    117  OD1        4.2940   47.7070   18.3930 O.2   109  ASN109     -0.2716
    118  ND2        4.2570   45.5690   17.6870 N.am  109  ASN109     -0.0877
    119  N          4.5380   46.9080   21.2030 N.am  110  LYS110     -0.1980
    120  CA         3.5750   46.4340   22.2230 C.3   110  LYS110      0.1596
    121  C          3.7940   47.0650   23.5960 C.2   110  LYS110      0.2287
    122  O          3.6310   46.3990   24.6260 O.2   110  LYS110     -0.2864
    123  CB         3.6100   44.9030   22.3560 C.3   110  LYS110      0.0298
    124  CG         3.4610   44.1510   21.0200 C.3   110  LYS110      0.0038
    125  CD         3.0550   42.6890   21.2280 C.3   110  LYS110      0.0206
    126  CE         3.0890   41.8760   19.9330 C.3   110  LYS110      0.1093
    127  NZ         2.7380   40.4240   20.1800 N.3   110  LYS110     -0.1314
    128  N          1.9090   48.9570   25.0270 N.3   112  ASP112     -0.1225
    129  CA         0.5960   49.0470   25.6670 C.3   112  ASP112      0.1805
    130  C          0.3250   47.8790   26.6190 C.2   112  ASP112      0.2597
    131  O         -0.5820   47.9530   27.4510 O.2   112  ASP112     -0.2718
    132  CB        -0.5080   49.1140   24.6060 C.3   112  ASP112      0.1424
    133  CG        -0.5360   47.8870   23.7080 C.2   112  ASP112      0.3668
    134  OD1        0.2670   47.8300   22.7490 O.co2 112  ASP112     -0.2456
    135  OD2       -1.3640   46.9810   23.9500 O.co2 112  ASP112     -0.2456
    136  N          1.0980   46.8020   26.5010 N.am  113  LEU113     -0.1979
    137  CA         0.8890   45.6180   27.3410 C.3   113  LEU113      0.1596
    138  C          1.6030   45.7040   28.6930 C.2   113  LEU113      0.2287
    139  O          2.6860   46.2890   28.8160 O.2   113  LEU113     -0.2864
    140  CB         1.3370   44.3480   26.6040 C.3   113  LEU113      0.0297
    141  CG         0.5200   43.9300   25.3850 C.3   113  LEU113      0.0022
    142  CD1        1.1150   42.6960   24.7260 C.3   113  LEU113      0.0001
    143  CD2       -0.9330   43.6750   25.7870 C.3   113  LEU113      0.0001
    144  N          3.6600   51.3790   19.9770 N.3   142  SER142     -0.1202
    145  CA         2.4870   50.5090   20.0560 C.3   142  SER142      0.2020
    146  C          1.7200   50.5790   18.7440 C.2   142  SER142      0.2619
    147  O          1.1160   51.6090   18.4210 O.2   142  SER142     -0.2717
    148  CB         1.5630   50.9040   21.2180 C.3   142  SER142      0.2103
    149  OG         0.3240   50.2140   21.1240 O.3   142  SER142     -0.2182
    150  N          1.7400   49.4880   17.9880 N.am  143  ALA143     -0.1965
    151  CA         1.0700   49.4630   16.6970 C.3   143  ALA143      0.1728
    152  C         -0.4480   49.5000   16.8540 C.2   143  ALA143      0.2616
    153  O         -1.1660   49.9540   15.9600 O.2   143  ALA143     -0.2715
    154  CB         1.4810   48.2370   15.9100 C.3   143  ALA143      0.0334
    155  N         -0.9350   49.0210   17.9940 N.am  144  LYS144     -0.1977
    156  CA        -2.3770   48.9580   18.2130 C.3   144  LYS144      0.1596
    157  C         -2.9020   50.3570   18.4790 C.2   144  LYS144      0.2287
    158  O         -4.0910   50.6320   18.2790 O.2   144  LYS144     -0.2864
    159  CB        -2.7190   48.0440   19.3830 C.3   144  LYS144      0.0298
    160  CG        -4.1390   48.1770   19.9400 C.3   144  LYS144      0.0038
    161  CD        -4.4340   47.0550   20.9110 C.3   144  LYS144      0.0206
    162  CE        -5.7810   47.2400   21.5790 C.3   144  LYS144      0.1093
    163  NZ        -6.0180   48.6600   21.9480 N.3   144  LYS144     -0.1314
@<TRIPOS>BOND
     1    86    87    1
     2    89    88    2
     3    88    87    1
     4    87    90    1
     5    85    83    1
     6    90    91    1
     7    94    95    1
     8    81    82    2
     9    81    80    1
    10    93    91   ar
    11    91    92   ar
    12    83    80    1
    13    83    84    1
    14    80    79    1
    15    95    96    1
    16    70    69    1
    17    97    96    2
    18    75    74    2
    19    41    39    1
    20    96    98   am
    21    79    74   am
    22    40    39    1
    23    74    73    1
    24    69    71    1
    25    69    66    1
    26    39    36    1
    27    68    67    2
    28    38    37    2
    29    36    37    1
    30    36    35    1
    31    98    99    1
    32    65    66    1
    33    65    59   am
    34    67    66    1
    35    67    72   am
    36   105   104    2
    37    37    42   am
    38    29    28    2
    39    58    57    1
    40    58    59    1
    41    58    61    1
    42    73    72    1
    43    73    76    1
    44    62    61    1
    45    62    64    1
    46    72    78    1
    47    35    28   am
    48    99   100    1
    49    33    32    1
    50    33    34    1
    51    63    61    1
    52    28    27    1
    53    59    60    2
    54    30    27    1
    55    30    31    1
    56    76    77    1
    57    32    31    1
    58   102   100   am
    59   102   103    1
    60   106   103    1
    61   106   107    1
    62   104   103    1
    63   100   101    2
    64    49    50    1
    65    78    77    1
    66    42    43    1
    67    27    26    1
    68   107   108    1
    69    45    44    2
    70    50    51    1
    71    50    53    1
    72    44    43    1
    73    43    46    1
    74    55    53    1
    75    51    52    2
    76    26    24   am
    77    53    54    1
    78   108   109    2
    79   108   110   am
    80    25    24    2
    81    46    47    1
    82    46    48    1
    83    24    23    1
    84     5     2    1
    85     5     6    1
    86    54    56    1
    87     2     1    1
    88     2     3    1
    89    23    22    1
    90     7     6   ar
    91     6     8   ar
    92     9     3   am
    93     9    10    1
    94    22    19   am
    95     3     4    2
    96   154   151    1
    97   153   152    2
    98    21    18    1
    99    17    18    1
   100    17    11   am
   101    10    11    1
   102    10    13    1
   103    19    18    1
   104    19    20    2
   105   151   152    1
   106   151   150    1
   107   152   155   am
   108    11    12    2
   109    13    14    1
   110   118   116   am
   111    15    14    2
   112   150   146   am
   113   155   156    1
   114   156   157    1
   115   156   159    1
   116   116   117    2
   117   116   115    1
   118   158   157    2
   119   147   146    2
   120    14    16   am
   121   115   112    1
   122   146   145    1
   123   159   160    1
   124   126   127    1
   125   126   125    1
   126   160   161    1
   127   144   145    1
   128   112   111    1
   129   112   113    1
   130   145   148    1
   131   161   162    1
   132   124   125    1
   133   124   123    1
   134   149   148    1
   135   119   113   am
   136   119   120    1
   137   113   114    2
   138   162   163    1
   139   120   123    1
   140   120   121    1
   141   134   133   ar
   142   121   122    2
   143   133   135   ar
   144   133   132    1
   145   132   129    1
   146   142   141    1
   147   128   129    1
   148   141   143    1
   149   141   140    1
   150   129   130    1
   151   136   130   am
   152   136   137    1
   153   140   137    1
   154   130   131    2
   155   137   138    1
   156   138   139    2
