@<TRIPOS>MOLECULE
tmp/5dedB01.pdb
 84 79 0 0 0
SMALL
GASTEIGER

@<TRIPOS>ATOM
      1  N         14.2530   13.9670   46.1430 N.3    16  GLU16      -0.1245
      2  CA        14.0230   14.0830   47.5770 C.3    16  GLU16       0.1567
      3  C         13.6010   15.4900   47.9670 C.2    16  GLU16       0.2260
      4  O         12.7570   15.6810   48.8520 O.2    16  GLU16      -0.2867
      5  CB        15.2630   13.6940   48.3570 C.3    16  GLU16       0.0388
      6  CG        15.6790   12.2600   48.1960 C.3    16  GLU16       0.1160
      7  CD        14.5200   11.2750   48.3360 C.2    16  GLU16       0.3649
      8  OE1       13.6850   11.4270   49.2740 O.co2  16  GLU16      -0.2457
      9  OE2       14.4540   10.3410   47.4930 O.co2  16  GLU16      -0.2457
     10  N         10.1320   16.0730   46.6920 N.3    19  LYS19      -0.1245
     11  CA         9.3090   15.2220   47.5290 C.3    19  LYS19       0.1561
     12  C          8.9300   15.9870   48.7940 C.2    19  LYS19       0.2260
     13  O          7.7720   16.0200   49.1840 O.2    19  LYS19      -0.2867
     14  CB        10.0740   13.9500   47.8940 C.3    19  LYS19       0.0271
     15  CG         9.3230   12.6490   47.6310 C.3    19  LYS19       0.0035
     16  CD        10.2440   11.6040   46.9810 C.3    19  LYS19       0.0206
     17  CE        10.4640   10.3720   47.8530 C.3    19  LYS19       0.1093
     18  NZ        11.2790    9.3520   47.1380 N.3    19  LYS19      -0.1314
     19  N          5.0780   17.5080   49.2760 N.3    23  LYS23      -0.1245
     20  CA         4.4040   16.8620   50.4030 C.3    23  LYS23       0.1561
     21  C          3.9260   17.8770   51.4350 C.2    23  LYS23       0.2260
     22  O          2.9940   17.6110   52.1800 O.2    23  LYS23      -0.2867
     23  CB         5.2860   15.7950   51.0690 C.3    23  LYS23       0.0271
     24  CG         5.4290   14.5050   50.2500 C.3    23  LYS23       0.0035
     25  CD         5.8740   13.3010   51.0690 C.3    23  LYS23       0.0206
     26  CE         6.3860   12.1890   50.1410 C.3    23  LYS23       0.1093
     27  NZ         6.7930   10.9310   50.8500 N.3    23  LYS23      -0.1314
     28  N          0.2530   19.8140   50.8600 N.3    26  ARG26      -0.1245
     29  CA        -0.8870   19.1940   51.5170 C.3    26  ARG26       0.1563
     30  C         -0.9950   19.6800   52.9460 C.2    26  ARG26       0.2260
     31  O         -2.0130   20.2340   53.3590 O.2    26  ARG26      -0.2867
     32  CB        -0.7480   17.6760   51.5090 C.3    26  ARG26       0.0307
     33  CG        -1.8340   16.9720   52.2810 C.3    26  ARG26       0.0489
     34  CD        -1.7710   15.4790   52.0440 C.3    26  ARG26       0.2205
     35  NE        -2.7790   14.7540   52.8200 N.pl3  26  ARG26      -0.0865
     36  CZ        -4.0490   14.6010   52.4540 C.cat  26  ARG26       0.5346
     37  NH1       -4.4880   15.1280   51.3160 N.pl3  26  ARG26       0.1354
     38  NH2       -4.8810   13.9240   53.2300 N.pl3  26  ARG26       0.1354
     39  N         -3.7070   14.7600   47.4970 N.3    39  GLU39      -0.1231
     40  CA        -4.0100   13.6490   48.3720 C.3    39  GLU39       0.1699
     41  C         -2.6720   13.0280   48.7720 C.2    39  GLU39       0.2592
     42  O         -2.3580   12.9850   49.9620 O.2    39  GLU39      -0.2718
     43  CB        -4.9750   12.6720   47.6940 C.3    39  GLU39       0.0402
     44  CG        -5.3990   11.4820   48.5310 C.3    39  GLU39       0.1161
     45  CD        -6.1980   11.8320   49.7780 C.2    39  GLU39       0.3649
     46  OE1       -6.9650   12.8250   49.7670 O.co2  39  GLU39      -0.2457
     47  OE2       -6.0560   11.0820   50.7740 O.co2  39  GLU39      -0.2457
     48  N         -1.8590   12.5980   47.8010 N.am   40  PHE40      -0.1962
     49  CA        -0.4740   12.2430   48.1210 C.3    40  PHE40       0.1771
     50  C          0.5160   12.3930   46.9890 C.2    40  PHE40       0.2619
     51  O          0.1440   12.5820   45.8360 O.2    40  PHE40      -0.2715
     52  CB        -0.3660   10.8450   48.7090 C.3    40  PHE40       0.0574
     53  CG        -0.8740    9.7540   47.8090 C.ar   40  PHE40      -0.0200
     54  CD1       -2.2350    9.4780   47.7270 C.ar   40  PHE40      -0.0042
     55  CD2        0.0100    8.9600   47.0950 C.ar   40  PHE40      -0.0042
     56  CE1       -2.7090    8.4490   46.9310 C.ar   40  PHE40      -0.0003
     57  CE2       -0.4620    7.9370   46.2820 C.ar   40  PHE40      -0.0003
     58  CZ        -1.8270    7.6840   46.1990 C.ar   40  PHE40      -0.0000
     59  N          1.7930   12.2960   47.3430 N.am   41  VAL41      -0.1963
     60  CA         2.8870   12.5430   46.4140 C.3    41  VAL41       0.1727
     61  C          3.9010   11.4040   46.4420 C.2    41  VAL41       0.2617
     62  O          4.2160   10.8770   47.5040 O.2    41  VAL41      -0.2715
     63  CB         3.5930   13.8590   46.7710 C.3    41  VAL41       0.0290
     64  CG1        4.7250   14.1250   45.8190 C.3    41  VAL41       0.0023
     65  CG2        2.6110   15.0000   46.7160 C.3    41  VAL41       0.0023
     66  N          4.3950   11.0050   45.2740 N.am   42  THR42      -0.1937
     67  CA         5.4460   10.0000   45.2050 C.3    42  THR42       0.2028
     68  C          6.5170   10.4830   44.2700 C.2    42  THR42       0.2642
     69  O          6.2880   11.3750   43.4590 O.2    42  THR42      -0.2714
     70  CB         4.9800    8.6610   44.6120 C.3    42  THR42       0.1808
     71  OG1        4.9090    8.7840   43.1870 O.3    42  THR42      -0.2208
     72  CG2        3.6400    8.2120   45.1710 C.3    42  THR42       0.0379
     73  N          7.6850    9.8630   44.3640 N.am   43  GLY43      -0.1954
     74  CA         8.7740   10.1510   43.4540 C.3    43  GLY43       0.1869
     75  C          9.6820    8.9560   43.2440 C.2    43  GLY43       0.2309
     76  O          9.7710    8.0720   44.0960 O.2    43  GLY43      -0.2863
     77  N         -6.8800    9.7600   41.7280 N.3   143  LEU143     -0.1245
     78  CA        -6.9260    8.4150   42.2420 C.3   143  LEU143      0.1561
     79  C         -7.4220    7.3860   41.2240 C.2   143  LEU143      0.2260
     80  O         -6.9370    6.2520   41.1990 O.2   143  LEU143     -0.2867
     81  CB        -7.8340    8.3890   43.4620 C.3   143  LEU143      0.0270
     82  CG        -7.1890    8.4860   44.8380 C.3   143  LEU143      0.0019
     83  CD1       -5.8780    9.2360   44.7830 C.3   143  LEU143      0.0001
     84  CD2       -8.1740    9.1650   45.7750 C.3   143  LEU143      0.0001
@<TRIPOS>BOND
     1    80    79    2
     2    79    78    1
     3    77    78    1
     4    78    81    1
     5    71    70    1
     6    75    74    1
     7    75    76    2
     8    74    73    1
     9    69    68    2
    10    81    82    1
    11    68    73   am
    12    68    67    1
    13    70    72    1
    14    70    67    1
    15    83    82    1
    16    82    84    1
    17    67    66    1
    18    66    61   am
    19    64    63    1
    20    51    50    2
    21     1     2    1
    22    58    57   ar
    23    58    56   ar
    24    57    55   ar
    25    60    61    1
    26    60    63    1
    27    60    59    1
    28    61    62    2
    29    10    11    1
    30    65    63    1
    31    56    54   ar
    32    16    15    1
    33    16    17    1
    34    50    59   am
    35    50    49    1
    36    55    53   ar
    37    18    17    1
    38     9     7   ar
    39    39    40    1
    40    11    14    1
    41    11    12    1
    42     2     3    1
    43     2     5    1
    44    15    14    1
    45    43    40    1
    46    43    44    1
    47    54    53   ar
    48    48    49    1
    49    48    41   am
    50    53    52    1
    51     3     4    2
    52    49    52    1
    53     6     7    1
    54     6     5    1
    55     7     8   ar
    56    40    41    1
    57    44    45    1
    58    41    42    2
    59    12    13    2
    60    19    20    1
    61    46    45   ar
    62    45    47   ar
    63    26    27    1
    64    26    25    1
    65    24    25    1
    66    24    23    1
    67    20    23    1
    68    20    21    1
    69    28    29    1
    70    37    36    1
    71    21    22    2
    72    32    29    1
    73    32    33    1
    74    29    30    1
    75    34    33    1
    76    34    35    1
    77    36    35    2
    78    36    38    1
    79    30    31    2
