@<TRIPOS>MOLECULE
tmp/5dedB00.pdb
 203 190 0 0 0
SMALL
GASTEIGER

@<TRIPOS>ATOM
      1  N         10.3630    8.9370   42.1070 N.3    44  ARG44      -0.1245
      2  CA        11.2500    7.8410   41.7690 C.3    44  ARG44       0.1563
      3  C         12.3650    8.3640   40.8830 C.2    44  ARG44       0.2260
      4  O         12.2780    9.4650   40.3480 O.2    44  ARG44      -0.2867
      5  CB        10.4810    6.7590   41.0090 C.3    44  ARG44       0.0307
      6  CG        10.0600    7.1940   39.6200 C.3    44  ARG44       0.0489
      7  CD         8.6840    6.6360   39.2150 C.3    44  ARG44       0.2205
      8  NE         7.9420    7.5760   38.3680 N.pl3  44  ARG44      -0.0865
      9  CZ         7.0630    8.4720   38.8300 C.cat  44  ARG44       0.5346
     10  NH1        6.7890    8.5480   40.1450 N.pl3  44  ARG44       0.1354
     11  NH2        6.4470    9.2960   37.9760 N.pl3  44  ARG44       0.1354
     12  N         14.3940    6.8020   37.4650 N.3    46  LYS46      -0.1231
     13  CA        14.3760    5.6960   36.5250 C.3    46  LYS46       0.1678
     14  C         15.5840    4.8210   36.7970 C.2    46  LYS46       0.2434
     15  O         16.6890    5.3330   37.0050 O.2    46  LYS46      -0.2733
     16  CB        14.4230    6.2190   35.1020 C.3    46  LYS46       0.0284
     17  CG        13.4840    5.5140   34.1880 C.3    46  LYS46       0.0035
     18  CD        13.0520    6.4240   33.0520 C.3    46  LYS46       0.0206
     19  CE        11.7630    5.9150   32.4530 C.3    46  LYS46       0.1093
     20  NZ        11.2120    6.9000   31.5020 N.3    46  LYS46      -0.1314
     21  N         15.3760    3.4990   36.8390 N.am   47  PRO47      -0.2729
     22  CA        16.4870    2.5630   37.0240 C.3    47  PRO47       0.1401
     23  C         17.3520    2.5800   35.7850 C.2    47  PRO47       0.2269
     24  O         16.8180    2.7970   34.7000 O.2    47  PRO47      -0.2865
     25  CB        15.7930    1.2130   37.1520 C.3    47  PRO47       0.0296
     26  CG        14.3690    1.5200   37.4350 C.3    47  PRO47       0.0237
     27  CD        14.0800    2.8140   36.7620 C.3    47  PRO47       0.0939
     28  N         16.1540    0.8740   32.6500 N.3    50  SER50      -0.1217
     29  CA        15.0430    1.5710   32.0180 C.3    50  SER50       0.1889
     30  C         15.5320    2.7890   31.2570 C.2    50  SER50       0.2288
     31  O         14.9930    3.1310   30.2120 O.2    50  SER50      -0.2866
     32  CB        14.0200    2.0120   33.0660 C.3    50  SER50       0.2089
     33  OG        13.4340    0.8990   33.7200 O.3    50  SER50      -0.2183
     34  N         14.7440    3.3060   27.1370 N.3    54  LYS54      -0.1245
     35  CA        14.1220    4.5020   26.5590 C.3    54  LYS54       0.1561
     36  C         15.1300    5.2720   25.6850 C.2    54  LYS54       0.2260
     37  O         14.7480    5.9680   24.7480 O.2    54  LYS54      -0.2867
     38  CB        13.5190    5.4160   27.6500 C.3    54  LYS54       0.0271
     39  CG        12.7030    6.5990   27.1080 C.3    54  LYS54       0.0035
     40  CD        12.2740    7.5940   28.1890 C.3    54  LYS54       0.0206
     41  CE        10.7540    7.6450   28.3670 C.3    54  LYS54       0.1093
     42  NZ        10.1720    8.9780   28.0250 N.3    54  LYS54      -0.1314
     43  N         14.8600    2.9470   22.4530 N.3    57  ARG57      -0.1231
     44  CA        13.5250    3.2620   21.9250 C.3    57  ARG57       0.1694
     45  C         13.3860    4.6940   21.4060 C.2    57  ARG57       0.2591
     46  O         13.1730    4.8870   20.2170 O.2    57  ARG57      -0.2718
     47  CB        12.4290    2.9550   22.9540 C.3    57  ARG57       0.0321
     48  CG        11.0370    3.3720   22.5030 C.3    57  ARG57       0.0489
     49  CD         9.9520    3.0740   23.5420 C.3    57  ARG57       0.2205
     50  NE         9.9690    3.9920   24.6830 N.pl3  57  ARG57      -0.0865
     51  CZ         9.3360    5.1660   24.7240 C.cat  57  ARG57       0.5346
     52  NH1        8.6250    5.6010   23.6830 N.pl3  57  ARG57       0.1354
     53  NH2        9.4160    5.9160   25.8150 N.pl3  57  ARG57       0.1354
     54  N         13.5450    5.6920   22.2750 N.am   58  LYS58      -0.1980
     55  CA        13.3870    7.0960   21.8560 C.3    58  LYS58       0.1596
     56  C         14.5620    7.6280   21.0330 C.2    58  LYS58       0.2287
     57  O         14.6210    8.8260   20.7280 O.2    58  LYS58      -0.2864
     58  CB        13.1250    8.0260   23.0510 C.3    58  LYS58       0.0298
     59  CG        11.7640    7.8690   23.7110 C.3    58  LYS58       0.0038
     60  CD        10.8040    8.9780   23.3100 C.3    58  LYS58       0.0206
     61  CE        11.2690   10.3520   23.7830 C.3    58  LYS58       0.1093
     62  NZ        10.1030   11.2710   24.0660 N.3    58  LYS58      -0.1314
     63  N         13.5780   13.6830   29.7060 N.3    69  GLN69      -0.1231
     64  CA        12.8860   14.5680   30.6180 C.3    69  GLN69       0.1698
     65  C         12.3830   13.8570   31.8710 C.2    69  GLN69       0.2592
     66  O         11.9710   14.5170   32.8270 O.2    69  GLN69      -0.2718
     67  CB        11.6980   15.2190   29.9170 C.3    69  GLN69       0.0381
     68  CG        12.0280   16.2100   28.8200 C.3    69  GLN69       0.0905
     69  CD        10.7730   16.6950   28.1510 C.2    69  GLN69       0.2608
     70  OE1        9.8440   15.9190   27.9620 O.2    69  GLN69      -0.2717
     71  NE2       10.7130   17.9790   27.8300 N.am   69  GLN69      -0.0878
     72  N         12.3870   12.5280   31.8860 N.am   70  ASP70      -0.1974
     73  CA        11.8190   11.8470   33.0460 C.3    70  ASP70       0.1709
     74  C         12.7600   10.8930   33.7630 C.2    70  ASP70       0.2293
     75  O         12.3250    9.8700   34.2710 O.2    70  ASP70      -0.2864
     76  CB        10.5100   11.1410   32.6980 C.3    70  ASP70       0.1436
     77  CG        10.7160    9.8920   31.8510 C.2    70  ASP70       0.3671
     78  OD1       11.6310    9.8890   30.9920 O.co2  70  ASP70      -0.2456
     79  OD2        9.9590    8.9060   32.0560 O.co2  70  ASP70      -0.2456
     80  N          4.9940   12.2770   41.2390 N.3    75  ARG75      -0.1245
     81  CA         3.6570   11.9530   40.7910 C.3    75  ARG75       0.1563
     82  C          2.7320   12.4850   41.8580 C.2    75  ARG75       0.2260
     83  O          2.9060   12.1850   43.0460 O.2    75  ARG75      -0.2867
     84  CB         3.5220   10.4350   40.6110 C.3    75  ARG75       0.0307
     85  CG         2.1720    9.9560   40.1520 C.3    75  ARG75       0.0489
     86  CD         2.2790    9.1900   38.8420 C.3    75  ARG75       0.2205
     87  NE         2.9740    7.9120   38.9670 N.pl3  75  ARG75      -0.0865
     88  CZ         3.7490    7.3900   38.0240 C.cat  75  ARG75       0.5346
     89  NH1        3.9360    8.0270   36.8830 N.pl3  75  ARG75       0.1354
     90  NH2        4.3490    6.2400   38.2230 N.pl3  75  ARG75       0.1354
     91  N          2.4910   18.3130   28.5940 N.3   103  ARG103     -0.1245
     92  CA         1.7380   17.4180   27.7440 C.3   103  ARG103      0.1563
     93  C          0.4790   17.0640   28.5120 C.2   103  ARG103      0.2260
     94  O          0.5450   16.3420   29.4900 O.2   103  ARG103     -0.2867
     95  CB         2.5220   16.1430   27.4810 C.3   103  ARG103      0.0307
     96  CG         3.7940   16.3080   26.7130 C.3   103  ARG103      0.0489
     97  CD         4.5020   14.9680   26.7020 C.3   103  ARG103      0.2205
     98  NE         5.9090   15.0430   26.3270 N.pl3 103  ARG103     -0.0865
     99  CZ         6.8820   15.4150   27.1520 C.cat 103  ARG103      0.5346
    100  NH1        6.6080   15.7740   28.3920 N.pl3 103  ARG103      0.1354
    101  NH2        8.1340   15.4360   26.7290 N.pl3 103  ARG103      0.1354
    102  N         -2.3610   14.9820   28.7890 N.3   105  TYR105     -0.1241
    103  CA        -3.0440   13.8070   28.3330 C.3   105  TYR105      0.1605
    104  C         -4.3130   13.6290   29.1190 C.2   105  TYR105      0.2264
    105  O         -4.8960   12.5510   29.1140 O.2   105  TYR105     -0.2867
    106  CB        -2.1930   12.5870   28.5440 C.3   105  TYR105      0.0534
    107  CG        -0.9320   12.5660   27.7410 C.ar  105  TYR105     -0.0201
    108  CD1       -0.9670   12.6140   26.3750 C.ar  105  TYR105     -0.0009
    109  CD2        0.2990   12.4430   28.3610 C.ar  105  TYR105     -0.0009
    110  CE1        0.1830   12.5630   25.6430 C.ar  105  TYR105      0.0417
    111  CE2        1.4520   12.3900   27.6320 C.ar  105  TYR105      0.0417
    112  CZ         1.3860   12.4510   26.2720 C.ar  105  TYR105      0.1957
    113  OH         2.5420   12.3970   25.5390 O.3   105  TYR105     -0.2866
    114  N         -4.0720    9.2990   25.5230 N.3   110  LYS110     -0.1245
    115  CA        -3.3420    8.5590   24.5100 C.3   110  LYS110      0.1561
    116  C         -4.1810    7.4190   23.9680 C.2   110  LYS110      0.2260
    117  O         -5.1970    7.0510   24.5600 O.2   110  LYS110     -0.2867
    118  CB        -2.0490    7.9980   25.1020 C.3   110  LYS110      0.0271
    119  CG        -1.1890    9.0280   25.7870 C.3   110  LYS110      0.0035
    120  CD         0.1040    8.4210   26.2360 C.3   110  LYS110      0.0206
    121  CE         1.1760    8.6010   25.2190 C.3   110  LYS110      0.1093
    122  NZ         2.2900    7.6630   25.4710 N.3   110  LYS110     -0.1314
    123  N         -3.5410    4.3710   24.2300 N.3   112  SER112     -0.1217
    124  CA        -3.6380    3.2740   25.1840 C.3   112  SER112      0.1889
    125  C         -4.7820    3.4570   26.1730 C.2   112  SER112      0.2288
    126  O         -5.1940    2.4980   26.8250 O.2   112  SER112     -0.2866
    127  CB        -2.3610    3.1550   25.9790 C.3   112  SER112      0.2089
    128  OG        -2.4890    3.9510   27.1340 O.3   112  SER112     -0.2183
    129  N         -4.4050    6.1400   28.3550 N.3   114  TYR114     -0.1241
    130  CA        -3.6450    6.7790   29.4280 C.3   114  TYR114      0.1605
    131  C         -3.9780    8.2570   29.6830 C.2   114  TYR114      0.2264
    132  O         -3.8430    9.1090   28.8060 O.2   114  TYR114     -0.2867
    133  CB        -2.1380    6.6330   29.1560 C.3   114  TYR114      0.0534
    134  CG        -1.2970    7.3750   30.1480 C.ar  114  TYR114     -0.0201
    135  CD1       -1.2820    6.9930   31.4860 C.ar  114  TYR114     -0.0009
    136  CD2       -0.5480    8.4770   29.7700 C.ar  114  TYR114     -0.0009
    137  CE1       -0.5250    7.6830   32.4300 C.ar  114  TYR114      0.0417
    138  CE2        0.2150    9.1730   30.7060 C.ar  114  TYR114      0.0417
    139  CZ         0.2200    8.7640   32.0350 C.ar  114  TYR114      0.1957
    140  OH         0.9600    9.4330   32.9740 O.3   114  TYR114     -0.2866
    141  N          1.0970   15.9010   32.4870 N.3   118  HIS118     -0.1241
    142  CA         2.5360   15.8620   32.5960 C.3   118  HIS118      0.1621
    143  C          3.1600   17.2440   32.5390 C.2   118  HIS118      0.2264
    144  O          2.9650   18.0060   31.5910 O.2   118  HIS118     -0.2867
    145  CB         3.1140   14.9890   31.4990 C.3   118  HIS118      0.0745
    146  CG         2.8180   13.5430   31.6860 C.ar  118  HIS118      0.0817
    147  ND1        3.4670   12.5510   30.9880 N.ar  118  HIS118     -0.2268
    148  CD2        1.9460   12.9180   32.5120 C.ar  118  HIS118      0.1154
    149  CE1        3.0100   11.3740   31.3810 C.ar  118  HIS118      0.1986
    150  NE2        2.0850   11.5690   32.3040 N.ar  118  HIS118     -0.2212
    151  N         10.2000   15.4880   35.5990 N.3   137  GLU137     -0.1245
    152  CA         8.8500   15.3690   35.0350 C.3   137  GLU137      0.1567
    153  C          7.8350   15.1550   36.1290 C.2   137  GLU137      0.2260
    154  O          7.8290   14.1120   36.7490 O.2   137  GLU137     -0.2867
    155  CB         8.7650   14.1810   34.0800 C.3   137  GLU137      0.0388
    156  CG         7.8200   14.4090   32.9110 C.3   137  GLU137      0.1160
    157  CD         7.3260   13.1210   32.2800 C.2   137  GLU137      0.3649
    158  OE1        6.3400   12.5500   32.8040 O.co2 137  GLU137     -0.2457
    159  OE2        7.9190   12.6780   31.2650 O.co2 137  GLU137     -0.2457
    160  N          4.0050   14.4590   37.3290 N.3   139  GLN139     -0.1245
    161  CA         2.7800   13.9370   36.7150 C.3   139  GLN139      0.1566
    162  C          1.6080   14.0610   37.6450 C.2   139  GLN139      0.2260
    163  O          1.6010   13.4450   38.7040 O.2   139  GLN139     -0.2867
    164  CB         2.9140   12.4640   36.3920 C.3   139  GLN139      0.0367
    165  CG         4.0170   12.1370   35.4520 C.3   139  GLN139      0.0905
    166  CD         3.9500   10.7010   35.0210 C.2   139  GLN139      0.2608
    167  OE1        3.2330    9.9010   35.6250 O.2   139  GLN139     -0.2717
    168  NE2        4.6750   10.3630   33.9580 N.am  139  GLN139     -0.0878
    169  N         -2.4140   13.4300   38.4920 N.3   141  ARG141     -0.1245
    170  CA        -3.4990   12.5470   38.1200 C.3   141  ARG141      0.1563
    171  C         -4.4030   12.2800   39.2950 C.2   141  ARG141      0.2260
    172  O         -4.0230   12.4790   40.4440 O.2   141  ARG141     -0.2867
    173  CB        -2.9370   11.2250   37.6340 C.3   141  ARG141      0.0307
    174  CG        -2.1070   10.5720   38.6470 C.3   141  ARG141      0.0489
    175  CD        -1.8210    9.1780   38.2410 C.3   141  ARG141      0.2205
    176  NE        -0.8620    9.1010   37.1510 N.pl3 141  ARG141     -0.0865
    177  CZ        -0.1550    8.0100   36.8940 C.cat 141  ARG141      0.5346
    178  NH1       -0.3090    6.9370   37.6670 N.pl3 141  ARG141      0.1354
    179  NH2        0.7040    7.9940   35.8790 N.pl3 141  ARG141      0.1354
    180  N         -3.8880    3.4980   35.3860 N.3   149  ALA149     -0.1245
    181  CA        -2.5540    3.6190   34.8390 C.3   149  ALA149      0.1562
    182  C         -1.5850    2.6460   35.5120 C.2   149  ALA149      0.2260
    183  O         -0.7130    2.0630   34.8670 O.2   149  ALA149     -0.2867
    184  CB        -2.0930    5.0340   34.9720 C.3   149  ALA149      0.0290
    185  N         -2.2180   -0.8560   34.2000 N.3   152  GLU152     -0.1231
    186  CA        -1.9970   -1.0000   32.7810 C.3   152  GLU152      0.1699
    187  C         -0.5070   -0.9880   32.5380 C.2   152  GLU152      0.2592
    188  O         -0.0010   -1.6890   31.6720 O.2   152  GLU152     -0.2718
    189  CB        -2.6920    0.1110   32.0130 C.3   152  GLU152      0.0402
    190  CG        -1.7290    1.1350   31.4050 C.3   152  GLU152      0.1161
    191  CD        -1.5300    0.9100   29.9380 C.2   152  GLU152      0.3649
    192  OE1       -2.2910    0.0900   29.3780 O.co2 152  GLU152     -0.2457
    193  OE2       -0.6210    1.5340   29.3510 O.co2 152  GLU152     -0.2457
    194  N          0.2030   -0.2040   33.3350 N.am  153  HIS153     -0.1976
    195  CA         1.6300   -0.0570   33.1410 C.3   153  HIS153      0.1656
    196  C          2.3170   -1.3940   33.3950 C.2   153  HIS153      0.2291
    197  O          3.3000   -1.7350   32.7350 O.2   153  HIS153     -0.2864
    198  CB         2.1970    1.0350   34.0510 C.3   153  HIS153      0.0771
    199  CG         3.6400    1.3280   33.7970 C.ar  153  HIS153      0.0820
    200  ND1        4.6600    0.5460   34.3000 N.ar  153  HIS153     -0.2267
    201  CD2        4.2360    2.3060   33.0720 C.ar  153  HIS153      0.1154
    202  CE1        5.8200    1.0360   33.9070 C.ar  153  HIS153      0.1986
    203  NE2        5.5900    2.1060   33.1640 N.ar  153  HIS153     -0.2212
@<TRIPOS>BOND
     1    46    45    2
     2    57    56    2
     3    56    55    1
     4    45    44    1
     5    45    54   am
     6    55    54    1
     7    55    58    1
     8    44    43    1
     9    44    47    1
    10    48    47    1
    11    48    49    1
    12    58    59    1
    13    60    59    1
    14    60    61    1
    15    49    50    1
    16    52    51    1
    17    61    62    1
    18   116   115    1
    19   116   117    2
    20   123   124    1
    21   115   118    1
    22   115   114    1
    23    50    51    2
    24    51    53    1
    25    37    36    2
    26   118   119    1
    27   124   127    1
    28   124   125    1
    29   121   122    1
    30   121   120    1
    31   113   112    1
    32   110   112   ar
    33   110   108   ar
    34    36    35    1
    35   119   120    1
    36   127   128    1
    37   125   126    2
    38   112   111   ar
    39    98    97    1
    40    98    99    2
    41   108   107   ar
    42    35    34    1
    43    35    38    1
    44    97    96    1
    45    96    95    1
    46   101    99    1
    47    39    38    1
    48    39    40    1
    49    99   100    1
    50    95    92    1
    51   111   109   ar
    52   107   109   ar
    53   107   106    1
    54    92    93    1
    55    92    91    1
    56    71    69   am
    57    70    69    2
    58    42    41    1
    59    69    68    1
    60    40    41    1
    61   103   106    1
    62   103   102    1
    63   103   104    1
    64   129   130    1
    65    93    94    2
    66   132   131    2
    67    68    67    1
    68   105   104    2
    69   133   130    1
    70   133   134    1
    71   193   191   ar
    72   192   191   ar
    73   130   131    1
    74    63    64    1
    75   136   134   ar
    76   136   138   ar
    77    67    64    1
    78   191   190    1
    79   134   135   ar
    80    31    30    2
    81    64    65    1
    82   138   139   ar
    83   147   149   ar
    84   147   146   ar
    85    78    77   ar
    86    30    29    1
    87   159   157   ar
    88   149   150   ar
    89   190   189    1
    90   135   137   ar
    91   145   146    1
    92   145   142    1
    93    20    19    1
    94   144   143    2
    95   188   187    2
    96   146   148   ar
    97    77    79   ar
    98    77    76    1
    99    65    72   am
   100    65    66    2
   101    72    73    1
   102   189   186    1
   103    29    28    1
   104    29    32    1
   105   139   137   ar
   106   139   140    1
   107   157   158   ar
   108   157   156    1
   109   150   148   ar
   110    19    18    1
   111   141   142    1
   112   187   186    1
   113   187   194   am
   114   143   142    1
   115    76    73    1
   116   197   196    2
   117   186   185    1
   118   156   155    1
   119    73    74    1
   120    18    17    1
   121    32    33    1
   122   201   203   ar
   123   201   199   ar
   124   195   194    1
   125   195   196    1
   126   195   198    1
   127   203   202   ar
   128    74    75    2
   129   199   198    1
   130   199   200   ar
   131   202   200   ar
   132   168   166   am
   133   155   152    1
   134    17    16    1
   135    24    23    2
   136   181   184    1
   137   181   180    1
   138   181   182    1
   139   183   182    2
   140   166   165    1
   141   166   167    2
   142   152   151    1
   143   152   153    1
   144    16    13    1
   145   165   164    1
   146    23    22    1
   147   179   177    1
   148   153   154    2
   149   164   161    1
   150    13    14    1
   151    13    12    1
   152   161   160    1
   153   161   162    1
   154    27    21    1
   155    27    26    1
   156    14    21   am
   157    14    15    2
   158    21    22    1
   159    89    88    1
   160   177   176    2
   161   177   178    1
   162    22    25    1
   163   176   175    1
   164    25    26    1
   165   173   170    1
   166   173   174    1
   167   162   163    2
   168    11     9    1
   169    88    90    1
   170    88    87    2
   171   170   169    1
   172   170   171    1
   173   175   174    1
   174     8     9    2
   175     8     7    1
   176     9    10    1
   177    86    87    1
   178    86    85    1
   179     7     6    1
   180   171   172    2
   181     6     5    1
   182    85    84    1
   183     4     3    2
   184    84    81    1
   185    81    80    1
   186    81    82    1
   187     3     2    1
   188     5     2    1
   189     2     1    1
   190    82    83    2
