@<TRIPOS>MOLECULE
tmp/5degA00.pdb
 109 103 0 0 0
SMALL
GASTEIGER

@<TRIPOS>ATOM
      1  N          6.4060    6.4440   32.4230 N.3     7  TYR7       -0.1241
      2  CA         6.9160    7.7760   32.6740 C.3     7  TYR7        0.1605
      3  C          8.0040    8.0970   31.6570 C.2     7  TYR7        0.2264
      4  O          8.9810    7.3470   31.5230 O.2     7  TYR7       -0.2867
      5  CB         7.4400    7.8690   34.1180 C.3     7  TYR7        0.0534
      6  CG         6.3440    7.7690   35.1650 C.ar    7  TYR7       -0.0201
      7  CD1        5.5410    8.8600   35.4650 C.ar    7  TYR7       -0.0009
      8  CD2        6.0930    6.5760   35.8310 C.ar    7  TYR7       -0.0009
      9  CE1        4.5470    8.7790   36.4100 C.ar    7  TYR7        0.0417
     10  CE2        5.0930    6.4780   36.7830 C.ar    7  TYR7        0.0417
     11  CZ         4.3080    7.5740   37.0640 C.ar    7  TYR7        0.1957
     12  OH         3.3180    7.4720   38.0080 O.3     7  TYR7       -0.2866
     13  N          5.5120   14.4910   47.1160 N.3    62  ARG62      -0.1231
     14  CA         6.4820   13.4310   46.8200 C.3    62  ARG62       0.1694
     15  C          6.8430   13.3940   45.3420 C.2    62  ARG62       0.2591
     16  O          8.0260   13.2850   44.9910 O.2    62  ARG62      -0.2718
     17  CB         5.9400   12.0660   47.2570 C.3    62  ARG62       0.0321
     18  CG         6.9210   10.9210   47.0550 C.3    62  ARG62       0.0489
     19  CD         6.3620    9.6540   47.6330 C.3    62  ARG62       0.2205
     20  NE         7.3100    8.5400   47.5930 N.pl3  62  ARG62      -0.0865
     21  CZ         7.4960    7.7390   46.5400 C.cat  62  ARG62       0.5346
     22  NH1        6.8460    7.9350   45.4100 N.pl3  62  ARG62       0.1354
     23  NH2        8.3720    6.7380   46.6120 N.pl3  62  ARG62       0.1354
     24  N          5.8290   13.4920   44.4780 N.am   63  GLU63      -0.1979
     25  CA         6.0450   13.4970   43.0320 C.3    63  GLU63       0.1602
     26  C          6.9140   14.6690   42.5870 C.2    63  GLU63       0.2287
     27  O          7.7900   14.5210   41.7520 O.2    63  GLU63      -0.2864
     28  CB         4.7140   13.5610   42.2740 C.3    63  GLU63       0.0415
     29  CG         3.8930   12.2830   42.3010 C.3    63  GLU63       0.1163
     30  CD         4.4270   11.2160   41.3630 C.2    63  GLU63       0.3649
     31  OE1        4.3800   11.4200   40.1390 O.co2  63  GLU63      -0.2457
     32  OE2        4.9110   10.1670   41.8490 O.co2  63  GLU63      -0.2457
     33  N         10.5040   14.0810   43.6100 N.3    66  ILE66      -0.1245
     34  CA        11.0860   13.1020   42.7040 C.3    66  ILE66       0.1561
     35  C         11.4340   13.7280   41.3410 C.2    66  ILE66       0.2260
     36  O         12.5160   13.5010   40.8130 O.2    66  ILE66      -0.2867
     37  CB        10.1370   11.8950   42.5290 C.3    66  ILE66       0.0252
     38  CG1       10.1100   11.0480   43.8080 C.3    66  ILE66       0.0019
     39  CG2       10.5210   11.0470   41.3440 C.3    66  ILE66       0.0019
     40  CD1        8.9950    9.9840   43.7990 C.3    66  ILE66       0.0001
     41  N         14.6570    9.1510   28.9130 N.3    97  ASN97      -0.1240
     42  CA        14.4230    7.9480   29.7260 C.3    97  ASN97       0.1653
     43  C         12.9180    7.6530   29.7620 C.2    97  ASN97       0.2266
     44  O         12.1010    8.5670   29.9930 O.2    97  ASN97      -0.2867
     45  CB        14.9730    8.2240   31.1290 C.3    97  ASN97       0.1155
     46  CG        14.7540    7.0980   32.1180 C.2    97  ASN97       0.2627
     47  OD1       14.5540    7.3710   33.3020 O.2    97  ASN97      -0.2716
     48  ND2       14.8160    5.8390   31.6700 N.am   97  ASN97      -0.0877
     49  N         10.4400    4.6560   31.6300 N.3    99  TYR99      -0.1241
     50  CA        10.2610    3.4590   32.4290 C.3    99  TYR99       0.1605
     51  C          8.7880    3.2150   32.7240 C.2    99  TYR99       0.2264
     52  O          7.9620    4.1220   32.6440 O.2    99  TYR99      -0.2867
     53  CB        11.0920    3.4870   33.7270 C.3    99  TYR99       0.0534
     54  CG        10.6380    4.4400   34.8010 C.ar   99  TYR99      -0.0201
     55  CD1        9.6200    4.0960   35.6740 C.ar   99  TYR99      -0.0009
     56  CD2       11.2580    5.6700   34.9680 C.ar   99  TYR99      -0.0009
     57  CE1        9.2150    4.9470   36.6850 C.ar   99  TYR99       0.0417
     58  CE2       10.8610    6.5490   35.9740 C.ar   99  TYR99       0.0417
     59  CZ         9.8150    6.1830   36.8230 C.ar   99  TYR99       0.1957
     60  OH         9.4030    7.0200   37.8490 O.3    99  TYR99      -0.2866
     61  N         12.9980   -0.0050   31.5820 N.3   114  ASP114     -0.1239
     62  CA        13.7150    1.1860   32.0090 C.3   114  ASP114      0.1674
     63  C         14.8260    1.3930   31.0130 C.2   114  ASP114      0.2266
     64  O         15.8260    0.6510   31.0070 O.2   114  ASP114     -0.2867
     65  CB        14.2910    1.0550   33.4230 C.3   114  ASP114      0.1410
     66  CG        15.0720    2.2930   33.8650 C.2   114  ASP114      0.3668
     67  OD1       14.7390    3.4150   33.4240 O.co2 114  ASP114     -0.2456
     68  OD2       16.0580    2.1290   34.6330 O.co2 114  ASP114     -0.2456
     69  N         17.0380    4.1550   28.0930 N.3   116  TYR116     -0.1241
     70  CA        17.6240    5.4760   27.8590 C.3   116  TYR116      0.1605
     71  C         18.1410    5.6280   26.4270 C.2   116  TYR116      0.2264
     72  O         18.6170    4.6470   25.8040 O.2   116  TYR116     -0.2867
     73  CB        18.8140    5.7040   28.7790 C.3   116  TYR116      0.0534
     74  CG        18.5250    5.7620   30.2500 C.ar  116  TYR116     -0.0201
     75  CD1       18.2800    4.6030   30.9950 C.ar  116  TYR116     -0.0009
     76  CD2       18.5100    6.9850   30.9080 C.ar  116  TYR116     -0.0009
     77  CE1       18.0310    4.6960   32.4080 C.ar  116  TYR116      0.0417
     78  CE2       18.2770    7.0700   32.2710 C.ar  116  TYR116      0.0417
     79  CZ        18.0230    5.9440   33.0000 C.ar  116  TYR116      0.1957
     80  OH        17.8000    6.1220   34.3630 O.3   116  TYR116     -0.2866
     81  N         21.8120   -1.9020   40.7930 N.3   152  GLU152     -0.1245
     82  CA        20.7130   -0.9870   40.5070 C.3   152  GLU152      0.1567
     83  C         19.4760   -1.7310   39.9490 C.2   152  GLU152      0.2260
     84  O         18.3230   -1.3530   40.2300 O.2   152  GLU152     -0.2867
     85  CB        21.1840    0.0860   39.5320 C.3   152  GLU152      0.0388
     86  CG        20.2150    1.1990   39.2920 C.3   152  GLU152      0.1160
     87  CD        20.1730    2.2120   40.4100 C.2   152  GLU152      0.3649
     88  OE1       20.8630    2.0540   41.4510 O.co2 152  GLU152     -0.2457
     89  OE2       19.4440    3.1820   40.1990 O.co2 152  GLU152     -0.2457
     90  N         15.1910   -1.4980   40.5780 N.3   156  LEU156     -0.1245
     91  CA        14.2460   -1.3730   39.4750 C.3   156  LEU156      0.1561
     92  C         13.2410   -2.5080   39.4500 C.2   156  LEU156      0.2260
     93  O         12.0450   -2.2690   39.3170 O.2   156  LEU156     -0.2867
     94  CB        14.9610   -1.3380   38.1350 C.3   156  LEU156      0.0270
     95  CG        15.5400    0.0090   37.8010 C.3   156  LEU156      0.0019
     96  CD1       16.6210   -0.1950   36.8060 C.3   156  LEU156      0.0001
     97  CD2       14.3750    0.8790   37.2720 C.3   156  LEU156      0.0001
     98  N         10.5780   -2.1530   42.1660 N.3   159  TYR159     -0.1241
     99  CA         9.6110   -1.1180   41.8030 C.3   159  TYR159      0.1605
    100  C          8.6610   -1.5980   40.7040 C.2   159  TYR159      0.2264
    101  O          7.4490   -1.4780   40.8250 O.2   159  TYR159     -0.2867
    102  CB        10.3190    0.1570   41.3230 C.3   159  TYR159      0.0534
    103  CG         9.3440    1.1230   40.6780 C.ar  159  TYR159     -0.0201
    104  CD1        8.5180    1.9330   41.4490 C.ar  159  TYR159     -0.0009
    105  CD2        9.2000    1.1830   39.3030 C.ar  159  TYR159     -0.0009
    106  CE1        7.5950    2.7900   40.8600 C.ar  159  TYR159      0.0417
    107  CE2        8.2720    2.0540   38.7070 C.ar  159  TYR159      0.0417
    108  CZ         7.4860    2.8550   39.4780 C.ar  159  TYR159      0.1957
    109  OH         6.5900    3.7100   38.8540 O.3   159  TYR159     -0.2866
@<TRIPOS>BOND
     1    72    71    2
     2    71    70    1
     3    70    69    1
     4    70    73    1
     5    73    74    1
     6    41    42    1
     7    42    43    1
     8    42    45    1
     9    43    44    2
    10    74    76   ar
    11    74    75   ar
    12    76    78   ar
    13    75    77   ar
    14    64    63    2
    15    63    62    1
    16    45    46    1
    17     4     3    2
    18    61    62    1
    19    49    50    1
    20     3     2    1
    21    48    46   am
    22    62    65    1
    23    46    47    2
    24    78    79   ar
    25    77    79   ar
    26     1     2    1
    27    50    51    1
    28    50    53    1
    29    52    51    2
    30     2     5    1
    31    79    80    1
    32    65    66    1
    33    67    66   ar
    34    53    54    1
    35    66    68   ar
    36     5     6    1
    37    54    56   ar
    38    54    55   ar
    39    56    58   ar
    40     6     7   ar
    41     6     8   ar
    42     7     9   ar
    43    55    57   ar
    44     8    10   ar
    45    58    59   ar
    46     9    11   ar
    47    57    59   ar
    48    10    11   ar
    49    96    95    1
    50    59    60    1
    51    11    12    1
    52    97    95    1
    53    95    94    1
    54    94    91    1
    55   107   105   ar
    56   107   108   ar
    57   109   108    1
    58    86    85    1
    59    86    87    1
    60   105   103   ar
    61    93    92    2
    62    92    91    1
    63    91    90    1
    64   108   106   ar
    65    85    82    1
    66    83    84    2
    67    83    82    1
    68    31    30   ar
    69    89    87   ar
    70    87    88   ar
    71    82    81    1
    72   103   102    1
    73   103   104   ar
    74   100   101    2
    75   100    99    1
    76    36    35    2
    77   106   104   ar
    78   102    99    1
    79    35    34    1
    80    39    37    1
    81    30    32   ar
    82    30    29    1
    83    27    26    2
    84    99    98    1
    85    28    29    1
    86    28    25    1
    87    37    34    1
    88    37    38    1
    89    26    25    1
    90    34    33    1
    91    25    24    1
    92    40    38    1
    93    24    15   am
    94    16    15    2
    95    15    14    1
    96    22    21    1
    97    21    23    1
    98    21    20    2
    99    14    13    1
   100    14    17    1
   101    18    17    1
   102    18    19    1
   103    20    19    1
