@<TRIPOS>MOLECULE
tmp/5delA02.pdb
 171 159 0 0 0
SMALL
GASTEIGER

@<TRIPOS>ATOM
      1  N          7.1030   34.7480  -18.9430 N.3    11  LEU11      -0.1245
      2  CA         6.0260   33.9180  -18.4050 C.3    11  LEU11       0.1561
      3  C          4.7240   34.1450  -19.1710 C.2    11  LEU11       0.2260
      4  O          4.0890   33.1920  -19.6280 O.2    11  LEU11      -0.2867
      5  CB         5.8200   34.2150  -16.9190 C.3    11  LEU11       0.0270
      6  CG         5.1900   33.1090  -16.0700 C.3    11  LEU11       0.0019
      7  CD1        5.2910   33.4780  -14.5970 C.3    11  LEU11       0.0001
      8  CD2        3.7430   32.8480  -16.4550 C.3    11  LEU11       0.0001
      9  N          2.6300   31.3470  -21.7430 N.3    15  LEU15      -0.1245
     10  CA         1.2720   30.9210  -21.4180 C.3    15  LEU15       0.1561
     11  C          0.2590   31.2260  -22.5190 C.2    15  LEU15       0.2260
     12  O         -0.8160   30.6260  -22.5550 O.2    15  LEU15      -0.2867
     13  CB         0.8190   31.5710  -20.1100 C.3    15  LEU15       0.0270
     14  CG         1.3860   30.9520  -18.8280 C.3    15  LEU15       0.0019
     15  CD1        0.9500   31.7550  -17.6120 C.3    15  LEU15       0.0001
     16  CD2        0.9620   29.4920  -18.6770 C.3    15  LEU15       0.0001
     17  N         -0.3410   24.7750  -19.9080 N.3    20  GLY20      -0.1210
     18  CA        -0.1030   25.2880  -18.5730 C.3    20  GLY20       0.1956
     19  C          0.8860   24.4800  -17.7560 C.2    20  GLY20       0.2611
     20  O          1.8320   25.0350  -17.1930 O.2    20  GLY20      -0.2717
     21  N          0.6700   23.1710  -17.6790 N.am   21  GLU21      -0.1979
     22  CA         1.5230   22.3160  -16.8630 C.3    21  GLU21       0.1602
     23  C          2.9260   22.2140  -17.4540 C.2    21  GLU21       0.2287
     24  O          3.9030   22.0550  -16.7220 O.2    21  GLU21      -0.2864
     25  CB         0.9090   20.9230  -16.7130 C.3    21  GLU21       0.0415
     26  CG         1.6810   20.0230  -15.7530 C.3    21  GLU21       0.1163
     27  CD         0.8790   18.8230  -15.2850 C.2    21  GLU21       0.3649
     28  OE1       -0.2340   18.5970  -15.8060 O.co2  21  GLU21      -0.2457
     29  OE2        1.3650   18.1030  -14.3880 O.co2  21  GLU21      -0.2457
     30  N          4.3990   24.7000  -18.9560 N.3    23  CYS23      -0.1221
     31  CA         5.0060   25.9560  -18.5250 C.3    23  CYS23       0.1808
     32  C          5.4690   25.8580  -17.0770 C.2    23  CYS23       0.2601
     33  O          6.5560   26.3170  -16.7310 O.2    23  CYS23      -0.2717
     34  CB         4.0240   27.1210  -18.6760 C.3    23  CYS23       0.0970
     35  SG         3.7450   27.6600  -20.3790 S.3    23  CYS23      -0.0800
     36  N          4.6300   25.2620  -16.2360 N.am   24  HIS24      -0.1975
     37  CA         4.9590   25.0640  -14.8310 C.3    24  HIS24       0.1656
     38  C          6.2480   24.2610  -14.6980 C.2    24  HIS24       0.2291
     39  O          7.1670   24.6620  -13.9900 O.2    24  HIS24      -0.2864
     40  CB         3.8120   24.3560  -14.1090 C.3    24  HIS24       0.0771
     41  CG         4.0720   24.1090  -12.6560 C.ar   24  HIS24       0.0820
     42  ND1        4.4350   25.1130  -11.7840 N.ar   24  HIS24      -0.2267
     43  CD2        4.0190   22.9740  -11.9190 C.ar   24  HIS24       0.1154
     44  CE1        4.5950   24.6080  -10.5760 C.ar   24  HIS24       0.1986
     45  NE2        4.3500   23.3130  -10.6290 N.ar   24  HIS24      -0.2212
     46  N          9.3910   26.2930  -15.6620 N.3    27  PHE27      -0.1227
     47  CA         9.8460   27.2620  -14.6770 C.3    27  PHE27       0.1736
     48  C         10.4040   26.5740  -13.4340 C.2    27  PHE27       0.2595
     49  O         11.2940   27.1110  -12.7780 O.2    27  PHE27      -0.2718
     50  CB         8.7070   28.2150  -14.3140 C.3    27  PHE27       0.0547
     51  CG         8.5060   29.3180  -15.3200 C.ar   27  PHE27      -0.0202
     52  CD1        8.1070   29.0310  -16.6140 C.ar   27  PHE27      -0.0042
     53  CD2        8.7270   30.6410  -14.9720 C.ar   27  PHE27      -0.0042
     54  CE1        7.9270   30.0390  -17.5400 C.ar   27  PHE27      -0.0003
     55  CE2        8.5480   31.6580  -15.8960 C.ar   27  PHE27      -0.0003
     56  CZ         8.1500   31.3560  -17.1790 C.ar   27  PHE27      -0.0000
     57  N          9.8960   25.3850  -13.1220 N.am   28  LEU28      -0.1980
     58  CA        10.4740   24.5690  -12.0590 C.3    28  LEU28       0.1596
     59  C         11.8950   24.1850  -12.4310 C.2    28  LEU28       0.2287
     60  O         12.7810   24.1200  -11.5780 O.2    28  LEU28      -0.2864
     61  CB         9.6460   23.3060  -11.8090 C.3    28  LEU28       0.0297
     62  CG         8.3030   23.4600  -11.0960 C.3    28  LEU28       0.0022
     63  CD1        7.5900   22.1160  -11.0360 C.3    28  LEU28       0.0001
     64  CD2        8.4800   24.0300   -9.7000 C.3    28  LEU28       0.0001
     65  N         16.5180   31.7840  -11.5230 N.3    36  LEU36      -0.1245
     66  CA        15.4320   32.6590  -11.1910 C.3    36  LEU36       0.1561
     67  C         15.8760   33.8240  -10.3070 C.2    36  LEU36       0.2260
     68  O         16.9110   33.7780   -9.7450 O.2    36  LEU36      -0.2867
     69  CB        14.2740   31.9080  -10.5720 C.3    36  LEU36       0.0270
     70  CG        13.5730   30.7630  -11.2940 C.3    36  LEU36       0.0019
     71  CD1       12.2690   30.4480  -10.6460 C.3    36  LEU36       0.0001
     72  CD2       13.3520   31.0370  -12.7460 C.3    36  LEU36       0.0001
     73  N          2.4650   23.0060   -5.7650 N.3    66  PHE66      -0.1241
     74  CA         3.2840   23.8360   -6.6230 C.3    66  PHE66       0.1605
     75  C          4.5850   23.1130   -6.9470 C.2    66  PHE66       0.2264
     76  O          4.8740   22.8190   -8.1070 O.2    66  PHE66      -0.2867
     77  CB         3.5520   25.1750   -5.9460 C.3    66  PHE66       0.0534
     78  CG         3.9390   26.2550   -6.8930 C.ar   66  PHE66      -0.0203
     79  CD1        2.9710   27.0420   -7.4880 C.ar   66  PHE66      -0.0042
     80  CD2        5.2670   26.4860   -7.1930 C.ar   66  PHE66      -0.0042
     81  CE1        3.3220   28.0440   -8.3630 C.ar   66  PHE66      -0.0003
     82  CE2        5.6230   27.4870   -8.0660 C.ar   66  PHE66      -0.0003
     83  CZ         4.6470   28.2660   -8.6520 C.ar   66  PHE66      -0.0000
     84  N         12.6050   22.2120   -6.4260 N.3    72  CYS72      -0.1235
     85  CA        12.7390   23.6410   -6.6960 C.3    72  CYS72       0.1677
     86  C         12.5730   24.4960   -5.4380 C.2    72  CYS72       0.2270
     87  O         12.1330   25.6430   -5.5110 O.2    72  CYS72      -0.2867
     88  CB        11.7010   24.0550   -7.7430 C.3    72  CYS72       0.0956
     89  SG        12.0180   25.6140   -8.5630 S.3    72  CYS72      -0.0801
     90  N         12.2250   28.8950   -5.2620 N.3    76  ILE76      -0.1245
     91  CA        10.8940   29.3970   -4.9580 C.3    76  ILE76       0.1561
     92  C         10.9220   30.2120   -3.6710 C.2    76  ILE76       0.2260
     93  O         10.2990   31.2690   -3.5860 O.2    76  ILE76      -0.2867
     94  CB         9.8690   28.2520   -4.8320 C.3    76  ILE76       0.0252
     95  CG1        9.6220   27.6090   -6.2010 C.3    76  ILE76       0.0019
     96  CG2        8.5520   28.7760   -4.2800 C.3    76  ILE76       0.0019
     97  CD1        8.8940   26.2590   -6.1480 C.3    76  ILE76       0.0001
     98  N         12.4300   33.7070   -3.9170 N.3    79  LEU79      -0.1245
     99  CA        11.5930   34.7030   -4.5830 C.3    79  LEU79       0.1561
    100  C         10.9920   35.6680   -3.5680 C.2    79  LEU79       0.2260
    101  O         10.4590   36.7140   -3.9410 O.2    79  LEU79      -0.2867
    102  CB        10.4720   34.0390   -5.3860 C.3    79  LEU79       0.0270
    103  CG        10.8630   33.3170   -6.6750 C.3    79  LEU79       0.0019
    104  CD1        9.6670   32.5850   -7.2400 C.3    79  LEU79       0.0001
    105  CD2       11.4250   34.2880   -7.7020 C.3    79  LEU79       0.0001
    106  N         -4.6830   20.6540  -16.1300 N.3   102  ILE102     -0.1245
    107  CA        -4.7170   21.9840  -15.5220 C.3   102  ILE102      0.1561
    108  C         -5.1230   23.0240  -16.5580 C.2   102  ILE102      0.2260
    109  O         -4.5340   23.0940  -17.6370 O.2   102  ILE102     -0.2867
    110  CB        -3.3540   22.3980  -14.9220 C.3   102  ILE102      0.0252
    111  CG1       -2.7510   21.2630  -14.0890 C.3   102  ILE102      0.0019
    112  CG2       -3.5190   23.6590  -14.0710 C.3   102  ILE102      0.0019
    113  CD1       -1.3640   21.5720  -13.5590 C.3   102  ILE102      0.0001
    114  N         -6.4750   27.2820  -16.9820 N.3   104  ARG104     -0.1245
    115  CA        -6.6900   28.6090  -16.4140 C.3   104  ARG104      0.1563
    116  C         -7.8510   29.3180  -17.0950 C.2   104  ARG104      0.2260
    117  O         -8.1470   29.0650  -18.2640 O.2   104  ARG104     -0.2867
    118  CB        -5.4400   29.4780  -16.5560 C.3   104  ARG104      0.0307
    119  CG        -4.1450   28.8520  -16.0770 C.3   104  ARG104      0.0489
    120  CD        -2.9570   29.6500  -16.5910 C.3   104  ARG104      0.2205
    121  NE        -2.9050   29.6480  -18.0550 N.pl3 104  ARG104     -0.0865
    122  CZ        -2.8170   30.7330  -18.8250 C.cat 104  ARG104      0.5346
    123  NH1       -2.7550   31.9520  -18.2990 N.pl3 104  ARG104      0.1354
    124  NH2       -2.7840   30.5980  -20.1440 N.pl3 104  ARG104      0.1354
    125  N         -8.3980   28.9320  -11.6220 N.3   111  ILE111     -0.1245
    126  CA        -7.7640   27.7480  -12.1790 C.3   111  ILE111      0.1561
    127  C         -8.6120   26.5370  -11.8240 C.2   111  ILE111      0.2260
    128  O         -9.3310   26.5560  -10.8300 O.2   111  ILE111     -0.2867
    129  CB        -6.3280   27.5600  -11.6350 C.3   111  ILE111      0.0252
    130  CG1       -5.4790   28.8000  -11.9260 C.3   111  ILE111      0.0019
    131  CG2       -5.6750   26.3130  -12.2350 C.3   111  ILE111      0.0019
    132  CD1       -4.1280   28.7970  -11.2410 C.3   111  ILE111      0.0001
    133  N         -0.8860   30.3750   -4.4540 N.3   337  TYR337     -0.1241
    134  CA        -0.6930   29.4670   -5.5760 C.3   337  TYR337      0.1605
    135  C         -1.1140   30.1810   -6.8530 C.2   337  TYR337      0.2264
    136  O         -0.2810   30.4690   -7.7130 O.2   337  TYR337     -0.2867
    137  CB        -1.4870   28.1680   -5.3920 C.3   337  TYR337      0.0534
    138  CG        -1.0450   27.0470   -6.3100 C.ar  337  TYR337     -0.0201
    139  CD1       -1.0790   27.1930   -7.6930 C.ar  337  TYR337     -0.0009
    140  CD2       -0.5960   25.8400   -5.7930 C.ar  337  TYR337     -0.0009
    141  CE1       -0.6690   26.1770   -8.5290 C.ar  337  TYR337      0.0417
    142  CE2       -0.1880   24.8170   -6.6230 C.ar  337  TYR337      0.0417
    143  CZ        -0.2250   24.9910   -7.9900 C.ar  337  TYR337      0.1957
    144  OH         0.1810   23.9750   -8.8240 O.3   337  TYR337     -0.2866
    145  N          0.8970   33.3220   -8.1450 N.3   340  LEU340     -0.1231
    146  CA         2.1110   33.1320   -8.9290 C.3   340  LEU340      0.1693
    147  C          1.7820   32.8440  -10.3850 C.2   340  LEU340      0.2591
    148  O          2.5350   33.2130  -11.2850 O.2   340  LEU340     -0.2718
    149  CB         2.9500   31.9940   -8.3520 C.3   340  LEU340      0.0284
    150  CG         3.6660   32.3120   -7.0400 C.3   340  LEU340      0.0019
    151  CD1        3.3810   31.2500   -6.0030 C.3   340  LEU340      0.0001
    152  CD2        5.1590   32.4340   -7.2730 C.3   340  LEU340      0.0001
    153  N          0.6530   32.1830  -10.6100 N.am  341  VAL341     -0.1980
    154  CA         0.2390   31.8120  -11.9560 C.3   341  VAL341      0.1595
    155  C         -0.0880   33.0340  -12.8090 C.2   341  VAL341      0.2287
    156  O          0.1490   33.0310  -14.0170 O.2   341  VAL341     -0.2864
    157  CB        -0.9850   30.8780  -11.9160 C.3   341  VAL341      0.0276
    158  CG1       -1.5060   30.5960  -13.3230 C.3   341  VAL341      0.0022
    159  CG2       -0.6270   29.5790  -11.2080 C.3   341  VAL341      0.0022
    160  N          3.1770   36.1960  -11.5230 N.3   344  GLY344     -0.1210
    161  CA         4.5280   35.8040  -11.8890 C.3   344  GLY344      0.1956
    162  C          5.5470   35.9230  -10.7690 C.2   344  GLY344      0.2611
    163  O          5.1970   35.8870   -9.5910 O.2   344  GLY344     -0.2717
    164  N          6.8120   36.0670  -11.1570 N.am  345  MET345     -0.1979
    165  CA         7.9380   36.0720  -10.2250 C.3   345  MET345      0.1605
    166  C          7.8030   37.0850   -9.0910 C.2   345  MET345      0.2287
    167  O          8.3020   36.8590   -7.9880 O.2   345  MET345     -0.2864
    168  CB         9.2370   36.3610  -10.9810 C.3   345  MET345      0.0413
    169  CG         9.6060   35.3210  -12.0070 C.3   345  MET345      0.0598
    170  SD         9.9940   33.7300  -11.2660 S.3   345  MET345     -0.1393
    171  CE         9.8530   32.6700  -12.6990 C.3   345  MET345      0.0692
@<TRIPOS>BOND
     1    12    11    2
     2    11    10    1
     3     9    10    1
     4    10    13    1
     5    35    34    1
     6   124   122    1
     7    13    14    1
     8    17    18    1
     9     4     3    2
    10     3     2    1
    11    30    31    1
    12     1     2    1
    13    14    16    1
    14    14    15    1
    15   122   123    1
    16   122   121    2
    17    34    31    1
    18    18    19    1
    19    31    32    1
    20     2     5    1
    21   117   116    2
    22   121   120    1
    23    19    21   am
    24    19    20    2
    25    21    22    1
    26   109   108    2
    27    54    56   ar
    28    54    52   ar
    29    23    22    1
    30    23    24    2
    31    56    55   ar
    32   116   115    1
    33    32    33    2
    34    32    36   am
    35   114   115    1
    36     5     6    1
    37    22    25    1
    38    25    26    1
    39    52    51   ar
    40   120   119    1
    41   108   107    1
    42   118   115    1
    43   118   119    1
    44     8     6    1
    45    36    37    1
    46   106   107    1
    47     6     7    1
    48    55    53   ar
    49    28    27   ar
    50    26    27    1
    51    46    47    1
    52   107   110    1
    53    51    53   ar
    54    51    50    1
    55    27    29   ar
    56   110   111    1
    57   110   112    1
    58    37    38    1
    59    37    40    1
    60    38    39    2
    61    47    50    1
    62    47    48    1
    63    40    41    1
    64   111   113    1
    65   156   155    2
    66    48    57   am
    67    48    49    2
    68   158   157    1
    69    57    58    1
    70   155   154    1
    71    72    70    1
    72   171   170    1
    73    41    43   ar
    74    41    42   ar
    75    59    58    1
    76    59    60    2
    77   131   129    1
    78   126   127    1
    79   126   129    1
    80   126   125    1
    81    58    61    1
    82   169   170    1
    83   169   168    1
    84   154   157    1
    85   154   153    1
    86   130   129    1
    87   130   132    1
    88    43    45   ar
    89   157   159    1
    90   161   160    1
    91   161   162    1
    92   127   128    2
    93    61    62    1
    94    42    44   ar
    95    65    66    1
    96    70    71    1
    97    70    69    1
    98   148   147    2
    99    66    69    1
   100    66    67    1
   101   164   162   am
   102   164   165    1
   103    62    63    1
   104    62    64    1
   105   168   165    1
   106   162   163    2
   107    45    44   ar
   108   153   147   am
   109   147   146    1
   110    67    68    2
   111   165   166    1
   112   166   167    2
   113   146   149    1
   114   146   145    1
   115   144   143    1
   116    83    81   ar
   117    83    82   ar
   118    89    88    1
   119   141   143   ar
   120   141   139   ar
   121    81    79   ar
   122   149   150    1
   123    76    75    2
   124    82    80   ar
   125   143   142   ar
   126    88    85    1
   127   136   135    2
   128   105   103    1
   129   139   138   ar
   130    79    78   ar
   131   152   150    1
   132   104   103    1
   133    80    78   ar
   134   150   151    1
   135    75    74    1
   136    78    77    1
   137   135   134    1
   138    85    84    1
   139    85    86    1
   140   103   102    1
   141   142   140   ar
   142    74    77    1
   143    74    73    1
   144   138   140   ar
   145   138   137    1
   146    95    97    1
   147    95    94    1
   148   134   137    1
   149   134   133    1
   150    87    86    2
   151   102    99    1
   152    90    91    1
   153    91    94    1
   154    91    92    1
   155    94    96    1
   156    99    98    1
   157    99   100    1
   158   101   100    2
   159    92    93    2
