@<TRIPOS>MOLECULE
tmp/5depD01.pdb
 111 102 0 0 0
SMALL
GASTEIGER

@<TRIPOS>ATOM
      1  N         14.6950    7.3530  -13.9360 N.3   112  LEU112     -0.1245
      2  CA        14.4980    6.8730  -15.3020 C.3   112  LEU112      0.1561
      3  C         14.5000    5.3580  -15.2660 C.2   112  LEU112      0.2260
      4  O         15.5050    4.7420  -14.9080 O.2   112  LEU112     -0.2867
      5  CB        15.6170    7.4130  -16.2080 C.3   112  LEU112      0.0270
      6  CG        15.6660    6.9410  -17.6640 C.3   112  LEU112      0.0019
      7  CD1       14.3740    7.2190  -18.3680 C.3   112  LEU112      0.0001
      8  CD2       16.8010    7.6550  -18.3920 C.3   112  LEU112      0.0001
      9  N         13.8100    2.2040  -17.5630 N.3   114  MET114     -0.1245
     10  CA        13.7540    1.9180  -18.9890 C.3   114  MET114      0.1570
     11  C         12.9590    0.6630  -19.2940 C.2   114  MET114      0.2261
     12  O         12.5800   -0.0860  -18.3740 O.2   114  MET114     -0.2867
     13  CB        15.1690    1.8450  -19.5740 C.3   114  MET114      0.0387
     14  CG        15.9470    3.1640  -19.4750 C.3   114  MET114      0.0595
     15  SD        17.4710    3.0700  -20.4490 S.3   114  MET114     -0.1393
     16  CE        18.3500    4.5400  -19.9430 C.3   114  MET114      0.0692
     17  N         18.8360    5.3670  -12.3500 N.3   130  ILE130     -0.1245
     18  CA        18.5980    4.8970  -13.7030 C.3   130  ILE130      0.1561
     19  C         18.6160    3.3790  -13.6760 C.2   130  ILE130      0.2260
     20  O         19.6470    2.7990  -13.3270 O.2   130  ILE130     -0.2867
     21  CB        19.6760    5.4170  -14.6780 C.3   130  ILE130      0.0252
     22  CG1       19.7440    6.9500  -14.6210 C.3   130  ILE130      0.0019
     23  CG2       19.3810    4.9360  -16.0800 C.3   130  ILE130      0.0019
     24  CD1       20.7230    7.5750  -15.5870 C.3   130  ILE130      0.0001
     25  N         18.3060    0.6270  -16.3400 N.3   132  VAL132     -0.1245
     26  CA        18.3380    0.3370  -17.7620 C.3   132  VAL132      0.1561
     27  C         17.4130   -0.8740  -18.0560 C.2   132  VAL132      0.2260
     28  O         16.9910   -1.5910  -17.1400 O.2   132  VAL132     -0.2867
     29  CB        19.8220    0.2140  -18.2420 C.3   132  VAL132      0.0252
     30  CG1       19.9670   -0.1470  -19.7360 C.3   132  VAL132      0.0019
     31  CG2       20.5790    1.4980  -17.9300 C.3   132  VAL132      0.0019
     32  N         23.0160    3.6350  -10.7960 N.3   148  ILE148     -0.1245
     33  CA        22.7550    3.2020  -12.1550 C.3   148  ILE148      0.1561
     34  C         22.9220    1.6910  -12.2030 C.2   148  ILE148      0.2260
     35  O         23.9820    1.1770  -11.8320 O.2   148  ILE148     -0.2867
     36  CB        23.6830    3.8750  -13.1680 C.3   148  ILE148      0.0252
     37  CG1       23.4700    5.4090  -13.1330 C.3   148  ILE148      0.0019
     38  CG2       23.4570    3.2900  -14.5870 C.3   148  ILE148      0.0019
     39  CD1       24.5430    6.2040  -13.8770 C.3   148  ILE148      0.0001
     40  N         27.1930    1.6080   -9.5530 N.3   166  PHE166     -0.1241
     41  CA        27.0420    1.3050  -10.9620 C.3   166  PHE166      0.1605
     42  C         27.1910   -0.1800  -11.1730 C.2   166  PHE166      0.2264
     43  O         28.1810   -0.7700  -10.7030 O.2   166  PHE166     -0.2867
     44  CB        28.1010    2.0450  -11.7760 C.3   166  PHE166      0.0534
     45  CG        28.0480    1.7700  -13.2570 C.ar  166  PHE166     -0.0203
     46  CD1       27.2750    2.5730  -14.1000 C.ar  166  PHE166     -0.0042
     47  CD2       28.7680    0.7180  -13.8220 C.ar  166  PHE166     -0.0042
     48  CE1       27.2260    2.3280  -15.4820 C.ar  166  PHE166     -0.0003
     49  CE2       28.7210    0.4690  -15.1940 C.ar  166  PHE166     -0.0003
     50  CZ        27.9510    1.2800  -16.0230 C.ar  166  PHE166     -0.0000
     51  N         31.5070    0.0020   -8.3700 N.3   182  THR182     -0.1218
     52  CA        31.1390   -0.5700   -9.6490 C.3   182  THR182      0.1862
     53  C         31.2540   -2.0660   -9.5150 C.2   182  THR182      0.2287
     54  O         32.2680   -2.5740   -9.0070 O.2   182  THR182     -0.2866
     55  CB        32.0220   -0.0540  -10.8000 C.3   182  THR182      0.1770
     56  OG1       33.3740   -0.4030  -10.5280 O.3   182  THR182     -0.2211
     57  CG2       31.9490    1.4350  -10.9080 C.3   182  THR182      0.0375
     58  N         30.3820   -5.9320  -11.5990 N.3   184  PHE184     -0.1241
     59  CA        30.2000   -6.6070  -12.8810 C.3   184  PHE184      0.1605
     60  C         30.1110   -8.0950  -12.6870 C.2   184  PHE184      0.2264
     61  O         30.7290   -8.6160  -11.7600 O.2   184  PHE184     -0.2867
     62  CB        31.3840   -6.3690  -13.8090 C.3   184  PHE184      0.0534
     63  CG        31.5100   -4.9590  -14.2700 C.ar  184  PHE184     -0.0203
     64  CD1       32.1960   -4.0250  -13.5000 C.ar  184  PHE184     -0.0042
     65  CD2       30.9470   -4.5570  -15.4700 C.ar  184  PHE184     -0.0042
     66  CE1       32.2980   -2.7020  -13.9170 C.ar  184  PHE184     -0.0003
     67  CE2       31.0470   -3.2370  -15.8910 C.ar  184  PHE184     -0.0003
     68  CZ        31.7130   -2.3100  -15.1070 C.ar  184  PHE184     -0.0000
     69  N         32.8790    4.1510   -8.9620 N.3   194  ASN194     -0.1240
     70  CA        32.2980    4.8290  -10.0940 C.3   194  ASN194      0.1653
     71  C         32.8440    6.2600  -10.2550 C.2   194  ASN194      0.2266
     72  O         32.1270    7.2250  -10.0520 O.2   194  ASN194     -0.2867
     73  CB        30.7680    4.8010   -9.9630 C.3   194  ASN194      0.1155
     74  CG        30.0740    5.4220  -11.1670 C.2   194  ASN194      0.2627
     75  OD1       30.6830    5.5600  -12.2370 O.2   194  ASN194     -0.2716
     76  ND2       28.8150    5.8150  -11.0010 N.am  194  ASN194     -0.0877
     77  N         33.7530    7.8160  -12.9970 N.3   196  GLU196     -0.1231
     78  CA        33.0880    8.4570  -14.1300 C.3   196  GLU196      0.1699
     79  C         31.8530    9.1940  -13.6530 C.2   196  GLU196      0.2592
     80  O         31.6970   10.3770  -13.9430 O.2   196  GLU196     -0.2718
     81  CB        32.7450    7.4260  -15.2190 C.3   196  GLU196      0.0402
     82  CG        31.9790    7.9480  -16.4410 C.3   196  GLU196      0.1161
     83  CD        32.6900    9.0660  -17.1960 C.2   196  GLU196      0.3649
     84  OE1       33.9200    9.2090  -17.0700 O.co2 196  GLU196     -0.2457
     85  OE2       32.0060    9.8100  -17.9250 O.co2 196  GLU196     -0.2457
     86  N         31.0120    8.5050  -12.8880 N.am  197  GLY197     -0.1957
     87  CA        29.8540    9.1210  -12.2360 C.3   197  GLY197      0.1869
     88  C         30.2180   10.3290  -11.3790 C.2   197  GLY197      0.2309
     89  O         29.5920   11.3940  -11.4920 O.2   197  GLY197     -0.2863
     90  N         31.1000   13.3440  -13.6160 N.3   200  ARG200     -0.1231
     91  CA        29.9110   13.9620  -14.2530 C.3   200  ARG200      0.1694
     92  C         29.0320   14.7460  -13.2740 C.2   200  ARG200      0.2591
     93  O         28.3100   15.6590  -13.6690 O.2   200  ARG200     -0.2718
     94  CB        29.0360   12.9070  -14.9480 C.3   200  ARG200      0.0321
     95  CG        29.6890   12.1840  -16.1130 C.3   200  ARG200      0.0489
     96  CD        28.7480   11.1120  -16.6670 C.3   200  ARG200      0.2205
     97  NE        29.3880   10.2770  -17.6860 N.pl3 200  ARG200     -0.0865
     98  CZ        28.7710    9.3620  -18.4470 C.cat 200  ARG200      0.5346
     99  NH1       27.4560    9.1320  -18.3510 N.pl3 200  ARG200      0.1354
    100  NH2       29.4790    8.6560  -19.3220 N.pl3 200  ARG200      0.1354
    101  N         29.0860   14.3750  -12.0020 N.am  201  ARG201     -0.1980
    102  CA        28.2670   15.0060  -10.9840 C.3   201  ARG201      0.1597
    103  C         29.0440   16.0850  -10.2210 C.2   201  ARG201      0.2287
    104  O         28.5780   16.5730   -9.1920 O.2   201  ARG201     -0.2864
    105  CB        27.7260   13.9190  -10.0560 C.3   201  ARG201      0.0334
    106  CG        26.7940   12.9560  -10.7850 C.3   201  ARG201      0.0492
    107  CD        26.6270   11.6030  -10.0820 C.3   201  ARG201      0.2205
    108  NE        26.2370   10.5980  -11.0780 N.pl3 201  ARG201     -0.0865
    109  CZ        26.3250    9.2730  -10.9610 C.cat 201  ARG201      0.5346
    110  NH1       26.7360    8.6760   -9.8590 N.pl3 201  ARG201      0.1354
    111  NH2       25.9600    8.5290  -11.9820 N.pl3 201  ARG201      0.1354
@<TRIPOS>BOND
     1    15    16    1
     2    15    14    1
     3    30    29    1
     4    13    14    1
     5    13    10    1
     6   100    98    1
     7    11    10    1
     8    11    12    2
     9    10     9    1
    10    98    99    1
    11    98    97    2
    12     8     6    1
    13     7     6    1
    14    29    31    1
    15    29    26    1
    16    27    26    1
    17    27    28    2
    18    85    83   ar
    19    26    25    1
    20    97    96    1
    21     6     5    1
    22    83    84   ar
    23    83    82    1
    24    96    95    1
    25    82    81    1
    26     5     2    1
    27    95    94    1
    28    23    21    1
    29    50    48   ar
    30    50    49   ar
    31    67    65   ar
    32    67    68   ar
    33    24    22    1
    34    48    46   ar
    35    65    63   ar
    36     2     3    1
    37     2     1    1
    38     3     4    2
    39    81    78    1
    40    49    47   ar
    41    68    66   ar
    42    94    91    1
    43    21    22    1
    44    21    18    1
    45    38    36    1
    46    63    62    1
    47    63    64   ar
    48    91    90    1
    49    91    92    1
    50    78    79    1
    51    78    77    1
    52    46    45   ar
    53    80    79    2
    54    66    64   ar
    55    39    37    1
    56    47    45   ar
    57    62    59    1
    58    18    19    1
    59    18    17    1
    60    19    20    2
    61    93    92    2
    62    79    86   am
    63    92   101   am
    64    45    44    1
    65    36    37    1
    66    36    33    1
    67    86    87    1
    68    59    60    1
    69    59    58    1
    70    60    61    2
    71    75    74    2
    72    87    88    1
    73    34    33    1
    74    34    35    2
    75    33    32    1
    76   101   102    1
    77   111   109    1
    78    44    41    1
    79    89    88    2
    80    42    41    1
    81    42    43    2
    82    74    76   am
    83    74    73    1
    84   108   109    2
    85   108   107    1
    86   102   103    1
    87   102   105    1
    88    41    40    1
    89   109   110    1
    90    57    55    1
    91    55    56    1
    92    55    52    1
    93   106   107    1
    94   106   105    1
    95    71    70    1
    96    71    72    2
    97   103   104    2
    98    70    73    1
    99    70    69    1
   100    52    53    1
   101    52    51    1
   102    53    54    2
