@<TRIPOS>MOLECULE
tmp/5depF01.pdb
 106 105 0 0 0
SMALL
GASTEIGER

@<TRIPOS>ATOM
      1  N         14.4840    7.5440  -28.1290 N.3    66  THR66      -0.1204
      2  CA        15.4140    7.0120  -27.1260 C.3    66  THR66       0.1979
      3  C         15.3050    7.7370  -25.7880 C.2    66  THR66       0.2460
      4  O         15.0720    8.9390  -25.7600 O.2    66  THR66      -0.2732
      5  CB        16.8750    7.0910  -27.5650 C.3    66  THR66       0.1783
      6  OG1       17.6840    6.4080  -26.6100 O.3    66  THR66      -0.2211
      7  CG2       17.3860    8.5470  -27.7020 C.3    66  THR66       0.0376
      8  N         15.5150    7.0060  -24.6810 N.am   67  PRO67      -0.2717
      9  CA        15.6100    7.6360  -23.3830 C.3    67  PRO67       0.1535
     10  C         17.0070    8.1480  -23.0470 C.2    67  PRO67       0.2599
     11  O         17.1860    8.6590  -21.9550 O.2    67  PRO67      -0.2715
     12  CB        15.2170    6.5070  -22.4380 C.3    67  PRO67       0.0310
     13  CG        15.7660    5.2980  -23.1140 C.3    67  PRO67       0.0237
     14  CD        15.5080    5.5310  -24.5620 C.3    67  PRO67       0.0939
     15  N         17.9790    7.9910  -23.9570 N.am   68  ASP68      -0.1958
     16  CA        19.2950    8.6520  -23.8590 C.3    68  ASP68       0.1840
     17  C         19.0660   10.0790  -23.3660 C.2    68  ASP68       0.2622
     18  O         18.3150   10.8210  -23.9910 O.2    68  ASP68      -0.2715
     19  CB        20.0020    8.6590  -25.2400 C.3    68  ASP68       0.1450
     20  CG        21.4560    9.1540  -25.1900 C.2    68  ASP68       0.3671
     21  OD1       21.8690    9.7260  -24.1600 O.co2  68  ASP68      -0.2456
     22  OD2       22.2000    8.9860  -26.2050 O.co2  68  ASP68      -0.2456
     23  N         19.6900   10.4440  -22.2440 N.am   69  LEU69      -0.1963
     24  CA        19.5510   11.8060  -21.6680 C.3    69  LEU69       0.1728
     25  C         20.1500   12.9280  -22.5400 C.2    69  LEU69       0.2616
     26  O         19.9170   14.1080  -22.2760 O.2    69  LEU69      -0.2715
     27  CB        20.1680   11.8720  -20.2710 C.3    69  LEU69       0.0311
     28  CG        19.5890   10.9410  -19.1820 C.3    69  LEU69       0.0022
     29  CD1       20.3540   11.1090  -17.8780 C.3    69  LEU69       0.0001
     30  CD2       18.0960   11.1620  -18.9460 C.3    69  LEU69       0.0001
     31  N         20.9430   12.5590  -23.5440 N.am   70  LYS70      -0.1977
     32  CA        21.4220   13.5100  -24.5590 C.3    70  LYS70       0.1596
     33  C         20.3530   13.8910  -25.5980 C.2    70  LYS70       0.2287
     34  O         20.4510   14.9690  -26.1880 O.2    70  LYS70      -0.2864
     35  CB        22.7040   12.9860  -25.2570 C.3    70  LYS70       0.0298
     36  CG        23.8820   12.7570  -24.2980 C.3    70  LYS70       0.0038
     37  CD        25.1980   12.3660  -24.9840 C.3    70  LYS70       0.0206
     38  CE        25.1050   11.1160  -25.8660 C.3    70  LYS70       0.1093
     39  NZ        24.8170    9.8390  -25.1380 N.3    70  LYS70      -0.1314
     40  N         18.9320    3.3560  -30.0100 N.3   119  HIS119     -0.1241
     41  CA        19.2540    4.4780  -30.8730 C.3   119  HIS119      0.1621
     42  C         20.5840    4.3920  -31.6310 C.2   119  HIS119      0.2264
     43  O         21.6220    4.0660  -31.0520 O.2   119  HIS119     -0.2867
     44  CB        19.2710    5.7420  -30.0450 C.3   119  HIS119      0.0745
     45  CG        20.3480    5.7730  -29.0230 C.ar  119  HIS119      0.0817
     46  ND1       21.5560    6.3870  -29.2440 N.ar  119  HIS119     -0.2268
     47  CD2       20.4220    5.2320  -27.7890 C.ar  119  HIS119      0.1154
     48  CE1       22.3190    6.2520  -28.1760 C.ar  119  HIS119      0.1986
     49  NE2       21.6600    5.5340  -27.2870 N.ar  119  HIS119     -0.2212
     50  N         22.3990   -1.9920  -27.0750 N.3   136  ALA136     -0.1245
     51  CA        22.3130   -0.8170  -26.2100 C.3   136  ALA136      0.1562
     52  C         22.3010    0.5480  -26.8850 C.2   136  ALA136      0.2260
     53  O         21.7500    1.5150  -26.3120 O.2   136  ALA136     -0.2867
     54  CB        23.3830   -0.8420  -25.1470 C.3   136  ALA136      0.0290
     55  N         24.0970    2.5090  -30.8170 N.3   138  HIS138     -0.1241
     56  CA        25.2360    2.6080  -31.7550 C.3   138  HIS138      0.1621
     57  C         25.8510    1.2320  -32.1190 C.2   138  HIS138      0.2264
     58  O         27.0400    1.1570  -32.4080 O.2   138  HIS138     -0.2867
     59  CB        26.3950    3.4630  -31.2080 C.3   138  HIS138      0.0745
     60  CG        26.0010    4.6670  -30.4260 C.ar  138  HIS138      0.0817
     61  ND1       25.7210    5.8810  -31.0180 N.ar  138  HIS138     -0.2268
     62  CD2       25.9500    4.8770  -29.0890 C.ar  138  HIS138      0.1154
     63  CE1       25.4770    6.7770  -30.0800 C.ar  138  HIS138      0.1986
     64  NE2       25.6040    6.1920  -28.9010 N.ar  138  HIS138     -0.2212
     65  N         26.8110   -4.3700  -25.6960 N.3   154  HIS154     -0.1226
     66  CA        27.2610   -3.0940  -25.1830 C.3   154  HIS154      0.1752
     67  C         27.3050   -2.0410  -26.3090 C.2   154  HIS154      0.2596
     68  O         27.5060   -2.3610  -27.4880 O.2   154  HIS154     -0.2718
     69  CB        28.6300   -3.2620  -24.5180 C.3   154  HIS154      0.0759
     70  CG        29.1020   -2.0750  -23.7480 C.ar  154  HIS154      0.0818
     71  ND1       29.7450   -1.0130  -24.3390 N.ar  154  HIS154     -0.2268
     72  CD2       29.0880   -1.8080  -22.4210 C.ar  154  HIS154      0.1154
     73  CE1       30.0660   -0.1210  -23.4190 C.ar  154  HIS154      0.1986
     74  NE2       29.6660   -0.5750  -22.2480 N.ar  154  HIS154     -0.2212
     75  N         27.0830   -0.7890  -25.9280 N.am  155  GLN155     -0.1965
     76  CA        27.0610    0.3200  -26.9000 C.3   155  GLN155      0.1733
     77  C         28.3570    0.3790  -27.7020 C.2   155  GLN155      0.2616
     78  O         29.4170    0.0890  -27.1780 O.2   155  GLN155     -0.2715
     79  CB        26.7940    1.6730  -26.2480 C.3   155  GLN155      0.0408
     80  CG        27.7520    2.0670  -25.1400 C.3   155  GLN155      0.0908
     81  CD        27.2340    1.6970  -23.7620 C.2   155  GLN155      0.2608
     82  OE1       26.5030    0.6850  -23.5900 O.2   155  GLN155     -0.2717
     83  NE2       27.5700    2.5450  -22.7540 N.am  155  GLN155     -0.0878
     84  N         28.2210    0.7370  -28.9750 N.am  156  TYR156     -0.1974
     85  CA        29.2950    0.8280  -29.9580 C.3   156  TYR156      0.1639
     86  C         29.8960   -0.4770  -30.4530 C.2   156  TYR156      0.2290
     87  O         30.7530   -0.4110  -31.3170 O.2   156  TYR156     -0.2864
     88  CB        30.4350    1.7520  -29.5110 C.3   156  TYR156      0.0560
     89  CG        30.0170    3.1220  -29.1080 C.ar  156  TYR156     -0.0198
     90  CD1       29.6920    4.0720  -30.0740 C.ar  156  TYR156     -0.0009
     91  CD2       29.9880    3.4990  -27.7650 C.ar  156  TYR156     -0.0009
     92  CE1       29.3080    5.3700  -29.7070 C.ar  156  TYR156      0.0417
     93  CE2       29.6010    4.7930  -27.3800 C.ar  156  TYR156      0.0417
     94  CZ        29.2670    5.7210  -28.3620 C.ar  156  TYR156      0.1957
     95  OH        28.9010    6.9930  -28.0120 O.3   156  TYR156     -0.2866
     96  N         36.6370   -1.3740  -30.2930 N.3   252  ARG252     -0.1245
     97  CA        36.6260   -1.7870  -28.8660 C.3   252  ARG252      0.1563
     98  C         37.5650   -2.9660  -28.5410 C.2   252  ARG252      0.2260
     99  O         37.5000   -3.5140  -27.4360 O.2   252  ARG252     -0.2867
    100  CB        35.1750   -2.0500  -28.4100 C.3   252  ARG252      0.0307
    101  CG        34.2910   -0.7980  -28.5290 C.3   252  ARG252      0.0489
    102  CD        32.8590   -1.0130  -28.0660 C.3   252  ARG252      0.2205
    103  NE        32.7800   -1.4850  -26.6790 N.pl3 252  ARG252     -0.0865
    104  CZ        32.9420   -0.7330  -25.5820 C.cat 252  ARG252      0.5346
    105  NH1       33.1890    0.5830  -25.6560 N.pl3 252  ARG252      0.1354
    106  NH2       32.8590   -1.3110  -24.3790 N.pl3 252  ARG252      0.1354
@<TRIPOS>BOND
     1    58    57    2
     2    57    56    1
     3    56    59    1
     4    56    55    1
     5    42    43    2
     6    42    41    1
     7    87    86    2
     8    59    60    1
     9    61    60   ar
    10    61    63   ar
    11    41    44    1
    12    41    40    1
    13    86    85    1
    14    60    62   ar
    15    96    97    1
    16    63    64   ar
    17    90    92   ar
    18    90    89   ar
    19    44    45    1
    20    85    88    1
    21    85    84    1
    22    92    94   ar
    23    88    89    1
    24    46    45   ar
    25    46    48   ar
    26    89    91   ar
    27    62    64   ar
    28    45    47   ar
    29    84    77   am
    30    97    98    1
    31    97   100    1
    32    98    99    2
    33   101   100    1
    34   101   102    1
    35    94    95    1
    36    94    93   ar
    37    48    49   ar
    38     1     2    1
    39   102   103    1
    40    47    49   ar
    41    91    93   ar
    42    77    78    2
    43    77    76    1
    44     7     5    1
    45     5     2    1
    46     5     6    1
    47    68    67    2
    48     2     3    1
    49    50    51    1
    50    76    79    1
    51    76    75    1
    52    52    53    2
    53    52    51    1
    54   103   104    2
    55    67    75   am
    56    67    66    1
    57    79    80    1
    58    51    54    1
    59    22    20   ar
    60    34    33    2
    61    38    39    1
    62    38    37    1
    63     3     4    2
    64     3     8   am
    65    65    66    1
    66   105   104    1
    67    33    32    1
    68   104   106    1
    69    35    32    1
    70    35    36    1
    71    19    20    1
    72    19    16    1
    73    20    21   ar
    74    66    69    1
    75    80    81    1
    76    37    36    1
    77     8    14    1
    78     8     9    1
    79    14    13    1
    80    32    31    1
    81    69    70    1
    82    71    70   ar
    83    71    73   ar
    84    18    17    2
    85    15    16    1
    86    15    10   am
    87    16    17    1
    88    81    82    2
    89    81    83   am
    90    70    72   ar
    91    31    25   am
    92    73    74   ar
    93     9    10    1
    94     9    12    1
    95    17    23   am
    96    13    12    1
    97    10    11    2
    98    25    26    2
    99    25    24    1
   100    72    74   ar
   101    23    24    1
   102    24    27    1
   103    27    28    1
   104    28    30    1
   105    28    29    1
