@<TRIPOS>MOLECULE
tmp/5depD00.pdb
 113 113 0 0 0
SMALL
GASTEIGER

@<TRIPOS>ATOM
      1  N         12.6720   12.0130  -10.0200 N.3   110  HIS110     -0.1241
      2  CA        13.6790   12.1410  -11.1080 C.3   110  HIS110      0.1621
      3  C         14.3420   10.8420  -11.5650 C.2   110  HIS110      0.2264
      4  O         15.4550   10.8550  -12.0700 O.2   110  HIS110     -0.2867
      5  CB        14.7460   13.1690  -10.7420 C.3   110  HIS110      0.0745
      6  CG        14.2150   14.5560  -10.6230 C.ar  110  HIS110      0.0817
      7  ND1       13.8920   15.3270  -11.7240 N.ar  110  HIS110     -0.2268
      8  CD2       13.9600   15.3210   -9.5390 C.ar  110  HIS110      0.1154
      9  CE1       13.4490   16.5010  -11.3180 C.ar  110  HIS110      0.1986
     10  NE2       13.4900   16.5250   -9.9970 N.ar  110  HIS110     -0.2212
     11  N         16.1290    8.7820   -5.4840 N.3   127  ASN127     -0.1225
     12  CA        16.0350    9.8530   -6.4810 C.3   127  ASN127      0.1785
     13  C         17.1580    9.7800   -7.4900 C.2   127  ASN127      0.2597
     14  O         18.2660    9.3890   -7.1410 O.2   127  ASN127     -0.2718
     15  CB        16.1060   11.2320   -5.7920 C.3   127  ASN127      0.1169
     16  CG        15.0660   11.3800   -4.6870 C.2   127  ASN127      0.2627
     17  OD1       13.8830   11.0470   -4.8580 O.2   127  ASN127     -0.2716
     18  ND2       15.5150   11.8330   -3.5370 N.am  127  ASN127     -0.0877
     19  N         16.8920   10.1970   -8.7250 N.am  128  HIS128     -0.1975
     20  CA        17.9530   10.3160   -9.7560 C.3   128  HIS128      0.1656
     21  C         18.6080    8.9900  -10.1550 C.2   128  HIS128      0.2291
     22  O         19.7380    8.9900  -10.6510 O.2   128  HIS128     -0.2864
     23  CB        19.0360   11.3290   -9.3490 C.3   128  HIS128      0.0771
     24  CG        18.4980   12.7140   -9.1760 C.ar  128  HIS128      0.0820
     25  ND1       18.0930   13.5030  -10.2420 N.ar  128  HIS128     -0.2267
     26  CD2       18.2650   13.4370   -8.0580 C.ar  128  HIS128      0.1154
     27  CE1       17.6300   14.6460   -9.7800 C.ar  128  HIS128      0.1986
     28  NE2       17.7280   14.6320   -8.4590 N.ar  128  HIS128     -0.2212
     29  N         20.1410    6.9620   -3.9310 N.3   145  ASP145     -0.1225
     30  CA        20.1620    8.0380   -4.9340 C.3   145  ASP145      0.1805
     31  C         21.2960    7.9130   -5.9140 C.2   145  ASP145      0.2597
     32  O         22.3760    7.4890   -5.5440 O.2   145  ASP145     -0.2718
     33  CB        20.2790    9.4050   -4.2540 C.3   145  ASP145      0.1424
     34  CG        19.0800    9.7150   -3.3140 C.2   145  ASP145      0.3668
     35  OD1       18.1050    8.9770   -3.3210 O.co2 145  ASP145     -0.2456
     36  OD2       19.1390   10.6960   -2.5610 O.co2 145  ASP145     -0.2456
     37  N         21.0260    8.2960   -7.1630 N.am  146  TRP146     -0.1976
     38  CA        22.0160    8.3230   -8.2460 C.3   146  TRP146      0.1640
     39  C         22.5730    6.9480   -8.6840 C.2   146  TRP146      0.2290
     40  O         23.4340    6.8870   -9.5640 O.2   146  TRP146     -0.2864
     41  CB        23.1460    9.3140   -7.9100 C.3   146  TRP146      0.0576
     42  CG        22.6690   10.7600   -7.7920 C.ar  146  TRP146      0.0006
     43  CD1       22.3440   11.4340   -6.6410 C.ar  146  TRP146      0.0946
     44  CD2       22.4750   11.7010   -8.8730 C.ar  146  TRP146      0.0152
     45  NE1       21.9720   12.7390   -6.9390 N.ar  146  TRP146     -0.2442
     46  CE2       22.0410   12.9270   -8.2940 C.ar  146  TRP146      0.0810
     47  CE3       22.6310   11.6290  -10.2640 C.ar  146  TRP146      0.0012
     48  CZ2       21.7410   14.0630   -9.0670 C.ar  146  TRP146      0.0191
     49  CZ3       22.3480   12.7730  -11.0410 C.ar  146  TRP146      0.0001
     50  CH2       21.8980   13.9740  -10.4300 C.ar  146  TRP146      0.0015
     51  N         25.0910    6.2970   -5.8880 N.3   164  HIS164     -0.1241
     52  CA        26.0980    6.5880   -6.8980 C.3   164  HIS164      0.1621
     53  C         26.8150    5.3090   -7.3980 C.2   164  HIS164      0.2264
     54  O         27.8610    5.4080   -8.0410 O.2   164  HIS164     -0.2867
     55  CB        27.1210    7.6310   -6.3860 C.3   164  HIS164      0.0745
     56  CG        26.5360    8.9700   -6.0390 C.ar  164  HIS164      0.0817
     57  ND1       26.2750    9.9490   -6.9800 N.ar  164  HIS164     -0.2268
     58  CD2       26.1880    9.5060   -4.8400 C.ar  164  HIS164      0.1154
     59  CE1       25.7610   11.0100   -6.3840 C.ar  164  HIS164      0.1986
     60  NE2       25.7010   10.7690   -5.0870 N.ar  164  HIS164     -0.2212
     61  N         28.9330    4.0980   -4.2910 N.3   180  TYR180     -0.1241
     62  CA        29.9900    4.3900   -5.2610 C.3   180  TYR180      0.1605
     63  C         30.6720    3.1980   -5.9480 C.2   180  TYR180      0.2264
     64  O         31.4590    3.3990   -6.8790 O.2   180  TYR180     -0.2867
     65  CB        31.0610    5.3330   -4.6940 C.3   180  TYR180      0.0534
     66  CG        30.5250    6.4610   -3.8390 C.ar  180  TYR180     -0.0201
     67  CD1       30.0200    7.6270   -4.4080 C.ar  180  TYR180     -0.0009
     68  CD2       30.5420    6.3560   -2.4650 C.ar  180  TYR180     -0.0009
     69  CE1       29.5430    8.6610   -3.6140 C.ar  180  TYR180      0.0417
     70  CE2       30.0590    7.3640   -1.6630 C.ar  180  TYR180      0.0417
     71  CZ        29.5670    8.5150   -2.2330 C.ar  180  TYR180      0.1957
     72  OH        29.0820    9.4740   -1.4010 O.3   180  TYR180     -0.2866
     73  N         29.0860   14.3750  -12.0020 N.3   201  ARG201     -0.1231
     74  CA        28.2670   15.0060  -10.9840 C.3   201  ARG201      0.1694
     75  C         29.0440   16.0850  -10.2210 C.2   201  ARG201      0.2593
     76  O         28.5780   16.5730   -9.1920 O.2   201  ARG201     -0.2718
     77  CB        27.7260   13.9190  -10.0560 C.3   201  ARG201      0.0321
     78  CG        26.7940   12.9560  -10.7850 C.3   201  ARG201      0.0489
     79  CD        26.6270   11.6030  -10.0820 C.3   201  ARG201      0.2205
     80  NE        26.2370   10.5980  -11.0780 N.pl3 201  ARG201     -0.0865
     81  CZ        26.3250    9.2730  -10.9610 C.cat 201  ARG201      0.5346
     82  NH1       26.7360    8.6760   -9.8590 N.pl3 201  ARG201      0.1354
     83  NH2       25.9600    8.5290  -11.9820 N.pl3 201  ARG201      0.1354
     84  N         30.2210   16.4650  -10.7340 N.am  202  GLY202     -0.1942
     85  CA        31.0350   17.5120  -10.1230 C.3   202  GLY202      0.2014
     86  C         31.5450   17.2290   -8.7110 C.2   202  GLY202      0.2639
     87  O         31.5220   18.1250   -7.8630 O.2   202  GLY202     -0.2714
     88  N         31.9950   15.9980   -8.4470 N.am  203  PHE203     -0.1959
     89  CA        32.6540   15.6860   -7.1590 C.3   203  PHE203      0.1771
     90  C         33.9970   16.4270   -7.0900 C.2   203  PHE203      0.2620
     91  O         34.7000   16.5560   -8.1070 O.2   203  PHE203     -0.2715
     92  CB        32.9160   14.1780   -6.9710 C.3   203  PHE203      0.0574
     93  CG        31.7210   13.3760   -6.4610 C.ar  203  PHE203     -0.0200
     94  CD1       30.4640   13.4770   -7.0640 C.ar  203  PHE203     -0.0042
     95  CD2       31.8760   12.4790   -5.4100 C.ar  203  PHE203     -0.0042
     96  CE1       29.3890   12.7220   -6.6010 C.ar  203  PHE203     -0.0003
     97  CE2       30.8060   11.7230   -4.9500 C.ar  203  PHE203     -0.0003
     98  CZ        29.5570   11.8480   -5.5490 C.ar  203  PHE203     -0.0000
     99  N         34.3410   16.8950   -5.8870 N.am  204  SER204     -0.1950
    100  CA        35.6230   17.5590   -5.6420 C.3   204  SER204      0.1924
    101  C         36.7210   16.5080   -5.7710 C.2   204  SER204      0.2314
    102  O         36.4840   15.3270   -5.4790 O.2   204  SER204     -0.2863
    103  CB        35.6520   18.2250   -4.2540 C.3   204  SER204      0.2116
    104  OG        35.9580   17.3090   -3.2060 O.3   204  SER204     -0.2180
    105  N         31.0480   12.2410    1.7500 N.3   241  GLU241     -0.1245
    106  CA        31.0270   11.2340    0.7030 C.3   241  GLU241      0.1567
    107  C         31.5730    9.9300    1.2260 C.2   241  GLU241      0.2260
    108  O         31.0520    8.8800    0.8760 O.2   241  GLU241     -0.2867
    109  CB        31.7950   11.6780   -0.5460 C.3   241  GLU241      0.0388
    110  CG        31.1840   12.8830   -1.2680 C.3   241  GLU241      0.1160
    111  CD        31.6680   14.2170   -0.7310 C.2   241  GLU241      0.3649
    112  OE1       32.2490   14.2430    0.3750 O.co2 241  GLU241     -0.2457
    113  OE2       31.4620   15.2420   -1.4160 O.co2 241  GLU241     -0.2457
@<TRIPOS>BOND
     1     4     3    2
     2    73    74    1
     3    83    81    1
     4     7     9   ar
     5     7     6   ar
     6     3     2    1
     7     9    10   ar
     8     2     5    1
     9     2     1    1
    10    80    81    2
    11    80    79    1
    12    49    50   ar
    13    49    47   ar
    14    74    75    1
    15    74    77    1
    16    81    82    1
    17    78    79    1
    18    78    77    1
    19     5     6    1
    20    84    75   am
    21    84    85    1
    22    22    21    2
    23     6     8   ar
    24    50    48   ar
    25    47    44   ar
    26    25    27   ar
    27    25    24   ar
    28    75    76    2
    29    21    20    1
    30    85    86    1
    31    10     8   ar
    32    27    28   ar
    33    20    23    1
    34    20    19    1
    35    40    39    2
    36    23    24    1
    37    24    26   ar
    38    48    46   ar
    39    44    46   ar
    40    44    42   ar
    41    19    13   am
    42    86    88   am
    43    86    87    2
    44    39    38    1
    45    28    26   ar
    46    88    89    1
    47    46    45   ar
    48    38    41    1
    49    38    37    1
    50    91    90    2
    51    54    53    2
    52    41    42    1
    53    42    43   ar
    54    13    14    2
    55    13    12    1
    56    53    52    1
    57    37    31   am
    58    89    90    1
    59    89    92    1
    60    90    99   am
    61    94    96   ar
    62    94    93   ar
    63    57    59   ar
    64    57    56   ar
    65    92    93    1
    66    45    43   ar
    67    52    55    1
    68    52    51    1
    69    64    63    2
    70    96    98   ar
    71    12    15    1
    72    12    11    1
    73    93    95   ar
    74    55    56    1
    75    59    60   ar
    76    56    58   ar
    77    63    62    1
    78    31    32    2
    79    31    30    1
    80    99   100    1
    81    15    16    1
    82   101   100    1
    83   101   102    2
    84   100   103    1
    85    98    97   ar
    86    95    97   ar
    87    62    65    1
    88    62    61    1
    89    60    58   ar
    90    30    33    1
    91    30    29    1
    92    17    16    2
    93    65    66    1
    94    16    18   am
    95    67    66   ar
    96    67    69   ar
    97    33    34    1
    98   103   104    1
    99    66    68   ar
   100    69    71   ar
   101    35    34   ar
   102    34    36   ar
   103    68    70   ar
   104    71    70   ar
   105    71    72    1
   106   113   111   ar
   107   110   111    1
   108   110   109    1
   109   111   112   ar
   110   109   106    1
   111   106   107    1
   112   106   105    1
   113   108   107    2
