@<TRIPOS>MOLECULE
tmp/5depF02.pdb
 120 114 0 0 0
SMALL
GASTEIGER

@<TRIPOS>ATOM
      1  N         -5.6570    4.3400  -34.9080 N.3     7  ILE7       -0.1245
      2  CA        -5.4070    5.7670  -35.0630 C.3     7  ILE7        0.1561
      3  C         -4.3170    5.9830  -36.1310 C.2     7  ILE7        0.2260
      4  O         -3.1450    5.6140  -35.9200 O.2     7  ILE7       -0.2867
      5  CB        -4.9550    6.3940  -33.7410 C.3     7  ILE7        0.0252
      6  CG1       -6.0680    6.2910  -32.7160 C.3     7  ILE7        0.0019
      7  CG2       -4.6050    7.8610  -33.9430 C.3     7  ILE7        0.0019
      8  CD1       -5.6740    6.5600  -31.2850 C.3     7  ILE7        0.0001
      9  N         -2.4620    8.8330  -38.1170 N.3     9  ASP9       -0.1225
     10  CA        -2.2250   10.2660  -38.1670 C.3     9  ASP9        0.1790
     11  C         -2.3940   10.7770  -39.6100 C.2     9  ASP9        0.2439
     12  O         -1.9080   10.1450  -40.5540 O.2     9  ASP9       -0.2733
     13  CB        -0.8290   10.6110  -37.6850 C.3     9  ASP9        0.1423
     14  CG        -0.6840   12.0690  -37.3540 C.2     9  ASP9        0.3668
     15  OD1       -0.9650   12.4610  -36.1920 O.co2   9  ASP9       -0.2456
     16  OD2       -0.2920   12.8170  -38.2620 O.co2   9  ASP9       -0.2456
     17  N         -3.0820   11.9140  -39.7840 N.am   10  PRO10      -0.2729
     18  CA        -3.2170   12.4860  -41.1180 C.3    10  PRO10       0.1401
     19  C         -1.9110   12.5930  -41.9160 C.2    10  PRO10       0.2269
     20  O         -1.9530   12.3980  -43.1250 O.2    10  PRO10      -0.2865
     21  CB        -3.7810   13.8820  -40.8460 C.3    10  PRO10       0.0296
     22  CG        -4.4970   13.7780  -39.5330 C.3    10  PRO10       0.0237
     23  CD        -3.8980   12.6270  -38.7770 C.3    10  PRO10       0.0939
     24  N         -1.4380    2.4540  -33.4290 N.3    25  ILE25      -0.1245
     25  CA        -1.2210    3.8740  -33.6380 C.3    25  ILE25       0.1561
     26  C         -0.1420    4.0290  -34.6880 C.2    25  ILE25       0.2260
     27  O          1.0250    3.6610  -34.4810 O.2    25  ILE25      -0.2867
     28  CB        -0.7580    4.5830  -32.3570 C.3    25  ILE25       0.0252
     29  CG1       -1.7760    4.4050  -31.2400 C.3    25  ILE25       0.0019
     30  CG2       -0.5510    6.0740  -32.5980 C.3    25  ILE25       0.0019
     31  CD1       -1.4820    5.2660  -30.0130 C.3    25  ILE25       0.0001
     32  N          1.5030    7.0310  -35.9290 N.3    27  GLY27      -0.1210
     33  CA         1.6760    8.4390  -35.6810 C.3    27  GLY27       0.1956
     34  C          2.2310    9.2500  -36.8230 C.2    27  GLY27       0.2612
     35  O          2.4680    8.7490  -37.9390 O.2    27  GLY27      -0.2717
     36  N          2.4440   10.5240  -36.5150 N.am   28  ALA28      -0.1965
     37  CA         2.9510   11.5190  -37.4670 C.3    28  ALA28       0.1728
     38  C          4.2520   11.1240  -38.1570 C.2    28  ALA28       0.2616
     39  O          5.1710   10.5670  -37.5200 O.2    28  ALA28      -0.2715
     40  CB         3.1420   12.8650  -36.7740 C.3    28  ALA28       0.0334
     41  N          4.3180   11.4380  -39.4530 N.am   29  GLU29      -0.1977
     42  CA         5.5110   11.2390  -40.3030 C.3    29  GLU29       0.1602
     43  C          6.0300    9.7870  -40.3660 C.2    29  GLU29       0.2287
     44  O          7.2210    9.5510  -40.5400 O.2    29  GLU29      -0.2864
     45  CB         6.6030   12.2660  -39.9590 C.3    29  GLU29       0.0415
     46  CG         6.0810   13.7030  -40.1570 C.3    29  GLU29       0.1163
     47  CD         7.1520   14.7920  -40.2110 C.2    29  GLU29       0.3649
     48  OE1        8.3670   14.4710  -40.1080 O.co2  29  GLU29      -0.2457
     49  OE2        6.7650   15.9840  -40.3750 O.co2  29  GLU29      -0.2457
     50  N          5.8970    5.4280  -34.1730 N.3    45  LYS45      -0.1231
     51  CA         6.1450    6.8560  -34.1470 C.3    45  LYS45       0.1693
     52  C          7.2170    7.2290  -35.1530 C.2    45  LYS45       0.2593
     53  O          7.9160    6.3630  -35.6830 O.2    45  LYS45      -0.2718
     54  CB         6.4550    7.3400  -32.7350 C.3    45  LYS45       0.0285
     55  CG         5.2930    7.0740  -31.8000 C.3    45  LYS45       0.0035
     56  CD         5.3920    7.9050  -30.5330 C.3    45  LYS45       0.0206
     57  CE         4.3190    7.5250  -29.5270 C.3    45  LYS45       0.1093
     58  NZ         4.5590    8.3000  -28.2770 N.3    45  LYS45      -0.1314
     59  N          7.3230    8.5270  -35.4260 N.am   46  GLY46      -0.1943
     60  CA         8.1340    9.0160  -36.5350 C.3    46  GLY46       0.1998
     61  C          9.0430   10.1460  -36.1140 C.2    46  GLY46       0.2480
     62  O          8.9290   10.6180  -34.9820 O.2    46  GLY46      -0.2729
     63  N          9.8990   10.6330  -37.0280 N.am   47  PRO47      -0.2726
     64  CA         9.8870   10.2750  -38.4720 C.3    47  PRO47       0.1402
     65  C         10.5070    8.8940  -38.7990 C.2    47  PRO47       0.2269
     66  O         11.6410    8.6120  -38.4130 O.2    47  PRO47      -0.2865
     67  CB        10.6970   11.4030  -39.1460 C.3    47  PRO47       0.0296
     68  CG        11.2220   12.2820  -38.0550 C.3    47  PRO47       0.0237
     69  CD        10.5730   11.9160  -36.7500 C.3    47  PRO47       0.0939
     70  N         10.0560    4.8990  -31.3940 N.3    64  GLU64      -0.1231
     71  CA        10.0120    5.7050  -30.1810 C.3    64  GLU64       0.1699
     72  C         11.2730    6.5010  -29.9740 C.2    64  GLU64       0.2592
     73  O         12.3470    6.1410  -30.4690 O.2    64  GLU64      -0.2718
     74  CB         9.7850    4.8370  -28.9400 C.3    64  GLU64       0.0402
     75  CG         8.3280    4.7550  -28.4940 C.3    64  GLU64       0.1161
     76  CD         7.7600    6.0630  -27.9560 C.2    64  GLU64       0.3649
     77  OE1        8.4520    7.1090  -27.9600 O.co2  64  GLU64      -0.2457
     78  OE2        6.5870    6.0260  -27.5400 O.co2  64  GLU64      -0.2457
     79  N         11.1380    7.5850  -29.2230 N.am   65  ASP65      -0.1974
     80  CA        12.2840    8.3870  -28.8000 C.3    65  ASP65       0.1709
     81  C         13.1780    7.5170  -27.8960 C.2    65  ASP65       0.2293
     82  O         12.6830    6.8890  -26.9290 O.2    65  ASP65      -0.2864
     83  CB        11.8350    9.5850  -27.9300 C.3    65  ASP65       0.1436
     84  CG        10.9830   10.6390  -28.6840 C.2    65  ASP65       0.3671
     85  OD1       10.7230   10.5360  -29.9020 O.co2  65  ASP65      -0.2456
     86  OD2       10.5590   11.6030  -28.0150 O.co2  65  ASP65      -0.2456
     87  N         19.3550   13.0310  -25.8360 N.3    71  TYR71      -0.1241
     88  CA        18.2750   13.3440  -26.7970 C.3    71  TYR71       0.1605
     89  C         17.3930   14.4670  -26.2460 C.2    71  TYR71       0.2264
     90  O         17.0580   14.4450  -25.0620 O.2    71  TYR71      -0.2867
     91  CB        17.4180   12.1010  -27.0910 C.3    71  TYR71       0.0534
     92  CG        16.2760   12.3680  -28.0410 C.ar   71  TYR71      -0.0201
     93  CD1       16.5180   12.5340  -29.4010 C.ar   71  TYR71      -0.0009
     94  CD2       14.9580   12.4710  -27.5890 C.ar   71  TYR71      -0.0009
     95  CE1       15.4980   12.8060  -30.2840 C.ar   71  TYR71       0.0417
     96  CE2       13.9120   12.7350  -28.4800 C.ar   71  TYR71       0.0417
     97  CZ        14.2020   12.8950  -29.8300 C.ar   71  TYR71       0.1957
     98  OH        13.2290   13.1590  -30.7610 O.3    71  TYR71      -0.2866
     99  N         14.5510   15.9110  -28.3360 N.3    73  GLY73      -0.1225
    100  CA        13.3140   16.0290  -29.1200 C.3    73  GLY73       0.1811
    101  C         13.5240   16.2670  -30.6010 C.2    73  GLY73       0.2280
    102  O         12.5670   16.5350  -31.3180 O.2    73  GLY73      -0.2866
    103  N         14.1350   15.7960  -34.6640 N.3    75  PRO75      -0.2116
    104  CA        13.4190   14.9010  -35.5770 C.3    75  PRO75       0.1372
    105  C         14.3710   13.8750  -36.2270 C.2    75  PRO75       0.2244
    106  O         14.6080   13.9050  -37.4340 O.2    75  PRO75      -0.2868
    107  CB        12.7960   15.8770  -36.5890 C.3    75  PRO75       0.0268
    108  CG        13.7720   16.9890  -36.6530 C.3    75  PRO75       0.0207
    109  CD        14.3900   17.1110  -35.2870 C.3    75  PRO75       0.0892
    110  N         14.5670    5.5670  -32.4850 N.3    94  ARG94      -0.1245
    111  CA        15.1650    6.3860  -33.5400 C.3    94  ARG94       0.1563
    112  C         16.5450    6.8900  -33.0760 C.2    94  ARG94       0.2260
    113  O         16.9260    6.7350  -31.9180 O.2    94  ARG94      -0.2867
    114  CB        14.2480    7.5660  -33.9180 C.3    94  ARG94       0.0307
    115  CG        12.7960    7.1530  -34.1830 C.3    94  ARG94       0.0489
    116  CD        11.9460    8.2420  -34.8480 C.3    94  ARG94       0.2205
    117  NE        12.2680    9.5020  -34.2180 N.pl3  94  ARG94      -0.0865
    118  CZ        11.8780    9.8830  -33.0070 C.cat  94  ARG94       0.5346
    119  NH1       11.0360    9.1640  -32.2640 N.pl3  94  ARG94       0.1354
    120  NH2       12.3350   11.0190  -32.5480 N.pl3  94  ARG94       0.1354
@<TRIPOS>BOND
     1    20    19    2
     2    19    18    1
     3    18    21    1
     4    18    17    1
     5    21    22    1
     6    12    11    2
     7    44    43    2
     8    49    47   ar
     9    43    42    1
    10    42    45    1
    11    42    41    1
    12    47    46    1
    13    47    48   ar
    14    46    45    1
    15    17    11   am
    16    17    23    1
    17    11    10    1
    18    22    23    1
    19    41    38   am
    20    67    64    1
    21    67    68    1
    22    65    64    1
    23    65    66    2
    24    64    63    1
    25    16    14   ar
    26    10     9    1
    27    10    13    1
    28    38    39    2
    29    38    37    1
    30    68    69    1
    31    35    34    2
    32    13    14    1
    33    37    40    1
    34    37    36    1
    35   106   105    2
    36    14    15   ar
    37    63    69    1
    38    63    61   am
    39    34    36   am
    40    34    33    1
    41   108   107    1
    42   108   109    1
    43   107   104    1
    44    60    61    1
    45    60    59    1
    46   105   104    1
    47     3     4    2
    48     3     2    1
    49    61    62    2
    50    32    33    1
    51    53    52    2
    52   104   103    1
    53    59    52   am
    54   109   103    1
    55    52    51    1
    56     2     1    1
    57     2     5    1
    58   116   117    1
    59   116   115    1
    60    26    27    2
    61    26    25    1
    62   117   118    2
    63   115   114    1
    64    50    51    1
    65    51    54    1
    66     7     5    1
    67   114   111    1
    68     5     6    1
    69    25    24    1
    70    25    28    1
    71   111   112    1
    72   111   110    1
    73   112   113    2
    74   118   120    1
    75   118   119    1
    76    54    55    1
    77     6     8    1
    78    30    28    1
    79    28    29    1
    80    55    56    1
    81    70    71    1
    82   102   101    2
    83    29    31    1
    84    98    97    1
    85   101   100    1
    86    56    57    1
    87    73    72    2
    88    95    97   ar
    89    95    93   ar
    90    71    72    1
    91    71    74    1
    92    72    79   am
    93    85    84   ar
    94    97    96   ar
    95    57    58    1
    96    93    92   ar
    97    79    80    1
    98   100    99    1
    99    74    75    1
   100    80    83    1
   101    80    81    1
   102    84    86   ar
   103    84    83    1
   104    75    76    1
   105    96    94   ar
   106    92    94   ar
   107    92    91    1
   108    77    76   ar
   109    76    78   ar
   110    81    82    2
   111    91    88    1
   112    88    89    1
   113    88    87    1
   114    89    90    2
