@<TRIPOS>MOLECULE
tmp/5deqA00.pdb
 120 114 0 0 0
SMALL
GASTEIGER

@<TRIPOS>ATOM
      1  N         28.5040   -6.9610   60.0110 N.3    13  GLY13      -0.1210
      2  CA        27.5930   -7.4980   59.0300 C.3    13  GLY13       0.1956
      3  C         26.7130   -6.4320   58.4210 C.2    13  GLY13       0.2612
      4  O         26.5210   -5.3440   58.9950 O.2    13  GLY13      -0.2717
      5  N         26.1940   -6.7620   57.2430 N.am   14  ILE14      -0.1965
      6  CA        25.1690   -5.9880   56.5680 C.3    14  ILE14       0.1727
      7  C         24.0730   -6.9690   56.2040 C.2    14  ILE14       0.2616
      8  O         24.3720   -8.0570   55.6820 O.2    14  ILE14      -0.2715
      9  CB        25.6940   -5.3530   55.2540 C.3    14  ILE14       0.0290
     10  CG1       26.6680   -4.2040   55.5500 C.3    14  ILE14       0.0022
     11  CG2       24.5520   -4.8450   54.3770 C.3    14  ILE14       0.0023
     12  CD1       26.0630   -2.9650   56.1880 C.3    14  ILE14       0.0001
     13  N         22.8240   -6.5780   56.4550 N.am   15  ASP15      -0.1971
     14  CA        21.6580   -7.3020   55.9500 C.3    15  ASP15       0.1709
     15  C         20.6760   -6.3460   55.2840 C.2    15  ASP15       0.2293
     16  O         20.2290   -5.3740   55.9060 O.2    15  ASP15      -0.2864
     17  CB        20.9790   -8.0780   57.0790 C.3    15  ASP15       0.1436
     18  CG        21.7170   -9.3440   57.4160 C.2    15  ASP15       0.3671
     19  OD1       21.6730  -10.2830   56.5980 O.co2  15  ASP15      -0.2456
     20  OD2       22.3680   -9.3870   58.4820 O.co2  15  ASP15      -0.2456
     21  N         21.6590  -18.6270   51.3090 N.3    33  ARG33      -0.1245
     22  CA        22.9630  -18.1090   51.6980 C.3    33  ARG33       0.1563
     23  C         24.0850  -18.9070   51.0320 C.2    33  ARG33       0.2260
     24  O         24.0500  -20.1370   51.0080 O.2    33  ARG33      -0.2867
     25  CB        23.0420  -18.1360   53.2180 C.3    33  ARG33       0.0307
     26  CG        24.3510  -17.7330   53.8430 C.3    33  ARG33       0.0489
     27  CD        24.1040  -17.6960   55.3310 C.3    33  ARG33       0.2205
     28  NE        25.2980  -17.7640   56.1440 N.pl3  33  ARG33      -0.0865
     29  CZ        25.8120  -16.7920   56.8950 C.cat  33  ARG33       0.5346
     30  NH1       25.3260  -15.5430   56.8960 N.pl3  33  ARG33       0.1354
     31  NH2       26.8760  -17.0740   57.6310 N.pl3  33  ARG33       0.1354
     32  N         27.3870  -19.1060   51.7850 N.3    35  PHE35      -0.1241
     33  CA        28.5830  -19.3580   52.5810 C.3    35  PHE35       0.1605
     34  C         28.1710  -19.9420   53.9360 C.2    35  PHE35       0.2264
     35  O         27.0050  -19.8310   54.3380 O.2    35  PHE35      -0.2867
     36  CB        29.4620  -18.0990   52.7250 C.3    35  PHE35       0.0534
     37  CG        28.7530  -16.8880   53.2980 C.ar   35  PHE35      -0.0203
     38  CD1       28.0230  -16.0410   52.4770 C.ar   35  PHE35      -0.0042
     39  CD2       28.8690  -16.5620   54.6400 C.ar   35  PHE35      -0.0042
     40  CE1       27.3900  -14.9120   52.9840 C.ar   35  PHE35      -0.0003
     41  CE2       28.2360  -15.4340   55.1630 C.ar   35  PHE35      -0.0003
     42  CZ        27.4840  -14.6100   54.3270 C.ar   35  PHE35      -0.0000
     43  N         17.7560  -16.6750   53.5840 N.3    42  SER42      -0.1217
     44  CA        18.4490  -15.5370   54.1540 C.3    42  SER42       0.1889
     45  C         18.0950  -14.2070   53.4690 C.2    42  SER42       0.2288
     46  O         17.7640  -14.1470   52.2840 O.2    42  SER42      -0.2866
     47  CB        19.9690  -15.7860   54.0500 C.3    42  SER42       0.2089
     48  OG        20.7540  -14.6870   54.5050 O.3    42  SER42      -0.2183
     49  N         22.8820  -10.8140   52.7860 N.3    44  GLY44      -0.1210
     50  CA        23.8590  -10.6550   53.8590 C.3    44  GLY44       0.1956
     51  C         25.2820  -10.5490   53.3880 C.2    44  GLY44       0.2612
     52  O         25.7190  -11.3250   52.5270 O.2    44  GLY44      -0.2717
     53  N         26.0120   -9.6000   53.9620 N.am   45  GLY45      -0.1942
     54  CA        27.4140   -9.4080   53.6430 C.3    45  GLY45       0.2014
     55  C         28.1500   -8.7770   54.8050 C.2    45  GLY45       0.2638
     56  O         27.7170   -8.8870   55.9570 O.2    45  GLY45      -0.2714
     57  N         29.2730   -8.1410   54.4990 N.am   46  PHE46      -0.1973
     58  CA        30.1160   -7.5260   55.5190 C.3    46  PHE46       0.1639
     59  C         30.6560   -6.1920   55.0370 C.2    46  PHE46       0.2290
     60  O         30.9820   -6.0300   53.8460 O.2    46  PHE46      -0.2864
     61  CB        31.3010   -8.4220   55.8720 C.3    46  PHE46       0.0560
     62  CG        30.9160   -9.7110   56.5120 C.ar   46  PHE46      -0.0200
     63  CD1       30.6160  -10.8230   55.7410 C.ar   46  PHE46      -0.0042
     64  CD2       30.8530   -9.8190   57.8960 C.ar   46  PHE46      -0.0042
     65  CE1       30.2490  -12.0230   56.3310 C.ar   46  PHE46      -0.0003
     66  CE2       30.4820  -11.0170   58.4940 C.ar   46  PHE46      -0.0003
     67  CZ        30.1860  -12.1200   57.7120 C.ar   46  PHE46      -0.0000
     68  N         23.9680  -13.9840   68.1220 N.3    82  ARG82      -0.1231
     69  CA        23.1190  -13.8630   66.9310 C.3    82  ARG82       0.1694
     70  C         23.6530  -14.6450   65.7190 C.2    82  ARG82       0.2592
     71  O         22.8860  -15.2410   64.9830 O.2    82  ARG82      -0.2718
     72  CB        22.8670  -12.3930   66.5680 C.3    82  ARG82       0.0321
     73  CG        24.0750  -11.5440   66.1720 C.3    82  ARG82       0.0489
     74  CD        23.6290  -10.1920   65.6120 C.3    82  ARG82       0.2205
     75  NE        22.9230  -10.4390   64.3620 N.pl3  82  ARG82      -0.0865
     76  CZ        23.5080  -10.7670   63.2150 C.cat  82  ARG82       0.5346
     77  NH1       24.8310  -10.7920   63.0920 N.pl3  82  ARG82       0.1354
     78  NH2       22.7540  -11.0800   62.1830 N.pl3  82  ARG82       0.1354
     79  N         24.9670  -14.6280   65.5210 N.am   83  ASP83      -0.1974
     80  CA        25.5970  -15.3400   64.4230 C.3    83  ASP83       0.1709
     81  C         26.3990  -16.4680   65.0640 C.2    83  ASP83       0.2293
     82  O         27.3190  -16.2030   65.8180 O.2    83  ASP83      -0.2864
     83  CB        26.5020  -14.3850   63.6240 C.3    83  ASP83       0.1436
     84  CG        27.0790  -15.0140   62.3470 C.2    83  ASP83       0.3671
     85  OD1       27.6010  -16.1520   62.3820 O.co2  83  ASP83      -0.2456
     86  OD2       27.0500  -14.3400   61.2980 O.co2  83  ASP83      -0.2456
     87  N         29.3980  -11.3810   65.2040 N.3    88  VAL88      -0.1245
     88  CA        29.0650  -10.4330   64.1290 C.3    88  VAL88       0.1561
     89  C         27.9820   -9.4850   64.6370 C.2    88  VAL88       0.2260
     90  O         26.9250   -9.9170   65.0290 O.2    88  VAL88      -0.2867
     91  CB        28.5750  -11.1490   62.8410 C.3    88  VAL88       0.0252
     92  CG1       28.2990  -10.1400   61.7190 C.3    88  VAL88       0.0019
     93  CG2       29.5920  -12.1850   62.3890 C.3    88  VAL88       0.0019
     94  N         25.5080   -7.0380   63.0710 N.3    90  SER90      -0.1217
     95  CA        25.0030   -6.7240   61.7280 C.3    90  SER90       0.1889
     96  C         24.1160   -5.4860   61.6900 C.2    90  SER90       0.2288
     97  O         23.2100   -5.3270   62.5160 O.2    90  SER90      -0.2866
     98  CB        24.2470   -7.9050   61.1130 C.3    90  SER90       0.2089
     99  OG        23.9300   -7.6170   59.7630 O.3    90  SER90      -0.2183
    100  N         19.2350  -17.1990   61.7180 N.3   125  PHE125     -0.1241
    101  CA        19.7820  -16.2840   62.7270 C.3   125  PHE125      0.1605
    102  C         18.6720  -15.3600   63.2890 C.2   125  PHE125      0.2264
    103  O         17.6010  -15.8420   63.6630 O.2   125  PHE125     -0.2867
    104  CB        20.9740  -15.4700   62.1720 C.3   125  PHE125      0.0534
    105  CG        22.1100  -16.2750   61.5540 C.ar  125  PHE125     -0.0203
    106  CD1       22.2090  -17.6710   61.6370 C.ar  125  PHE125     -0.0042
    107  CD2       23.1280  -15.5810   60.8920 C.ar  125  PHE125     -0.0042
    108  CE1       23.2710  -18.3380   61.0520 C.ar  125  PHE125     -0.0003
    109  CE2       24.1960  -16.2490   60.3120 C.ar  125  PHE125     -0.0003
    110  CZ        24.2690  -17.6260   60.3880 C.ar  125  PHE125     -0.0000
    111  N         17.2510  -12.9100   61.4560 N.3   127  HIS127     -0.1241
    112  CA        16.6370  -12.2520   60.3090 C.3   127  HIS127      0.1621
    113  C         15.1250  -12.0050   60.4750 C.2   127  HIS127      0.2264
    114  O         14.6410  -10.9560   60.0620 O.2   127  HIS127     -0.2867
    115  CB        16.9540  -13.0100   59.0180 C.3   127  HIS127      0.0745
    116  CG        18.4000  -12.9650   58.6460 C.ar  127  HIS127      0.0817
    117  ND1       18.8550  -13.3370   57.4040 N.ar  127  HIS127     -0.2268
    118  CD2       19.4890  -12.5370   59.3310 C.ar  127  HIS127      0.1154
    119  CE1       20.1600  -13.1860   57.3500 C.ar  127  HIS127      0.1986
    120  NE2       20.5700  -12.6980   58.5070 N.ar  127  HIS127     -0.2212
@<TRIPOS>BOND
     1    24    23    2
     2    23    22    1
     3    21    22    1
     4    22    25    1
     5    32    33    1
     6    46    45    2
     7    38    40   ar
     8    38    37   ar
     9    52    51    2
    10    33    36    1
    11    33    34    1
    12    36    37    1
    13    49    50    1
    14    40    42   ar
    15    25    26    1
    16    37    39   ar
    17    51    50    1
    18    51    53   am
    19    45    44    1
    20    43    44    1
    21    54    53    1
    22    54    55    1
    23    26    27    1
    24    60    59    2
    25    34    35    2
    26    47    44    1
    27    47    48    1
    28    42    41   ar
    29    11     9    1
    30    57    55   am
    31    57    58    1
    32    39    41   ar
    33    55    56    2
    34    59    58    1
    35     9    10    1
    36     9     6    1
    37    15    16    2
    38    15    14    1
    39    27    28    1
    40    58    61    1
    41    10    12    1
    42     8     7    2
    43    63    65   ar
    44    63    62   ar
    45    61    62    1
    46    14    13    1
    47    14    17    1
    48    28    29    2
    49     7    13   am
    50     7     6    1
    51    65    67   ar
    52    62    64   ar
    53     6     5    1
    54    19    18   ar
    55    29    30    1
    56    29    31    1
    57    17    18    1
    58     5     3   am
    59   119   117   ar
    60   119   120   ar
    61   117   116   ar
    62    18    20   ar
    63    67    66   ar
    64    64    66   ar
    65     3     4    2
    66     3     2    1
    67   120   118   ar
    68   116   115    1
    69   116   118   ar
    70   115   112    1
    71     2     1    1
    72    99    98    1
    73   114   113    2
    74   112   113    1
    75   112   111    1
    76   109   110   ar
    77   109   107   ar
    78   110   108   ar
    79   107   105   ar
    80   108   106   ar
    81    98    95    1
    82    86    84   ar
    83   105   106   ar
    84   105   104    1
    85    96    95    1
    86    96    97    2
    87   100   101    1
    88    92    91    1
    89    95    94    1
    90   104   101    1
    91    78    76    1
    92    84    85   ar
    93    84    83    1
    94    93    91    1
    95   101   102    1
    96    91    88    1
    97    77    76    1
    98    76    75    2
    99   102   103    2
   100    83    80    1
   101    88    89    1
   102    88    87    1
   103    75    74    1
   104    80    81    1
   105    80    79    1
   106    89    90    2
   107    71    70    2
   108    81    82    2
   109    79    70   am
   110    74    73    1
   111    70    69    1
   112    73    72    1
   113    72    69    1
   114    69    68    1
