@<TRIPOS>MOLECULE
tmp/5deuA00.pdb
 124 113 0 0 0
SMALL
GASTEIGER

@<TRIPOS>ATOM
      1  N          6.0710   -0.2050  -25.2130 N.3   130  ARG130     -0.1245
      2  CA         6.1840    0.9390  -26.1190 C.3   130  ARG130      0.1563
      3  C          4.9260    1.0750  -26.9550 C.2   130  ARG130      0.2260
      4  O          4.1880    0.0950  -27.1560 O.2   130  ARG130     -0.2867
      5  CB         7.3930    0.7620  -27.0320 C.3   130  ARG130      0.0307
      6  CG         8.6920    0.5870  -26.2590 C.3   130  ARG130      0.0489
      7  CD         9.8170    0.1190  -27.1470 C.3   130  ARG130      0.2205
      8  NE        10.1470    1.0970  -28.1770 N.pl3 130  ARG130     -0.0865
      9  CZ        10.7300    0.7850  -29.3320 C.cat 130  ARG130      0.5346
     10  NH1       11.0450   -0.4890  -29.5970 N.pl3 130  ARG130      0.1354
     11  NH2       10.9930    1.7400  -30.2190 N.pl3 130  ARG130      0.1354
     12  N         18.0960   -0.7160  -26.8950 N.3   241  THR241     -0.1218
     13  CA        16.9440   -1.6020  -26.7220 C.3   241  THR241      0.1862
     14  C         17.1450   -2.8860  -27.4940 C.2   241  THR241      0.2287
     15  O         17.5870   -2.8650  -28.6440 O.2   241  THR241     -0.2866
     16  CB        15.6500   -0.9050  -27.1930 C.3   241  THR241      0.1770
     17  OG1       15.3390    0.1300  -26.2600 O.3   241  THR241     -0.2211
     18  CG2       14.4690   -1.8950  -27.2640 C.3   241  THR241      0.0375
     19  N         15.2550   -6.0590  -29.0710 N.3   243  CYS243     -0.1235
     20  CA        13.9290   -6.4280  -29.5310 C.3   243  CYS243      0.1677
     21  C         13.9620   -7.8760  -29.9450 C.2   243  CYS243      0.2270
     22  O         14.7070   -8.2350  -30.8480 O.2   243  CYS243     -0.2867
     23  CB        13.5260   -5.5880  -30.7410 C.3   243  CYS243      0.0956
     24  SG        13.4520   -3.7930  -30.4480 S.3   243  CYS243     -0.0801
     25  N          9.9920   -8.9670  -32.0160 N.3   246  PHE246     -0.1241
     26  CA         9.1250   -7.8340  -31.7280 C.3   246  PHE246      0.1605
     27  C          8.6400   -7.1720  -33.0090 C.2   246  PHE246      0.2264
     28  O          9.4380   -6.7820  -33.8670 O.2   246  PHE246     -0.2867
     29  CB         9.9030   -6.8300  -30.8730 C.3   246  PHE246      0.0534
     30  CG         9.1120   -5.6080  -30.4920 C.ar  246  PHE246     -0.0203
     31  CD1        8.1350   -5.6790  -29.5010 C.ar  246  PHE246     -0.0042
     32  CD2        9.3370   -4.3960  -31.1200 C.ar  246  PHE246     -0.0042
     33  CE1        7.4040   -4.5620  -29.1440 C.ar  246  PHE246     -0.0003
     34  CE2        8.6080   -3.2800  -30.7710 C.ar  246  PHE246     -0.0003
     35  CZ         7.6440   -3.3540  -29.7790 C.ar  246  PHE246     -0.0000
     36  N          7.4990   -4.0230  -34.5320 N.3   248  ALA248     -0.1245
     37  CA         7.4390   -2.5840  -34.2830 C.3   248  ALA248      0.1562
     38  C          6.4960   -1.9810  -35.3010 C.2   248  ALA248      0.2260
     39  O          6.7960   -1.9610  -36.4970 O.2   248  ALA248     -0.2867
     40  CB         8.8340   -1.9330  -34.3830 C.3   248  ALA248      0.0290
     41  N          6.2930    3.6650  -36.9190 N.3   251  HIS251     -0.1241
     42  CA         6.5550    4.7490  -35.9670 C.3   251  HIS251      0.1621
     43  C          7.8130    5.5390  -36.3050 C.2   251  HIS251      0.2264
     44  O          8.6220    5.1230  -37.1370 O.2   251  HIS251     -0.2867
     45  CB         6.7490    4.1550  -34.5810 C.3   251  HIS251      0.0745
     46  CG         8.0120    3.3620  -34.4570 C.ar  251  HIS251      0.0817
     47  ND1        8.1710    2.1310  -35.0530 N.ar  251  HIS251     -0.2268
     48  CD2        9.1900    3.6420  -33.8500 C.ar  251  HIS251      0.1154
     49  CE1        9.3850    1.6720  -34.7940 C.ar  251  HIS251      0.1986
     50  NE2       10.0230    2.5690  -34.0670 N.ar  251  HIS251     -0.2212
     51  N         10.9860    7.4470  -33.9290 N.3   253  ASP253     -0.1239
     52  CA        11.4780    7.5070  -32.5570 C.3   253  ASP253      0.1674
     53  C         11.6670    8.9720  -32.1620 C.2   253  ASP253      0.2266
     54  O         12.7410    9.5710  -32.3180 O.2   253  ASP253     -0.2867
     55  CB        12.7350    6.6490  -32.4110 C.3   253  ASP253      0.1410
     56  CG        12.4350    5.1640  -32.6070 C.2   253  ASP253      0.3668
     57  OD1       11.6030    4.6090  -31.8460 O.co2 253  ASP253     -0.2456
     58  OD2       13.0040    4.5550  -33.5320 O.co2 253  ASP253     -0.2456
     59  N         21.1990   -0.3440  -35.8280 N.3   264  VAL264     -0.1245
     60  CA        20.5340   -1.5830  -35.4460 C.3   264  VAL264      0.1561
     61  C         21.4370   -2.7440  -35.8050 C.2   264  VAL264      0.2260
     62  O         21.7770   -2.9400  -36.9760 O.2   264  VAL264     -0.2867
     63  CB        19.1980   -1.7470  -36.1860 C.3   264  VAL264      0.0252
     64  CG1       18.5060   -3.0190  -35.7360 C.3   264  VAL264      0.0019
     65  CG2       18.3210   -0.5440  -35.9210 C.3   264  VAL264      0.0019
     66  N         12.8080   -5.2110  -41.9790 N.3   285  HIS285     -0.1241
     67  CA        12.7490   -3.8210  -41.5330 C.3   285  HIS285      0.1621
     68  C         12.1590   -3.0180  -42.6900 C.2   285  HIS285      0.2264
     69  O         12.6740   -3.0950  -43.8070 O.2   285  HIS285     -0.2867
     70  CB        14.1670   -3.3470  -41.2340 C.3   285  HIS285      0.0745
     71  CG        14.2510   -1.9300  -40.7720 C.ar  285  HIS285      0.0817
     72  ND1       14.4070   -1.5870  -39.4420 N.ar  285  HIS285     -0.2268
     73  CD2       14.2030   -0.7600  -41.4560 C.ar  285  HIS285      0.1154
     74  CE1       14.4540   -0.2710  -39.3300 C.ar  285  HIS285      0.1986
     75  NE2       14.3310    0.2560  -40.5370 N.ar  285  HIS285     -0.2212
     76  N         22.5980   -1.7440  -39.4230 N.3   364  LEU364     -0.1245
     77  CA        21.7420   -0.8680  -40.2160 C.3   364  LEU364      0.1561
     78  C         21.7850    0.5190  -39.5990 C.2   364  LEU364      0.2260
     79  O         21.6280    0.6470  -38.3820 O.2   364  LEU364     -0.2867
     80  CB        20.3130   -1.4110  -40.1320 C.3   364  LEU364      0.0270
     81  CG        19.1650   -0.7850  -40.9130 C.3   364  LEU364      0.0019
     82  CD1       18.1540   -1.8590  -41.3280 C.3   364  LEU364      0.0001
     83  CD2       18.4700    0.2640  -40.0700 C.3   364  LEU364      0.0001
     84  N          9.2250    3.9880  -39.9030 N.3   373  HIS373     -0.1241
     85  CA         9.7980    2.6490  -40.0960 C.3   373  HIS373      0.1621
     86  C          9.0760    1.6280  -39.2280 C.2   373  HIS373      0.2264
     87  O          8.3320    2.0060  -38.3180 O.2   373  HIS373     -0.2867
     88  CB        11.3060    2.6560  -39.7860 C.3   373  HIS373      0.0745
     89  CG        11.6260    3.0190  -38.3740 C.ar  373  HIS373      0.0817
     90  ND1       11.5960    4.3150  -37.9070 N.ar  373  HIS373     -0.2268
     91  CD2       11.9640    2.2420  -37.3140 C.ar  373  HIS373      0.1154
     92  CE1       11.9010    4.3240  -36.6170 C.ar  373  HIS373      0.1986
     93  NE2       12.1430    3.0820  -36.2420 N.ar  373  HIS373     -0.2212
     94  N          8.8430   -3.0530  -38.3130 N.3   375  THR375     -0.1218
     95  CA         9.3500   -4.4030  -38.5350 C.3   375  THR375      0.1862
     96  C          8.1550   -5.3250  -38.7030 C.2   375  THR375      0.2287
     97  O          7.0850   -5.0760  -38.1310 O.2   375  THR375     -0.2866
     98  CB        10.2430   -4.9120  -37.3930 C.3   375  THR375      0.1770
     99  OG1        9.5480   -4.8160  -36.1470 O.3   375  THR375     -0.2211
    100  CG2       11.5320   -4.1000  -37.3140 C.3   375  THR375      0.0375
    101  N         14.4460  -13.2470  -34.8540 N.3   388  ARG388     -0.1245
    102  CA        15.3750  -12.1390  -34.9570 C.3   388  ARG388      0.1563
    103  C         15.4640  -11.3960  -33.6340 C.2   388  ARG388      0.2260
    104  O         14.4430  -11.1680  -32.9680 O.2   388  ARG388     -0.2867
    105  CB        14.9020  -11.1520  -36.0370 C.3   388  ARG388      0.0307
    106  CG        15.8030   -9.9040  -36.1700 C.3   388  ARG388      0.0489
    107  CD        15.4400   -9.1050  -37.4170 C.3   388  ARG388      0.2205
    108  NE        16.2060   -7.8590  -37.4940 N.pl3 388  ARG388     -0.0865
    109  CZ        15.7090   -6.6590  -37.2140 C.cat 388  ARG388      0.5346
    110  NH1       14.4440   -6.5380  -36.8420 N.pl3 388  ARG388      0.1354
    111  NH2       16.4780   -5.5730  -37.3000 N.pl3 388  ARG388      0.1354
    112  N         16.9660   -7.6570  -32.5480 N.3   390  SER390     -0.1217
    113  CA        17.6360   -6.4310  -32.9770 C.3   390  SER390      0.1889
    114  C         18.1570   -5.7030  -31.7410 C.2   390  SER390      0.2288
    115  O         17.4880   -5.6530  -30.7010 O.2   390  SER390     -0.2866
    116  CB        16.7090   -5.5450  -33.7940 C.3   390  SER390      0.2089
    117  OG        15.6120   -5.1280  -33.0260 O.3   390  SER390     -0.2183
    118  N         19.2260   -2.0700  -30.7950 N.3   392  VAL392     -0.1245
    119  CA        18.9840   -0.7490  -31.3760 C.3   392  VAL392      0.1561
    120  C         19.7010    0.2950  -30.5210 C.2   392  VAL392      0.2260
    121  O         19.3560    0.4660  -29.3560 O.2   392  VAL392     -0.2867
    122  CB        17.4840   -0.4590  -31.3720 C.3   392  VAL392      0.0252
    123  CG1       17.2120    0.8380  -32.0260 C.3   392  VAL392      0.0019
    124  CG2       16.7260   -1.6010  -32.0930 C.3   392  VAL392      0.0019
@<TRIPOS>BOND
     1    69    68    2
     2    68    67    1
     3    66    67    1
     4    67    70    1
     5    73    71   ar
     6    73    75   ar
     7    82    81    1
     8    70    71    1
     9    81    80    1
    10    81    83    1
    11    71    72   ar
    12    75    74   ar
    13    77    80    1
    14    77    78    1
    15    77    76    1
    16    85    84    1
    17    85    88    1
    18    85    86    1
    19    88    89    1
    20    78    79    2
    21    72    74   ar
    22    86    87    2
    23    96    95    1
    24    96    97    2
    25    95    94    1
    26    95    98    1
    27    89    90   ar
    28    89    91   ar
    29    90    92   ar
    30   108   107    1
    31   108   109    2
    32   107   106    1
    33    98   100    1
    34    98    99    1
    35    91    93   ar
    36   111   109    1
    37   109   110    1
    38    44    43    2
    39    62    61    2
    40    41    42    1
    41    92    93   ar
    42    39    38    2
    43    43    42    1
    44    63    65    1
    45    63    64    1
    46    63    60    1
    47   106   105    1
    48   105   102    1
    49    42    45    1
    50    59    60    1
    51    61    60    1
    52    38    37    1
    53    47    49   ar
    54    47    46   ar
    55   102   101    1
    56   102   103    1
    57    49    50   ar
    58    45    46    1
    59    36    37    1
    60    46    48   ar
    61    40    37    1
    62    50    48   ar
    63    51    52    1
    64    28    27    2
    65   116   117    1
    66   116   113    1
    67   103   104    2
    68    58    56   ar
    69    27    26    1
    70   113   112    1
    71   113   114    1
    72    56    55    1
    73    56    57   ar
    74    52    55    1
    75    52    53    1
    76    54    53    2
    77   124   122    1
    78   123   122    1
    79    25    26    1
    80   114   115    2
    81    26    29    1
    82   119   122    1
    83   119   118    1
    84   119   120    1
    85    32    34   ar
    86    32    30   ar
    87    29    30    1
    88    22    21    2
    89    34    35   ar
    90    23    24    1
    91    23    20    1
    92   120   121    2
    93    30    31   ar
    94    11     9    1
    95    21    20    1
    96    35    33   ar
    97    10     9    1
    98    20    19    1
    99    31    33   ar
   100     9     8    2
   101    15    14    2
   102     8     7    1
   103    14    13    1
   104    18    16    1
   105    16    13    1
   106    16    17    1
   107     4     3    2
   108     7     6    1
   109     5     6    1
   110     5     2    1
   111     3     2    1
   112    12    13    1
   113     2     1    1
