@<TRIPOS>MOLECULE
tmp/5dewA00.pdb
 198 184 0 0 0
SMALL
GASTEIGER

@<TRIPOS>ATOM
      1  N          8.8180  -19.2670   10.8250 N.3    27  ILE27      -0.1245
      2  CA         8.5290  -18.1150   11.6830 C.3    27  ILE27       0.1561
      3  C          8.7740  -16.7790   10.9880 C.2    27  ILE27       0.2260
      4  O          8.5410  -15.7180   11.5690 O.2    27  ILE27      -0.2867
      5  CB         9.3690  -18.1430   12.9760 C.3    27  ILE27       0.0252
      6  CG1       10.8620  -18.1030   12.6350 C.3    27  ILE27       0.0019
      7  CG2        9.0360  -19.3720   13.7890 C.3    27  ILE27       0.0019
      8  CD1       11.7530  -17.7580   13.8090 C.3    27  ILE27       0.0001
      9  N         12.9070  -18.2400    7.3140 N.3    35  VAL35      -0.1245
     10  CA        13.4330  -18.6140    8.6270 C.3    35  VAL35       0.1561
     11  C         12.4780  -19.5360    9.3950 C.2    35  VAL35       0.2260
     12  O         11.2960  -19.2310    9.5570 O.2    35  VAL35      -0.2867
     13  CB        13.7370  -17.3570    9.4800 C.3    35  VAL35       0.0252
     14  CG1       14.2650  -17.7560   10.8500 C.3    35  VAL35       0.0019
     15  CG2       14.7360  -16.4520    8.7550 C.3    35  VAL35       0.0019
     16  N         17.3570  -22.2940   15.0360 N.3    48  ALA48      -0.1231
     17  CA        16.8060  -21.4080   14.0310 C.3    48  ALA48       0.1694
     18  C         17.5200  -21.7020   12.7390 C.2    48  ALA48       0.2592
     19  O         18.7440  -21.7310   12.7080 O.2    48  ALA48      -0.2718
     20  CB        16.9870  -19.9550   14.4210 C.3    48  ALA48       0.0304
     21  N         16.7540  -21.9250   11.6760 N.am   49  ILE49      -0.1966
     22  CA        17.3380  -22.2830   10.3910 C.3    49  ILE49       0.1727
     23  C         16.8570  -21.3490    9.2880 C.2    49  ILE49       0.2616
     24  O         15.6640  -21.0630    9.1700 O.2    49  ILE49      -0.2715
     25  CB        17.0140  -23.7530   10.0160 C.3    49  ILE49       0.0290
     26  CG1       17.3840  -24.6820   11.1740 C.3    49  ILE49       0.0022
     27  CG2       17.7780  -24.1650    8.7440 C.3    49  ILE49       0.0023
     28  CD1       17.1020  -26.1530   10.9170 C.3    49  ILE49       0.0001
     29  N         17.7950  -20.8650    8.4810 N.am   50  LYS50      -0.1977
     30  CA        17.4450  -20.0050    7.3640 C.3    50  LYS50       0.1596
     31  C         17.6020  -20.7590    6.0500 C.2    50  LYS50       0.2287
     32  O         18.6440  -21.3590    5.7960 O.2    50  LYS50      -0.2864
     33  CB        18.3010  -18.7340    7.3590 C.3    50  LYS50       0.0298
     34  CG        17.9720  -17.7960    6.1920 C.3    50  LYS50       0.0038
     35  CD        17.9650  -16.3340    6.6120 C.3    50  LYS50       0.0206
     36  CE        19.3590  -15.8430    6.9700 C.3    50  LYS50       0.1093
     37  NZ        19.3660  -14.4090    7.3820 N.3    50  LYS50      -0.1314
     38  N         17.7180  -20.3100    1.9680 N.3    52  MET52      -0.1245
     39  CA        18.0860  -19.2230    1.0770 C.3    52  MET52       0.1570
     40  C         18.3320  -19.7500   -0.3330 C.2    52  MET52       0.2261
     41  O         19.0620  -20.7180   -0.5080 O.2    52  MET52      -0.2867
     42  CB        19.3330  -18.5230    1.6240 C.3    52  MET52       0.0387
     43  CG        19.7700  -17.2770    0.8910 C.3    52  MET52       0.0595
     44  SD        21.3700  -16.6860    1.5090 S.3    52  MET52      -0.1393
     45  CE        20.8670  -15.5490    2.7960 C.3    52  MET52       0.0692
     46  N         27.5570  -12.7770    2.1850 N.3    63  ILE63      -0.1245
     47  CA        27.1130  -14.0460    2.7510 C.3    63  ILE63       0.1561
     48  C         28.3100  -14.9170    3.1070 C.2    63  ILE63       0.2260
     49  O         28.3420  -15.5640    4.1530 O.2    63  ILE63      -0.2867
     50  CB        26.1930  -14.7980    1.7830 C.3    63  ILE63       0.0252
     51  CG1       24.9480  -13.9590    1.5010 C.3    63  ILE63       0.0019
     52  CG2       25.8170  -16.1540    2.3500 C.3    63  ILE63       0.0019
     53  CD1       24.1470  -14.4490    0.3210 C.3    63  ILE63       0.0001
     54  N         29.8020  -13.3550    6.2730 N.3    66  GLU66      -0.1231
     55  CA        29.0380  -13.5970    7.5130 C.3    66  GLU66       0.1699
     56  C         29.2700  -15.0170    8.0230 C.2    66  GLU66       0.2592
     57  O         29.5280  -15.2210    9.2100 O.2    66  GLU66      -0.2718
     58  CB        27.5410  -13.3480    7.3150 C.3    66  GLU66       0.0402
     59  CG        26.7270  -13.6590    8.5910 C.3    66  GLU66       0.1161
     60  CD        25.3050  -13.1230    8.5680 C.2    66  GLU66       0.3649
     61  OE1       24.6680  -13.1020    9.6440 O.co2  66  GLU66      -0.2457
     62  OE2       24.8190  -12.7170    7.4970 O.co2  66  GLU66      -0.2457
     63  N         29.2040  -15.9950    7.1210 N.am   67  ILE67      -0.1980
     64  CA        29.4250  -17.3850    7.5000 C.3    67  ILE67       0.1595
     65  C         30.8320  -17.5630    8.0610 C.2    67  ILE67       0.2287
     66  O         31.0210  -18.2120    9.0750 O.2    67  ILE67      -0.2864
     67  CB        29.2020  -18.3370    6.2950 C.3    67  ILE67       0.0276
     68  CG1       27.7130  -18.4070    5.9460 C.3    67  ILE67       0.0022
     69  CG2       29.7610  -19.7400    6.5620 C.3    67  ILE67       0.0022
     70  CD1       27.4210  -19.2220    4.6910 C.3    67  ILE67       0.0001
     71  N         31.1110  -15.9790   11.6360 N.3    70  MET70      -0.1245
     72  CA        30.4390  -16.7860   12.6630 C.3    70  MET70       0.1570
     73  C         31.2060  -18.0430   13.0370 C.2    70  MET70       0.2261
     74  O         31.2460  -18.4190   14.2100 O.2    70  MET70      -0.2867
     75  CB        29.0330  -17.2000   12.2190 C.3    70  MET70       0.0387
     76  CG        28.1360  -16.0610   11.8130 C.3    70  MET70       0.0595
     77  SD        28.0570  -14.7370   13.0280 S.3    70  MET70      -0.1393
     78  CE        27.2110  -15.5430   14.3880 C.3    70  MET70       0.0692
     79  N         24.7860  -15.0410   19.0450 N.3    79  VAL79      -0.1245
     80  CA        23.8830  -16.0570   18.5360 C.3    79  VAL79       0.1561
     81  C         24.6890  -16.9260   17.5920 C.2    79  VAL79       0.2260
     82  O         25.0210  -16.5160   16.4770 O.2    79  VAL79      -0.2867
     83  CB        22.6550  -15.4570   17.8230 C.3    79  VAL79       0.0252
     84  CG1       21.7650  -16.5580   17.2880 C.3    79  VAL79       0.0019
     85  CG2       21.8540  -14.5840   18.8030 C.3    79  VAL79       0.0019
     86  N         26.5440  -19.9580   15.3160 N.3    81  TYR81      -0.1241
     87  CA        26.4290  -20.8300   14.1670 C.3    81  TYR81       0.1605
     88  C         26.5880  -22.2820   14.6050 C.2    81  TYR81       0.2264
     89  O         27.5050  -22.6030   15.3750 O.2    81  TYR81      -0.2867
     90  CB        27.5040  -20.4410   13.1410 C.3    81  TYR81       0.0534
     91  CG        27.7500  -21.4130   12.0160 C.ar   81  TYR81      -0.0201
     92  CD1       28.6140  -22.4850   12.1800 C.ar   81  TYR81      -0.0009
     93  CD2       27.1630  -21.2280   10.7650 C.ar   81  TYR81      -0.0009
     94  CE1       28.8520  -23.3830   11.1500 C.ar   81  TYR81       0.0417
     95  CE2       27.4080  -22.1130    9.7220 C.ar   81  TYR81       0.0417
     96  CZ        28.2600  -23.1840    9.9170 C.ar   81  TYR81       0.1957
     97  OH        28.5060  -24.0780    8.8900 O.3    81  TYR81      -0.2866
     98  N         20.8250  -22.7350    0.1120 N.3    91  LEU91      -0.1245
     99  CA        21.6850  -22.7560    1.2820 C.3    91  LEU91       0.1561
    100  C         20.8420  -22.7870    2.5560 C.2    91  LEU91       0.2260
    101  O         19.9330  -21.9720    2.7130 O.2    91  LEU91      -0.2867
    102  CB        22.5810  -21.5220    1.2980 C.3    91  LEU91       0.0270
    103  CG        23.4870  -21.3590    2.5180 C.3    91  LEU91       0.0019
    104  CD1       24.6050  -22.3910    2.4820 C.3    91  LEU91       0.0001
    105  CD2       24.0500  -19.9470    2.5890 C.3    91  LEU91       0.0001
    106  N         21.2820  -22.5370    6.7230 N.3    93  VAL93      -0.1245
    107  CA        22.2160  -22.1880    7.7900 C.3    93  VAL93       0.1561
    108  C         21.5330  -22.3710    9.1490 C.2    93  VAL93       0.2260
    109  O         20.4510  -21.8540    9.3650 O.2    93  VAL93      -0.2867
    110  CB        22.7260  -20.7410    7.6340 C.3    93  VAL93       0.0252
    111  CG1       23.5400  -20.3290    8.8420 C.3    93  VAL93       0.0019
    112  CG2       23.5570  -20.5900    6.3370 C.3    93  VAL93       0.0019
    113  N         21.4490  -22.0290   13.3050 N.3    95  MET95      -0.1230
    114  CA        21.9050  -21.1730   14.3930 C.3    95  MET95       0.1702
    115  C         21.1680  -21.5670   15.6640 C.2    95  MET95       0.2592
    116  O         20.1030  -22.1690   15.5980 O.2    95  MET95      -0.2718
    117  CB        21.6350  -19.6920   14.0840 C.3    95  MET95       0.0401
    118  CG        22.0130  -19.2510   12.6800 C.3    95  MET95       0.0596
    119  SD        23.8030  -19.1470   12.4190 S.3    95  MET95      -0.1393
    120  CE        24.2020  -17.9310   13.6750 C.3    95  MET95       0.0692
    121  N         21.7360  -21.2310   16.8150 N.am   96  GLU96      -0.1966
    122  CA        21.0010  -21.2620   18.0660 C.3    96  GLU96       0.1733
    123  C         19.6970  -20.4670   17.9440 C.2    96  GLU96       0.2616
    124  O         19.6210  -19.4860   17.2050 O.2    96  GLU96      -0.2715
    125  CB        21.8420  -20.6790   19.2040 C.3    96  GLU96       0.0429
    126  CG        23.2100  -21.3020   19.3760 C.3    96  GLU96       0.1163
    127  CD        24.0670  -20.5330   20.3720 C.2    96  GLU96       0.3649
    128  OE1       23.7640  -19.3430   20.6320 O.co2  96  GLU96      -0.2457
    129  OE2       25.0350  -21.1220   20.9000 O.co2  96  GLU96      -0.2457
    130  N         18.6820  -20.8960   18.6900 N.am   97  TYR97      -0.1960
    131  CA        17.3950  -20.2200   18.7180 C.3    97  TYR97       0.1771
    132  C         17.1600  -19.6070   20.0980 C.2    97  TYR97       0.2619
    133  O         17.3990  -20.2480   21.1210 O.2    97  TYR97      -0.2715
    134  CB        16.2510  -21.1810   18.3700 C.3    97  TYR97       0.0574
    135  CG        14.8930  -20.5580   18.5370 C.ar   97  TYR97      -0.0198
    136  CD1       14.4580  -19.5600   17.6750 C.ar   97  TYR97      -0.0009
    137  CD2       14.0420  -20.9490   19.5780 C.ar   97  TYR97      -0.0009
    138  CE1       13.2140  -18.9650   17.8320 C.ar   97  TYR97       0.0417
    139  CE2       12.8010  -20.3640   19.7380 C.ar   97  TYR97       0.0417
    140  CZ        12.3930  -19.3750   18.8580 C.ar   97  TYR97       0.1957
    141  OH        11.1580  -18.7870   19.0100 O.3    97  TYR97      -0.2866
    142  N         16.7050  -18.3570   20.1150 N.am   98  LEU98      -0.1977
    143  CA        16.4740  -17.6480   21.3640 C.3    98  LEU98       0.1596
    144  C         14.9880  -17.3600   21.4900 C.2    98  LEU98       0.2287
    145  O         14.4060  -16.6470   20.6760 O.2    98  LEU98      -0.2864
    146  CB        17.2960  -16.3640   21.4400 C.3    98  LEU98       0.0297
    147  CG        18.7010  -16.7230   21.9300 C.3    98  LEU98       0.0022
    148  CD1       19.5840  -17.1790   20.7600 C.3    98  LEU98       0.0001
    149  CD2       19.3460  -15.6140   22.7220 C.3    98  LEU98       0.0001
    150  N         12.7270  -13.6180   22.3070 N.3   101  GLY101     -0.1210
    151  CA        12.4880  -12.5370   21.3660 C.3   101  GLY101      0.1956
    152  C         13.6050  -11.5010   21.3110 C.2   101  GLY101      0.2612
    153  O         14.6670  -11.6690   21.9070 O.2   101  GLY101     -0.2717
    154  N         13.3610  -10.4090   20.6000 N.am  102  SER102     -0.1952
    155  CA        14.3700   -9.3600   20.4890 C.3   102  SER102      0.1924
    156  C         14.2050   -8.3050   21.5760 C.2   102  SER102      0.2314
    157  O         13.1180   -8.1300   22.1510 O.2   102  SER102     -0.2863
    158  CB        14.3200   -8.6980   19.1160 C.3   102  SER102      0.2116
    159  OG        13.2200   -7.8290   19.0190 O.3   102  SER102     -0.2180
    160  N         17.3190   -4.3480   17.6760 N.3   144  ASP144     -0.1225
    161  CA        16.7800   -5.3680   16.7760 C.3   144  ASP144      0.1805
    162  C         17.6970   -6.5870   16.6450 C.2   144  ASP144      0.2597
    163  O         17.2470   -7.6840   16.2900 O.2   144  ASP144     -0.2718
    164  CB        16.5320   -4.7630   15.3880 C.3   144  ASP144      0.1424
    165  CG        15.7440   -3.4650   15.4510 C.2   144  ASP144      0.3668
    166  OD1       14.6020   -3.4370   14.9340 O.co2 144  ASP144     -0.2456
    167  OD2       16.2580   -2.4760   16.0320 O.co2 144  ASP144     -0.2456
    168  N         18.9720   -6.3870   16.9570 N.am  145  ASN145     -0.1974
    169  CA        19.9850   -7.4160   16.7840 C.3   145  ASN145      0.1688
    170  C         20.4750   -7.9580   18.1050 C.2   145  ASN145      0.2292
    171  O         21.5000   -8.6240   18.1610 O.2   145  ASN145     -0.2864
    172  CB        21.1730   -6.8750   15.9640 C.3   145  ASN145      0.1181
    173  CG        20.8340   -6.7160   14.5080 C.2   145  ASN145      0.2629
    174  OD1       19.9560   -7.4060   14.0060 O.2   145  ASN145     -0.2716
    175  ND2       21.5150   -5.7870   13.8150 N.am  145  ASN145     -0.0877
    176  N         19.1100  -10.5100   20.9160 N.3   147  LEU147     -0.1245
    177  CA        18.0550  -11.4910   21.1980 C.3   147  LEU147      0.1561
    178  C         18.1920  -11.9940   22.6210 C.2   147  LEU147      0.2260
    179  O         19.2940  -11.9990   23.1730 O.2   147  LEU147     -0.2867
    180  CB        18.1210  -12.6650   20.2120 C.3   147  LEU147      0.0270
    181  CG        18.2400  -12.3030   18.7290 C.3   147  LEU147      0.0019
    182  CD1       18.3290  -13.5800   17.9390 C.3   147  LEU147      0.0001
    183  CD2       17.0370  -11.5010   18.2760 C.3   147  LEU147      0.0001
    184  N         23.2040  -10.8450   17.3420 N.3   157  THR157     -0.1203
    185  CA        23.0780  -11.4940   16.0460 C.3   157  THR157      0.1994
    186  C         23.3120  -10.5280   14.8630 C.2   157  THR157      0.2617
    187  O         23.7220   -9.3820   15.0620 O.2   157  THR157     -0.2717
    188  CB        21.7030  -12.1670   15.8850 C.3   157  THR157      0.1784
    189  OG1       21.7320  -13.0210   14.7390 O.3   157  THR157     -0.2211
    190  CG2       20.5850  -11.1410   15.7220 C.3   157  THR157      0.0376
    191  N         23.0880  -11.0460   13.6510 N.am  158  ASP158     -0.1973
    192  CA        23.1450  -10.3090   12.3730 C.3   158  ASP158      0.1709
    193  C         24.5250   -9.7380   12.0580 C.2   158  ASP158      0.2293
    194  O         24.8020   -8.5710   12.3160 O.2   158  ASP158     -0.2864
    195  CB        22.1030   -9.1830   12.3460 C.3   158  ASP158      0.1436
    196  CG        22.1810   -8.3370   11.0730 C.2   158  ASP158      0.3671
    197  OD1       22.7370   -8.8140   10.0570 O.co2 158  ASP158     -0.2456
    198  OD2       21.6850   -7.1900   11.0880 O.co2 158  ASP158     -0.2456
@<TRIPOS>BOND
     1    41    40    2
     2    40    39    1
     3    98    99    1
     4    53    51    1
     5    43    44    1
     6    43    42    1
     7    39    42    1
     8    39    38    1
     9    99   102    1
    10    99   100    1
    11   102   103    1
    12    51    50    1
    13    44    45    1
    14    50    52    1
    15    50    47    1
    16    46    47    1
    17   104   103    1
    18   103   105    1
    19   100   101    2
    20    47    48    1
    21    48    49    2
    22    70    68    1
    23    32    31    2
    24    68    67    1
    25    31    30    1
    26    34    35    1
    27    34    33    1
    28    54    55    1
    29    67    69    1
    30    67    64    1
    31   112   110    1
    32    35    36    1
    33   106   107    1
    34    36    37    1
    35    63    64    1
    36    63    56   am
    37     9    10    1
    38    58    55    1
    39    58    59    1
    40    33    30    1
    41    30    29    1
    42    62    60   ar
    43    64    65    1
    44    55    56    1
    45   110   107    1
    46   110   111    1
    47   107   108    1
    48    56    57    2
    49    65    66    2
    50    29    23   am
    51    60    59    1
    52    60    61   ar
    53    10    11    1
    54    10    13    1
    55    27    25    1
    56    15    13    1
    57    97    96    1
    58   108   109    2
    59    24    23    2
    60    23    22    1
    61    11    12    2
    62    13    14    1
    63    95    96   ar
    64    95    93   ar
    65    96    94   ar
    66    25    22    1
    67    25    26    1
    68   197   196   ar
    69    22    21    1
    70    93    91   ar
    71     1     2    1
    72    28    26    1
    73     3     4    2
    74     3     2    1
    75   196   198   ar
    76   196   195    1
    77    94    92   ar
    78    71    72    1
    79    21    18   am
    80     2     5    1
    81    76    75    1
    82    76    77    1
    83    91    92   ar
    84    91    90    1
    85   193   194    2
    86   193   192    1
    87    75    72    1
    88   195   192    1
    89   192   191    1
    90   119   118    1
    91   119   120    1
    92     6     5    1
    93     6     8    1
    94    72    73    1
    95   118   117    1
    96    19    18    2
    97    18    17    1
    98     5     7    1
    99    77    78    1
   100    73    74    2
   101    90    87    1
   102   113   114    1
   103   191   186   am
   104   175   173   am
   105   174   173    2
   106    17    20    1
   107    17    16    1
   108   117   114    1
   109    87    88    1
   110    87    86    1
   111   114   115    1
   112   173   172    1
   113    88    89    2
   114   189   188    1
   115   186   187    2
   116   186   185    1
   117   166   165   ar
   118   164   165    1
   119   164   161    1
   120   165   167   ar
   121   116   115    2
   122   115   121   am
   123   190   188    1
   124   188   185    1
   125   172   169    1
   126   185   184    1
   127   163   162    2
   128    82    81    2
   129   162   161    1
   130   162   168   am
   131   161   160    1
   132   169   168    1
   133   169   170    1
   134   121   122    1
   135   124   123    2
   136    84    83    1
   137    81    80    1
   138   136   138   ar
   139   136   135   ar
   140    83    80    1
   141    83    85    1
   142   138   140   ar
   143   182   181    1
   144   123   122    1
   145   123   130   am
   146   122   125    1
   147   170   171    2
   148   183   181    1
   149   134   135    1
   150   134   131    1
   151    80    79    1
   152   135   137   ar
   153   130   131    1
   154   131   132    1
   155   181   180    1
   156   140   141    1
   157   140   139   ar
   158   159   158    1
   159   158   155    1
   160   125   126    1
   161   126   127    1
   162   137   139   ar
   163   132   142   am
   164   132   133    2
   165   142   143    1
   166   180   177    1
   167   127   128   ar
   168   127   129   ar
   169   155   154    1
   170   155   156    1
   171   154   152   am
   172   145   144    2
   173   148   147    1
   174   176   177    1
   175   177   178    1
   176   152   151    1
   177   152   153    2
   178   143   146    1
   179   143   144    1
   180   151   150    1
   181   146   147    1
   182   156   157    2
   183   147   149    1
   184   178   179    2
