@<TRIPOS>MOLECULE
tmp/5dexB00.pdb
 154 145 0 0 0
SMALL
GASTEIGER

@<TRIPOS>ATOM
      1  N        -30.2570   12.6060   -9.7330 N.3    11  GLU11      -0.1245
      2  CA       -30.0390   13.8910  -10.3640 C.3    11  GLU11       0.1567
      3  C        -30.7420   13.8670  -11.7100 C.2    11  GLU11       0.2260
      4  O        -30.1540   13.4470  -12.7050 O.2    11  GLU11      -0.2867
      5  CB       -28.5570   14.2010  -10.5660 C.3    11  GLU11       0.0388
      6  CG       -28.3240   15.6090  -11.1050 C.3    11  GLU11       0.1160
      7  CD       -26.8650   16.0280  -11.0480 C.2    11  GLU11       0.3649
      8  OE1      -25.9770   15.1790  -11.1810 O.co2  11  GLU11      -0.2457
      9  OE2      -26.5920   17.2170  -10.8520 O.co2  11  GLU11      -0.2457
     10  N        -21.4000   13.2590   -5.6230 N.3    82  HIS82      -0.1241
     11  CA       -20.6230   12.5690   -6.6470 C.3    82  HIS82       0.1621
     12  C        -19.3460   11.9520   -6.0930 C.2    82  HIS82       0.2264
     13  O        -18.9550   10.8490   -6.4920 O.2    82  HIS82      -0.2867
     14  CB       -20.2960   13.5470   -7.7630 C.3    82  HIS82       0.0745
     15  CG       -21.5030   14.1510   -8.3890 C.ar   82  HIS82       0.0817
     16  ND1      -22.2100   15.1710   -7.8040 N.ar   82  HIS82      -0.2268
     17  CD2      -22.1630   13.8360   -9.5220 C.ar   82  HIS82       0.1154
     18  CE1      -23.2480   15.4680   -8.5570 C.ar   82  HIS82       0.1986
     19  NE2      -23.2440   14.6660   -9.6040 N.ar   82  HIS82      -0.2212
     20  N        -24.4520   10.7910  -13.2700 N.3   108  SER108     -0.1217
     21  CA       -23.9050   12.0270  -13.8160 C.3   108  SER108      0.1889
     22  C        -22.5780   12.3880  -13.1290 C.2   108  SER108      0.2288
     23  O        -22.3870   13.4290  -12.5110 O.2   108  SER108     -0.2866
     24  CB       -24.9360   13.1200  -13.6610 C.3   108  SER108      0.2089
     25  OG       -25.1520   13.3230  -12.3030 O.3   108  SER108     -0.2183
     26  N        -18.7770   13.3400  -13.1320 N.3   110  THR110     -0.1218
     27  CA       -17.7820   13.9390  -13.9900 C.3   110  THR110      0.1862
     28  C        -16.4310   13.2260  -13.8870 C.2   110  THR110      0.2287
     29  O        -16.0340   12.7690  -12.8150 O.2   110  THR110     -0.2866
     30  CB       -17.6180   15.4010  -13.6120 C.3   110  THR110      0.1770
     31  OG1      -18.8690   16.0570  -13.7630 O.3   110  THR110     -0.2211
     32  CG2      -16.6410   16.0510  -14.4750 C.3   110  THR110      0.0375
     33  N        -10.1150   12.0900   -9.3220 N.3   115  ARG115     -0.1245
     34  CA       -10.8130   10.8160   -9.2230 C.3   115  ARG115      0.1563
     35  C        -10.1070    9.7130   -9.9970 C.2   115  ARG115      0.2260
     36  O        -10.0930    8.5630   -9.5680 O.2   115  ARG115     -0.2867
     37  CB       -12.2390   10.9710   -9.7230 C.3   115  ARG115      0.0307
     38  CG       -13.0820   11.8050   -8.8330 C.3   115  ARG115      0.0489
     39  CD       -14.2350   12.3340   -9.5780 C.3   115  ARG115      0.2205
     40  NE       -15.0360   13.1800   -8.7260 N.pl3 115  ARG115     -0.0865
     41  CZ       -16.1480   13.7610   -9.1170 C.cat 115  ARG115      0.5346
     42  NH1      -16.5880   13.5660  -10.3490 N.pl3 115  ARG115      0.1354
     43  NH2      -16.8040   14.5290   -8.2840 N.pl3 115  ARG115      0.1354
     44  N        -19.6530   17.2070  -20.9080 N.3   128  THR128     -0.1203
     45  CA       -19.9630   18.2920  -19.9910 C.3   128  THR128      0.1994
     46  C        -18.7170   19.1630  -19.8730 C.2   128  THR128      0.2618
     47  O        -17.7450   18.9860  -20.6120 O.2   128  THR128     -0.2717
     48  CB       -20.4550   17.7630  -18.6390 C.3   128  THR128      0.1784
     49  OG1      -20.8400   18.8710  -17.8130 O.3   128  THR128     -0.2211
     50  CG2      -19.3860   17.0060  -17.9580 C.3   128  THR128      0.0376
     51  N        -18.7570   20.1210  -18.9530 N.am  129  GLY129     -0.1942
     52  CA       -17.6370   21.0090  -18.7230 C.3   129  GLY129      0.2014
     53  C        -18.0910   22.0590  -17.7370 C.2   129  GLY129      0.2638
     54  O        -19.0900   21.8680  -17.0650 O.2   129  GLY129     -0.2714
     55  N        -17.3890   23.1780  -17.6810 N.am  130  ILE130     -0.1977
     56  CA       -17.8690   24.3060  -16.9100 C.3   130  ILE130      0.1596
     57  C        -18.4240   25.3300  -17.8790 C.2   130  ILE130      0.2287
     58  O        -17.7070   25.8150  -18.7680 O.2   130  ILE130     -0.2864
     59  CB       -16.7840   24.9290  -16.0280 C.3   130  ILE130      0.0276
     60  CG1      -16.3520   23.9830  -14.9600 C.3   130  ILE130      0.0022
     61  CG2      -17.3580   26.1630  -15.3310 C.3   130  ILE130      0.0022
     62  CD1      -15.2750   24.5520  -14.1650 C.3   130  ILE130      0.0001
     63  N        -23.0180   27.3860   -7.4430 N.3   163  VAL163     -0.1231
     64  CA       -23.4250   26.7070   -6.2180 C.3   163  VAL163      0.1678
     65  C        -22.1690   26.1880   -5.5210 C.2   163  VAL163      0.2434
     66  O        -21.4470   25.3690   -6.1030 O.2   163  VAL163     -0.2733
     67  CB       -24.4130   25.5810   -6.5270 C.3   163  VAL163      0.0265
     68  CG1      -24.6760   24.7260   -5.3150 C.3   163  VAL163      0.0020
     69  CG2      -25.6950   26.2060   -7.0410 C.3   163  VAL163      0.0020
     70  N        -21.8530   26.6470   -4.3180 N.am  164  PRO164     -0.2729
     71  CA       -20.5330   26.3710   -3.7520 C.3   164  PRO164      0.1401
     72  C        -20.3740   24.9120   -3.3590 C.2   164  PRO164      0.2269
     73  O        -21.3000   24.1160   -3.4160 O.2   164  PRO164     -0.2865
     74  CB       -20.4600   27.3000   -2.5350 C.3   164  PRO164      0.0296
     75  CG       -21.8560   27.6180   -2.1950 C.3   164  PRO164      0.0237
     76  CD       -22.6370   27.5510   -3.4740 C.3   164  PRO164      0.0939
     77  N        -18.8690   22.4640   -4.7130 N.3   166  GLY166     -0.1210
     78  CA       -18.7810   21.5130   -5.7830 C.3   166  GLY166      0.1956
     79  C        -17.4700   21.5770   -6.5310 C.2   166  GLY166      0.2613
     80  O        -16.4680   22.1170   -6.0410 O.2   166  GLY166     -0.2717
     81  N        -17.4590   21.0090   -7.7390 N.am  167  SER167     -0.1938
     82  CA       -16.2910   21.0510   -8.6110 C.3   167  SER167      0.2055
     83  C        -16.1640   22.3820   -9.3250 C.2   167  SER167      0.2644
     84  O        -15.0460   22.8510   -9.5640 O.2   167  SER167     -0.2714
     85  CB       -16.3500   19.9230   -9.6310 C.3   167  SER167      0.2130
     86  OG       -16.4080   18.6800   -8.9610 O.3   167  SER167     -0.2179
     87  N        -17.2790   23.0170   -9.6690 N.am  168  THR168     -0.1936
     88  CA       -17.1760   24.3360  -10.2700 C.3   168  THR168      0.2028
     89  C        -16.5060   25.3110   -9.3250 C.2   168  THR168      0.2642
     90  O        -15.6320   26.0740   -9.7370 O.2   168  THR168     -0.2714
     91  CB       -18.5500   24.8340  -10.6640 C.3   168  THR168      0.1808
     92  OG1      -19.1890   23.8360  -11.4450 O.3   168  THR168     -0.2208
     93  CG2      -18.4190   26.0740  -11.4760 C.3   168  THR168      0.0379
     94  N        -16.8710   25.2950   -8.0490 N.am  169  GLU169     -0.1976
     95  CA       -16.2470   26.2500   -7.1460 C.3   169  GLU169      0.1602
     96  C        -14.7700   25.9670   -7.0010 C.2   169  GLU169      0.2287
     97  O        -13.9690   26.8970   -6.9330 O.2   169  GLU169     -0.2864
     98  CB       -16.9050   26.2470   -5.7610 C.3   169  GLU169      0.0415
     99  CG       -16.3360   27.3300   -4.8510 C.3   169  GLU169      0.1163
    100  CD       -16.8750   27.3340   -3.4220 C.2   169  GLU169      0.3649
    101  OE1      -17.2940   26.2870   -2.9100 O.co2 169  GLU169     -0.2457
    102  OE2      -16.8460   28.4130   -2.7890 O.co2 169  GLU169     -0.2457
    103  N        -12.5540   24.1620   -9.0670 N.3   171  ASN171     -0.1240
    104  CA       -11.8860   24.5310  -10.3010 C.3   171  ASN171      0.1653
    105  C        -11.6560   26.0310  -10.3960 C.2   171  ASN171      0.2266
    106  O        -10.5590   26.4620  -10.7390 O.2   171  ASN171     -0.2867
    107  CB       -12.6930   24.0320  -11.4940 C.3   171  ASN171      0.1155
    108  CG       -12.0490   24.3750  -12.8070 C.2   171  ASN171      0.2627
    109  OD1      -12.2120   25.4740  -13.3100 O.2   171  ASN171     -0.2716
    110  ND2      -11.3190   23.4340  -13.3780 N.am  171  ASN171     -0.0877
    111  N        -21.8480   26.6830  -14.1380 N.3   208  TYR208     -0.1227
    112  CA       -22.1430   25.3550  -13.5870 C.3   208  TYR208      0.1736
    113  C        -21.8920   24.2590  -14.6360 C.2   208  TYR208      0.2595
    114  O        -21.5020   24.5380  -15.7650 O.2   208  TYR208     -0.2718
    115  CB       -23.5770   25.3210  -13.0510 C.3   208  TYR208      0.0548
    116  CG       -23.9170   24.1750  -12.1270 C.ar  208  TYR208     -0.0200
    117  CD1      -23.4190   24.1320  -10.8400 C.ar  208  TYR208     -0.0009
    118  CD2      -24.7550   23.1630  -12.5240 C.ar  208  TYR208     -0.0009
    119  CE1      -23.7240   23.1060   -9.9860 C.ar  208  TYR208      0.0417
    120  CE2      -25.0630   22.1080  -11.6680 C.ar  208  TYR208      0.0417
    121  CZ       -24.5450   22.0900  -10.3990 C.ar  208  TYR208      0.1957
    122  OH       -24.8400   21.0610   -9.5280 O.3   208  TYR208     -0.2866
    123  N        -22.0760   23.0020  -14.2250 N.am  209  ASP209     -0.1974
    124  CA       -21.9680   21.8220  -15.0840 C.3   209  ASP209      0.1709
    125  C        -22.7090   22.0230  -16.3840 C.2   209  ASP209      0.2293
    126  O        -23.8940   22.3490  -16.3790 O.2   209  ASP209     -0.2864
    127  CB       -22.5260   20.6250  -14.2950 C.3   209  ASP209      0.1436
    128  CG       -22.8210   19.3650  -15.1270 C.2   209  ASP209      0.3671
    129  OD1      -23.1430   19.4140  -16.3270 O.co2 209  ASP209     -0.2456
    130  OD2      -22.8210   18.2800  -14.5080 O.co2 209  ASP209     -0.2456
    131  N        -12.6570   23.4200  -19.1160 N.3   235  ALA235     -0.1245
    132  CA       -12.3700   22.0680  -18.5940 C.3   235  ALA235      0.1562
    133  C        -13.3050   21.0190  -19.1570 C.2   235  ALA235      0.2260
    134  O        -13.7850   20.1570  -18.4340 O.2   235  ALA235     -0.2867
    135  CB       -12.4260   22.0090  -17.0850 C.3   235  ALA235      0.0290
    136  N        -14.9630   17.8070  -20.5040 N.3   237  THR237     -0.1218
    137  CA       -14.7800   16.4500  -20.0110 C.3   237  THR237      0.1862
    138  C        -16.0930   15.7050  -20.2230 C.2   237  THR237      0.2287
    139  O        -16.8120   15.9870  -21.1800 O.2   237  THR237     -0.2866
    140  CB       -14.3650   16.4460  -18.5410 C.3   237  THR237      0.1770
    141  OG1      -14.1570   15.1110  -18.0910 O.3   237  THR237     -0.2211
    142  CG2      -15.4150   17.0700  -17.6700 C.3   237  THR237      0.0375
    143  N        -19.3730   12.8170  -18.4710 N.3   239  TYR239     -0.1241
    144  CA       -19.8160   11.8180  -17.5240 C.3   239  TYR239      0.1605
    145  C        -19.2460   10.4580  -17.9230 C.2   239  TYR239      0.2264
    146  O        -19.1360   10.1340  -19.1080 O.2   239  TYR239     -0.2867
    147  CB       -21.3510   11.7790  -17.4450 C.3   239  TYR239      0.0534
    148  CG       -22.0160   13.0520  -16.8990 C.ar  239  TYR239     -0.0201
    149  CD1      -21.3250   13.9340  -16.1390 C.ar  239  TYR239     -0.0009
    150  CD2      -23.3570   13.3200  -17.1330 C.ar  239  TYR239     -0.0009
    151  CE1      -21.9170   15.0720  -15.6410 C.ar  239  TYR239      0.0417
    152  CE2      -23.9600   14.4540  -16.6460 C.ar  239  TYR239      0.0417
    153  CZ       -23.2390   15.3260  -15.8960 C.ar  239  TYR239      0.1957
    154  OH       -23.8150   16.4610  -15.4070 O.3   239  TYR239     -0.2866
@<TRIPOS>BOND
     1   139   138    2
     2    44    45    1
     3    47    46    2
     4   136   137    1
     5   138   137    1
     6   137   140    1
     7    45    46    1
     8    45    48    1
     9    46    51   am
    10   133   132    1
    11   133   134    2
    12   131   132    1
    13   146   145    2
    14    51    52    1
    15    58    57    2
    16    52    53    1
    17    48    50    1
    18    48    49    1
    19   132   135    1
    20   140   141    1
    21   140   142    1
    22   143   144    1
    23   145   144    1
    24    57    56    1
    25    53    55   am
    26    53    54    2
    27    55    56    1
    28   144   147    1
    29   147   148    1
    30   150   148   ar
    31   150   152   ar
    32    56    59    1
    33   148   149   ar
    34   152   153   ar
    35   125   126    2
    36   125   124    1
    37   129   128   ar
    38   149   151   ar
    39    59    61    1
    40    59    60    1
    41   153   151   ar
    42   153   154    1
    43   114   113    2
    44   128   130   ar
    45   128   127    1
    46   124   127    1
    47   124   123    1
    48    60    62    1
    49   113   123   am
    50   113   112    1
    51    32    30    1
    52   111   112    1
    53    27    28    1
    54    27    30    1
    55    27    26    1
    56    28    29    2
    57    21    24    1
    58    21    20    1
    59    21    22    1
    60    31    30    1
    61    24    25    1
    62   112   115    1
    63   110   108   am
    64   109   108    2
    65    22    23    2
    66   115   116    1
    67   108   107    1
    68     4     3    2
    69   118   116   ar
    70   118   120   ar
    71   116   117   ar
    72     3     2    1
    73   120   121   ar
    74   107   104    1
    75    93    91    1
    76    92    91    1
    77     8     7   ar
    78     6     7    1
    79     6     5    1
    80     7     9   ar
    81   117   119   ar
    82   106   105    2
    83    91    88    1
    84     5     2    1
    85   121   119   ar
    86   121   122    1
    87   105   104    1
    88     2     1    1
    89    42    41    1
    90   104   103    1
    91    88    87    1
    92    88    89    1
    93    35    36    2
    94    35    34    1
    95    90    89    2
    96    37    34    1
    97    37    38    1
    98    87    83   am
    99    85    86    1
   100    85    82    1
   101    19    17   ar
   102    19    18   ar
   103    39    38    1
   104    39    40    1
   105    84    83    2
   106    17    15   ar
   107    89    94   am
   108    83    82    1
   109    33    34    1
   110    41    40    2
   111    41    43    1
   112    82    81    1
   113    18    16   ar
   114    15    16   ar
   115    15    14    1
   116    94    95    1
   117    14    11    1
   118    81    79   am
   119    63    64    1
   120    95    96    1
   121    95    98    1
   122    69    67    1
   123    96    97    2
   124    11    12    1
   125    11    10    1
   126    79    80    2
   127    79    78    1
   128    67    64    1
   129    67    68    1
   130    13    12    2
   131    64    65    1
   132    66    65    2
   133    78    77    1
   134    98    99    1
   135    65    70   am
   136    99   100    1
   137    70    71    1
   138    70    76    1
   139    71    72    1
   140    71    74    1
   141    76    75    1
   142   100   101   ar
   143   100   102   ar
   144    73    72    2
   145    74    75    1
