@<TRIPOS>MOLECULE
tmp/5deyA00.pdb
 190 177 0 0 0
SMALL
GASTEIGER

@<TRIPOS>ATOM
      1  N          8.5680  -18.9810   11.1970 N.3    27  ILE27      -0.1245
      2  CA         8.3040  -17.8800   12.1130 C.3    27  ILE27       0.1561
      3  C          8.5800  -16.5360   11.4570 C.2    27  ILE27       0.2260
      4  O          8.6960  -15.5260   12.1350 O.2    27  ILE27      -0.2867
      5  CB         9.1490  -17.9860   13.4010 C.3    27  ILE27       0.0252
      6  CG1       10.6400  -18.0310   13.0540 C.3    27  ILE27       0.0019
      7  CG2        8.7230  -19.1980   14.2240 C.3    27  ILE27       0.0019
      8  CD1       11.5600  -17.7030   14.2190 C.3    27  ILE27       0.0001
      9  N         12.7390  -17.9040    7.5010 N.3    35  VAL35      -0.1245
     10  CA        13.2850  -18.3430    8.7740 C.3    35  VAL35       0.1561
     11  C         12.3570  -19.3000    9.5170 C.2    35  VAL35       0.2260
     12  O         11.1680  -19.0320    9.6980 O.2    35  VAL35      -0.2867
     13  CB        13.6120  -17.1380    9.6660 C.3    35  VAL35       0.0252
     14  CG1       14.4410  -17.5730   10.8630 C.3    35  VAL35       0.0019
     15  CG2       14.3650  -16.0910    8.8630 C.3    35  VAL35       0.0019
     16  N         17.0770  -22.4360   14.9820 N.3    48  ALA48      -0.1231
     17  CA        16.5500  -21.4950   13.9970 C.3    48  ALA48       0.1694
     18  C         17.3050  -21.7040   12.7140 C.2    48  ALA48       0.2592
     19  O         18.5330  -21.6450   12.6990 O.2    48  ALA48      -0.2718
     20  CB        16.6990  -20.0290   14.4670 C.3    48  ALA48       0.0304
     21  N         16.5670  -21.9230   11.6340 N.am   49  ILE49      -0.1966
     22  CA        17.1580  -22.2220   10.3470 C.3    49  ILE49       0.1727
     23  C         16.6220  -21.2590    9.2980 C.2    49  ILE49       0.2616
     24  O         15.4140  -21.1440    9.1020 O.2    49  ILE49      -0.2715
     25  CB        16.8720  -23.6880    9.9220 C.3    49  ILE49       0.0290
     26  CG1       17.3920  -24.6620   10.9770 C.3    49  ILE49       0.0022
     27  CG2       17.5080  -24.0080    8.5800 C.3    49  ILE49       0.0023
     28  CD1       16.9990  -26.1060   10.7240 C.3    49  ILE49       0.0001
     29  N         17.5370  -20.5560    8.6400 N.am   50  LYS50      -0.1977
     30  CA        17.1970  -19.6590    7.5470 C.3    50  LYS50       0.1596
     31  C         17.2850  -20.4030    6.2260 C.2    50  LYS50       0.2287
     32  O         18.2610  -21.0970    5.9760 O.2    50  LYS50      -0.2864
     33  CB        18.1340  -18.4550    7.5290 C.3    50  LYS50       0.0298
     34  CG        17.7490  -17.3830    6.5310 C.3    50  LYS50       0.0038
     35  CD        18.5780  -16.1410    6.7860 C.3    50  LYS50       0.0206
     36  CE        17.7770  -14.8730    6.5660 C.3    50  LYS50       0.1093
     37  NZ        18.5460  -13.6880    7.0350 N.3    50  LYS50      -0.1314
     38  N         17.3610  -20.0200    2.0960 N.3    52  MET52      -0.1245
     39  CA        17.8190  -18.9630    1.2120 C.3    52  MET52       0.1570
     40  C         18.1710  -19.5000   -0.1720 C.2    52  MET52       0.2261
     41  O         18.9930  -20.4120   -0.2930 O.2    52  MET52      -0.2867
     42  CB        19.0240  -18.2710    1.8490 C.3    52  MET52       0.0387
     43  CG        19.4930  -17.0100    1.1680 C.3    52  MET52       0.0595
     44  SD        20.8920  -16.3080    2.0650 S.3    52  MET52      -0.1393
     45  CE        20.0830  -15.7550    3.5660 C.3    52  MET52       0.0692
     46  N         27.0750  -12.7920    2.0570 N.3    63  ILE63      -0.1245
     47  CA        26.6740  -14.0750    2.6230 C.3    63  ILE63       0.1561
     48  C         27.8980  -14.8970    3.0290 C.2    63  ILE63       0.2260
     49  O         27.9510  -15.4520    4.1270 O.2    63  ILE63      -0.2867
     50  CB        25.8270  -14.8710    1.6210 C.3    63  ILE63       0.0252
     51  CG1       24.5330  -14.1180    1.3150 C.3    63  ILE63       0.0019
     52  CG2       25.5310  -16.2660    2.1440 C.3    63  ILE63       0.0019
     53  CD1       23.7810  -14.6660    0.1070 C.3    63  ILE63       0.0001
     54  N         29.4590  -13.3790    6.0610 N.3    66  GLU66      -0.1231
     55  CA        28.6450  -13.5350    7.2720 C.3    66  GLU66       0.1699
     56  C         28.8690  -14.9260    7.8540 C.2    66  GLU66       0.2592
     57  O         29.1370  -15.0620    9.0490 O.2    66  GLU66      -0.2718
     58  CB        27.1500  -13.3020    6.9990 C.3    66  GLU66       0.0402
     59  CG        26.2640  -13.3830    8.2810 C.3    66  GLU66       0.1161
     60  CD        24.8170  -12.9430    8.0620 C.2    66  GLU66       0.3649
     61  OE1       24.0020  -13.0740    9.0080 O.co2  66  GLU66      -0.2457
     62  OE2       24.4920  -12.4610    6.9540 O.co2  66  GLU66      -0.2457
     63  N         28.7850  -15.9460    6.9980 N.am   67  ILE67      -0.1980
     64  CA        29.0230  -17.3360    7.3970 C.3    67  ILE67       0.1595
     65  C         30.4290  -17.5290    7.9610 C.2    67  ILE67       0.2287
     66  O         30.6170  -18.2140    8.9680 O.2    67  ILE67      -0.2864
     67  CB        28.8330  -18.3090    6.2090 C.3    67  ILE67       0.0276
     68  CG1       27.3570  -18.4020    5.8070 C.3    67  ILE67       0.0022
     69  CG2       29.3760  -19.6870    6.5420 C.3    67  ILE67       0.0022
     70  CD1       27.1620  -19.0240    4.4250 C.3    67  ILE67       0.0001
     71  N         30.7700  -15.7750   11.5100 N.3    70  MET70      -0.1245
     72  CA        30.0930  -16.5970   12.5160 C.3    70  MET70       0.1570
     73  C         30.9280  -17.8230   12.8960 C.2    70  MET70       0.2261
     74  O         31.0450  -18.1580   14.0760 O.2    70  MET70      -0.2867
     75  CB        28.7160  -17.0710   12.0260 C.3    70  MET70       0.0387
     76  CG        27.7590  -15.9940   11.5550 C.3    70  MET70       0.0595
     77  SD        27.3090  -14.7850   12.7950 S.3    70  MET70      -0.1393
     78  CE        26.4860  -15.7870   14.0290 C.3    70  MET70       0.0692
     79  N         24.7160  -15.1350   19.0850 N.3    79  VAL79      -0.1245
     80  CA        23.8820  -16.2520   18.6620 C.3    79  VAL79       0.1561
     81  C         24.8140  -17.1420   17.8780 C.2    79  VAL79       0.2260
     82  O         25.4930  -16.6830   16.9660 O.2    79  VAL79      -0.2867
     83  CB        22.6520  -15.8230   17.8140 C.3    79  VAL79       0.0252
     84  CG1       23.0570  -15.1860   16.5180 C.3    79  VAL79       0.0019
     85  CG2       21.7550  -17.0100   17.5320 C.3    79  VAL79       0.0019
     86  N         26.4230  -20.2170   15.5840 N.3    81  TYR81      -0.1241
     87  CA        26.2910  -20.9580   14.3570 C.3    81  TYR81       0.1605
     88  C         26.4680  -22.4510   14.6150 C.2    81  TYR81       0.2264
     89  O         27.4340  -22.8750   15.2580 O.2    81  TYR81      -0.2867
     90  CB        27.3370  -20.4230   13.3830 C.3    81  TYR81       0.0534
     91  CG        27.4110  -21.0790   12.0310 C.ar   81  TYR81      -0.0201
     92  CD1       28.1820  -22.2150   11.8300 C.ar   81  TYR81      -0.0009
     93  CD2       26.7510  -20.5330   10.9420 C.ar   81  TYR81      -0.0009
     94  CE1       28.2630  -22.8040   10.5940 C.ar   81  TYR81       0.0417
     95  CE2       26.8300  -21.1140    9.7020 C.ar   81  TYR81       0.0417
     96  CZ        27.5850  -22.2500    9.5330 C.ar   81  TYR81       0.1957
     97  OH        27.6700  -22.8310    8.2930 O.3    81  TYR81      -0.2866
     98  N         20.9270  -22.1430    6.6320 N.3    93  VAL93      -0.1245
     99  CA        21.8020  -21.7950    7.7430 C.3    93  VAL93       0.1561
    100  C         21.1330  -22.1960    9.0470 C.2    93  VAL93       0.2260
    101  O         19.9770  -21.8890    9.2390 O.2    93  VAL93      -0.2867
    102  CB        22.1120  -20.2880    7.7630 C.3    93  VAL93       0.0252
    103  CG1       23.0910  -19.9570    8.8770 C.3    93  VAL93       0.0019
    104  CG2       22.6630  -19.8450    6.4170 C.3    93  VAL93       0.0019
    105  N         21.2340  -22.0330   13.2030 N.3    95  MET95      -0.1230
    106  CA        21.6630  -21.2560   14.3680 C.3    95  MET95       0.1702
    107  C         20.9540  -21.7030   15.6380 C.2    95  MET95       0.2592
    108  O         19.9150  -22.3620   15.5670 O.2    95  MET95      -0.2718
    109  CB        21.3550  -19.7810   14.1490 C.3    95  MET95       0.0401
    110  CG        21.7330  -19.2890   12.7820 C.3    95  MET95       0.0596
    111  SD        23.5220  -19.2200   12.6680 S.3    95  MET95      -0.1393
    112  CE        23.8550  -18.1920   14.0960 C.3    95  MET95       0.0692
    113  N         21.4940  -21.3260   16.7970 N.am   96  GLU96      -0.1966
    114  CA        20.7390  -21.4190   18.0410 C.3    96  GLU96       0.1733
    115  C         19.3940  -20.7510   17.8720 C.2    96  GLU96       0.2616
    116  O         19.2760  -19.7720   17.1400 O.2    96  GLU96      -0.2715
    117  CB        21.4590  -20.7260   19.2090 C.3    96  GLU96       0.0429
    118  CG        22.9240  -21.0530   19.3400 C.3    96  GLU96       0.1163
    119  CD        23.6400  -20.1600   20.3450 C.2    96  GLU96       0.3649
    120  OE1       23.0570  -19.1240   20.7430 O.co2  96  GLU96      -0.2457
    121  OE2       24.7870  -20.4930   20.7290 O.co2  96  GLU96      -0.2457
    122  N         18.3830  -21.2630   18.5610 N.am   97  TYR97      -0.1960
    123  CA        17.1460  -20.5220   18.6790 C.3    97  TYR97       0.1771
    124  C         17.1090  -19.8890   20.0610 C.2    97  TYR97       0.2619
    125  O         17.3900  -20.5460   21.0730 O.2    97  TYR97      -0.2715
    126  CB        15.9200  -21.4110   18.4450 C.3    97  TYR97       0.0574
    127  CG        14.6060  -20.6630   18.5340 C.ar   97  TYR97      -0.0198
    128  CD1       14.2460  -19.7400   17.5600 C.ar   97  TYR97      -0.0009
    129  CD2       13.7310  -20.8690   19.6010 C.ar   97  TYR97      -0.0009
    130  CE1       13.0480  -19.0360   17.6360 C.ar   97  TYR97       0.0417
    131  CE2       12.5220  -20.1740   19.6870 C.ar   97  TYR97       0.0417
    132  CZ        12.1860  -19.2610   18.6970 C.ar   97  TYR97       0.1957
    133  OH        10.9930  -18.5650   18.7650 O.3    97  TYR97      -0.2866
    134  N         16.8040  -18.5980   20.0870 N.am   98  LEU98      -0.1977
    135  CA        16.6110  -17.8810   21.3360 C.3    98  LEU98       0.1596
    136  C         15.1270  -17.5650   21.4740 C.2    98  LEU98       0.2287
    137  O         14.5790  -16.7790   20.7010 O.2    98  LEU98      -0.2864
    138  CB        17.4690  -16.6240   21.3680 C.3    98  LEU98       0.0297
    139  CG        18.9540  -16.9590   21.4870 C.3    98  LEU98       0.0022
    140  CD1       19.7660  -16.2120   20.4460 C.3    98  LEU98       0.0001
    141  CD2       19.4530  -16.6440   22.8880 C.3    98  LEU98       0.0001
    142  N         13.0410  -14.1150   22.2080 N.3   101  GLY101     -0.1210
    143  CA        12.7810  -13.1820   21.1270 C.3   101  GLY101      0.1956
    144  C         13.6810  -11.9570   21.1070 C.2   101  GLY101      0.2612
    145  O         14.7620  -11.9450   21.7060 O.2   101  GLY101     -0.2717
    146  N         13.2130  -10.9130   20.4280 N.am  102  SER102     -0.1952
    147  CA        14.0280   -9.7280   20.1370 C.3   102  SER102      0.1924
    148  C         13.9340   -8.6370   21.2190 C.2   102  SER102      0.2314
    149  O         12.8650   -8.4060   21.7800 O.2   102  SER102     -0.2863
    150  CB        13.6030   -9.1540   18.7920 C.3   102  SER102      0.2116
    151  OG        13.8370   -7.7660   18.7420 O.3   102  SER102     -0.2180
    152  N         17.2120   -4.5410   17.4410 N.3   144  ASP144     -0.1225
    153  CA        16.7200   -5.5280   16.4850 C.3   144  ASP144      0.1805
    154  C         17.6580   -6.7100   16.3090 C.2   144  ASP144      0.2597
    155  O         17.2260   -7.7990   15.9260 O.2   144  ASP144     -0.2718
    156  CB        16.4930   -4.8760   15.1340 C.3   144  ASP144      0.1424
    157  CG        15.6890   -3.6180   15.2350 C.2   144  ASP144      0.3668
    158  OD1       14.5970   -3.5890   14.6320 O.co2 144  ASP144     -0.2456
    159  OD2       16.1550   -2.6550   15.8990 O.co2 144  ASP144     -0.2456
    160  N         18.9370   -6.4940   16.5950 N.am  145  ASN145     -0.1974
    161  CA        19.9340   -7.5520   16.4570 C.3   145  ASN145      0.1688
    162  C         20.4270   -8.0700   17.7920 C.2   145  ASN145      0.2292
    163  O         21.5420   -8.6120   17.8970 O.2   145  ASN145     -0.2864
    164  CB        21.1120   -7.0650   15.6030 C.3   145  ASN145      0.1181
    165  CG        20.7040   -6.8420   14.1730 C.2   145  ASN145      0.2629
    166  OD1       19.7750   -7.4940   13.6930 O.2   145  ASN145     -0.2716
    167  ND2       21.3590   -5.8940   13.4880 N.am  145  ASN145     -0.0877
    168  N         19.0690  -10.7800   20.5640 N.3   147  LEU147     -0.1245
    169  CA        18.1270  -11.8570   20.8030 C.3   147  LEU147      0.1561
    170  C         18.2370  -12.2930   22.2530 C.2   147  LEU147      0.2260
    171  O         19.3420  -12.2720   22.8190 O.2   147  LEU147     -0.2867
    172  CB        18.4110  -13.0270   19.8560 C.3   147  LEU147      0.0270
    173  CG        18.0880  -12.7600   18.3900 C.3   147  LEU147      0.0019
    174  CD1       18.6080  -13.8840   17.5080 C.3   147  LEU147      0.0001
    175  CD2       16.5910  -12.6210   18.2220 C.3   147  LEU147      0.0001
    176  N         23.2630  -10.7730   17.1820 N.3   157  THR157     -0.1203
    177  CA        23.0500  -11.4590   15.9080 C.3   157  THR157      0.1994
    178  C         23.2630  -10.5530   14.6820 C.2   157  THR157      0.2617
    179  O         23.6730   -9.4020   14.8110 O.2   157  THR157     -0.2717
    180  CB        21.6300  -12.0670   15.8190 C.3   157  THR157      0.1784
    181  OG1       21.5340  -12.8860   14.6480 O.3   157  THR157     -0.2211
    182  CG2       20.5600  -10.9830   15.7420 C.3   157  THR157      0.0376
    183  N         22.9770  -11.1020   13.4990 N.am  158  ASP158     -0.1973
    184  CA        23.1610  -10.4390   12.1920 C.3   158  ASP158      0.1709
    185  C         24.5480   -9.8200   11.9440 C.2   158  ASP158      0.2293
    186  O         24.8040   -8.6570   12.2720 O.2   158  ASP158     -0.2864
    187  CB        22.1040   -9.3520   11.9760 C.3   158  ASP158      0.1436
    188  CG        22.3040   -8.6080   10.6590 C.2   158  ASP158      0.3671
    189  OD1       22.5420   -9.2780    9.6280 O.co2 158  ASP158     -0.2456
    190  OD2       22.2520   -7.3580   10.6580 O.co2 158  ASP158     -0.2456
@<TRIPOS>BOND
     1    41    40    2
     2    40    39    1
     3    53    51    1
     4    43    42    1
     5    43    44    1
     6    39    42    1
     7    39    38    1
     8    51    50    1
     9    50    52    1
    10    50    47    1
    11    46    47    1
    12    44    45    1
    13    47    48    1
    14    48    49    2
    15    70    68    1
    16    68    67    1
    17    32    31    2
    18    54    55    1
    19    67    69    1
    20    67    64    1
    21    31    30    1
    22   104   102    1
    23    34    35    1
    24    34    33    1
    25    36    35    1
    26    36    37    1
    27    98    99    1
    28    62    60   ar
    29    63    64    1
    30    63    56   am
    31    58    55    1
    32    58    59    1
    33    55    56    1
    34    64    65    1
    35     9    10    1
    36    33    30    1
    37    30    29    1
    38    99   102    1
    39    99   100    1
    40   102   103    1
    41    56    57    2
    42    65    66    2
    43    60    59    1
    44    60    61   ar
    45    97    96    1
    46    27    25    1
    47    29    23   am
    48    10    11    1
    49    10    13    1
    50    15    13    1
    51   100   101    2
    52    24    23    2
    53    23    22    1
    54    11    12    2
    55    96    95   ar
    56    96    94   ar
    57   189   188   ar
    58    13    14    1
    59    95    93   ar
    60    25    22    1
    61    25    26    1
    62    22    21    1
    63    94    92   ar
    64   190   188   ar
    65   188   187    1
    66    28    26    1
    67    93    91   ar
    68     1     2    1
    69     3     2    1
    70     3     4    2
    71    71    72    1
    72    76    75    1
    73    76    77    1
    74    21    18   am
    75    92    91   ar
    76   185   184    1
    77   185   186    2
    78   187   184    1
    79    75    72    1
    80    91    90    1
    81     2     5    1
    82   184   183    1
    83    72    73    1
    84   111   110    1
    85   111   112    1
    86    19    18    2
    87    18    17    1
    88   110   109    1
    89    77    78    1
    90    73    74    2
    91     6     5    1
    92     6     8    1
    93   105   106    1
    94    90    87    1
    95     5     7    1
    96   167   165   am
    97   183   178   am
    98   166   165    2
    99    17    20    1
   100    17    16    1
   101   109   106    1
   102   165   164    1
   103    87    88    1
   104    87    86    1
   105   106   107    1
   106    88    89    2
   107   158   157   ar
   108   181   180    1
   109   178   179    2
   110   178   177    1
   111   156   157    1
   112   156   153    1
   113   157   159   ar
   114   108   107    2
   115   164   161    1
   116   107   113   am
   117   182   180    1
   118   180   177    1
   119   177   176    1
   120   155   154    2
   121   154   153    1
   122   154   160   am
   123   161   160    1
   124   161   162    1
   125   153   152    1
   126    84    83    1
   127   113   114    1
   128    82    81    2
   129   116   115    2
   130   174   173    1
   131    85    83    1
   132   128   130   ar
   133   128   127   ar
   134   130   132   ar
   135   162   163    2
   136    83    80    1
   137   115   114    1
   138   115   122   am
   139    81    80    1
   140   114   117    1
   141   175   173    1
   142   173   172    1
   143   126   127    1
   144   126   123    1
   145   127   129   ar
   146   122   123    1
   147    80    79    1
   148   123   124    1
   149   132   133    1
   150   132   131   ar
   151   151   150    1
   152   150   147    1
   153   117   118    1
   154   118   119    1
   155   129   131   ar
   156   172   169    1
   157   124   134   am
   158   124   125    2
   159   134   135    1
   160   147   146    1
   161   147   148    1
   162   119   121   ar
   163   119   120   ar
   164   146   144   am
   165   140   139    1
   166   168   169    1
   167   137   136    2
   168   169   170    1
   169   144   143    1
   170   144   145    2
   171   143   142    1
   172   148   149    2
   173   135   138    1
   174   135   136    1
   175   138   139    1
   176   139   141    1
   177   170   171    2
