@<TRIPOS>MOLECULE
tmp/5dezB04.pdb
 98 96 0 0 0
SMALL
GASTEIGER

@<TRIPOS>ATOM
      1  N        106.7070  127.1970  142.9700 N.3   248  TRP248     -0.1241
      2  CA       106.0430  128.4860  143.1420 C.3   248  TRP248      0.1605
      3  C        106.7290  129.6420  142.4100 C.2   248  TRP248      0.2264
      4  O        106.0730  130.4040  141.6950 O.2   248  TRP248     -0.2867
      5  CB       105.8930  128.8020  144.6350 C.3   248  TRP248      0.0550
      6  CG       105.0750  130.0310  144.9700 C.ar  248  TRP248      0.0003
      7  CD1      105.5020  131.1360  145.6450 C.ar  248  TRP248      0.0946
      8  CD2      103.6920  130.2570  144.6720 C.ar  248  TRP248      0.0152
      9  NE1      104.4770  132.0350  145.7810 N.ar  248  TRP248     -0.2442
     10  CE2      103.3540  131.5200  145.1910 C.ar  248  TRP248      0.0810
     11  CE3      102.7060  129.5130  144.0150 C.ar  248  TRP248      0.0012
     12  CZ2      102.0770  132.0570  145.0750 C.ar  248  TRP248      0.0191
     13  CZ3      101.4410  130.0500  143.8990 C.ar  248  TRP248      0.0001
     14  CH2      101.1360  131.3050  144.4280 C.ar  248  TRP248      0.0015
     15  N        100.7680  128.2090  137.9450 N.3   289  PHE289     -0.1241
     16  CA        99.8340  127.1580  137.5350 C.3   289  PHE289      0.1605
     17  C         99.3760  127.4550  136.1060 C.2   289  PHE289      0.2264
     18  O         99.4880  128.5900  135.6320 O.2   289  PHE289     -0.2867
     19  CB        98.5760  127.1630  138.4130 C.3   289  PHE289      0.0534
     20  CG        98.8420  127.0460  139.8850 C.ar  289  PHE289     -0.0203
     21  CD1       99.0650  125.8120  140.4690 C.ar  289  PHE289     -0.0042
     22  CD2       98.8350  128.1690  140.6910 C.ar  289  PHE289     -0.0042
     23  CE1       99.3010  125.7050  141.8300 C.ar  289  PHE289     -0.0003
     24  CE2       99.0630  128.0660  142.0540 C.ar  289  PHE289     -0.0003
     25  CZ        99.2960  126.8290  142.6200 C.ar  289  PHE289     -0.0000
     26  N         97.2680  132.6710  138.5650 N.3   293  LYS293     -0.1245
     27  CA        97.0440  132.6490  140.0120 C.3   293  LYS293      0.1561
     28  C         98.2350  132.0450  140.7440 C.2   293  LYS293      0.2260
     29  O         98.0880  131.4560  141.8170 O.2   293  LYS293     -0.2867
     30  CB        95.7410  131.9300  140.3990 C.3   293  LYS293      0.0271
     31  CG        94.4850  132.4820  139.7390 C.3   293  LYS293      0.0035
     32  CD        93.2400  132.1730  140.5780 C.3   293  LYS293      0.0206
     33  CE        92.0100  131.8750  139.7130 C.3   293  LYS293      0.1093
     34  NZ        91.9770  130.4500  139.2460 N.3   293  LYS293     -0.1314
     35  N         97.5720  121.9980  141.4250 N.3   338  SER338     -0.1217
     36  CA        96.7880  122.6120  142.4910 C.3   338  SER338      0.1889
     37  C         95.5760  121.7450  142.8360 C.2   338  SER338      0.2288
     38  O         94.9920  121.0900  141.9630 O.2   338  SER338     -0.2866
     39  CB        96.3180  124.0180  142.0880 C.3   338  SER338      0.2089
     40  OG        95.5380  124.6090  143.1240 O.3   338  SER338     -0.2183
     41  N         92.9590  123.1890  144.0110 N.3   340  GLY340     -0.1225
     42  CA        91.9320  124.2150  143.9850 C.3   340  GLY340      0.1811
     43  C         91.0940  124.0190  142.7410 C.2   340  GLY340      0.2280
     44  O         91.6070  124.1120  141.6250 O.2   340  GLY340     -0.2866
     45  N         91.4100  126.0360  139.7530 N.3   343  LYS343     -0.1245
     46  CA        92.6120  125.8070  138.9590 C.3   343  LYS343      0.1561
     47  C         92.5420  124.4540  138.2320 C.2   343  LYS343      0.2260
     48  O         93.0520  124.3050  137.1170 O.2   343  LYS343     -0.2867
     49  CB        93.8630  125.9280  139.8400 C.3   343  LYS343      0.0271
     50  CG        93.7010  126.9650  140.9570 C.3   343  LYS343      0.0035
     51  CD        95.0290  127.5110  141.4490 C.3   343  LYS343      0.0206
     52  CE        94.8300  128.6100  142.5030 C.3   343  LYS343      0.1093
     53  NZ        94.1280  128.1360  143.7420 N.3   343  LYS343     -0.1314
     54  N         97.9130  123.8610  151.7430 N.3   365  ASP365     -0.1225
     55  CA        97.9480  125.3060  151.5020 C.3   365  ASP365      0.1805
     56  C         96.5820  125.8510  151.0920 C.2   365  ASP365      0.2597
     57  O         96.5050  126.7850  150.2940 O.2   365  ASP365     -0.2718
     58  CB        98.9740  125.6860  150.4240 C.3   365  ASP365      0.1424
     59  CG       100.3850  125.2800  150.7840 C.2   365  ASP365      0.3668
     60  OD1      100.7120  125.1990  151.9920 O.co2 365  ASP365     -0.2456
     61  OD2      101.1710  125.0440  149.8460 O.co2 365  ASP365     -0.2456
     62  N         95.5120  125.2540  151.6180 N.am  366  PHE366     -0.1976
     63  CA        94.1470  125.7130  151.3350 C.3   366  PHE366      0.1639
     64  C         93.9070  127.0910  151.9650 C.2   366  PHE366      0.2290
     65  O         93.2500  127.9510  151.3850 O.2   366  PHE366     -0.2864
     66  CB        93.1140  124.7050  151.8580 C.3   366  PHE366      0.0560
     67  CG        93.0070  123.4460  151.0330 C.ar  366  PHE366     -0.0200
     68  CD1       93.0160  123.5010  149.6430 C.ar  366  PHE366     -0.0042
     69  CD2       92.8920  122.2070  151.6500 C.ar  366  PHE366     -0.0042
     70  CE1       92.9140  122.3420  148.8800 C.ar  366  PHE366     -0.0003
     71  CE2       92.7950  121.0380  150.8970 C.ar  366  PHE366     -0.0003
     72  CZ        92.8020  121.1060  149.5090 C.ar  366  PHE366     -0.0000
     73  N         98.5130  134.4450  154.8220 N.3   370  TRP370     -0.1241
     74  CA        98.2460  135.5080  153.8550 C.3   370  TRP370      0.1605
     75  C         96.8870  136.2060  154.0540 C.2   370  TRP370      0.2264
     76  O         96.5800  137.1810  153.3740 O.2   370  TRP370     -0.2867
     77  CB        98.3710  134.9930  152.4210 C.3   370  TRP370      0.0550
     78  CG        97.5220  133.8040  152.1070 C.ar  370  TRP370      0.0003
     79  CD1       96.2080  133.8030  151.7310 C.ar  370  TRP370      0.0946
     80  CD2       97.9400  132.4380  152.1100 C.ar  370  TRP370      0.0152
     81  NE1       95.7820  132.5180  151.5050 N.ar  370  TRP370     -0.2442
     82  CE2       96.8280  131.6600  151.7320 C.ar  370  TRP370      0.0810
     83  CE3       99.1490  131.7950  152.3990 C.ar  370  TRP370      0.0012
     84  CZ2       96.8890  130.2720  151.6360 C.ar  370  TRP370      0.0191
     85  CZ3       99.2080  130.4170  152.3070 C.ar  370  TRP370      0.0001
     86  CH2       98.0860  129.6700  151.9270 C.ar  370  TRP370      0.0015
     87  N         87.5690  124.0760  149.1930 N.3   392  TYR392     -0.1241
     88  CA        88.9970  123.8010  149.1690 C.3   392  TYR392      0.1605
     89  C         89.2610  122.6490  150.1280 C.2   392  TYR392      0.2264
     90  O         89.6570  122.8510  151.2700 O.2   392  TYR392     -0.2867
     91  CB        89.8160  125.0460  149.5290 C.3   392  TYR392      0.0534
     92  CG        90.2280  125.8790  148.3260 C.ar  392  TYR392     -0.0201
     93  CD1       89.5690  125.7520  147.1040 C.ar  392  TYR392     -0.0009
     94  CD2       91.2980  126.7780  148.4070 C.ar  392  TYR392     -0.0009
     95  CE1       89.9490  126.5070  145.9990 C.ar  392  TYR392      0.0417
     96  CE2       91.6950  127.5350  147.3070 C.ar  392  TYR392      0.0417
     97  CZ        91.0210  127.3920  146.1050 C.ar  392  TYR392      0.1957
     98  OH        91.4010  128.1390  145.0090 O.3   392  TYR392     -0.2866
@<TRIPOS>BOND
     1    18    17    2
     2    17    16    1
     3    48    47    2
     4    16    15    1
     5    16    19    1
     6    47    46    1
     7    19    20    1
     8    26    27    1
     9    46    45    1
    10    46    49    1
    11    34    33    1
    12    33    32    1
    13    31    30    1
    14    31    32    1
    15    49    50    1
    16    20    21   ar
    17    20    22   ar
    18    27    30    1
    19    27    28    1
    20    21    23   ar
    21    22    24   ar
    22    28    29    2
    23    50    51    1
    24    35    36    1
    25    51    52    1
    26    44    43    2
    27     4     3    2
    28    23    25   ar
    29    38    37    2
    30    24    25   ar
    31    39    36    1
    32    39    40    1
    33     3     2    1
    34    36    37    1
    35    52    53    1
    36    43    42    1
    37     1     2    1
    38     2     5    1
    39    13    11   ar
    40    13    14   ar
    41    42    41    1
    42    11     8   ar
    43    14    12   ar
    44     5     6    1
    45     8     6   ar
    46     8    10   ar
    47     6     7   ar
    48    98    97    1
    49    12    10   ar
    50    10     9   ar
    51     7     9   ar
    52    95    97   ar
    53    95    93   ar
    54    97    96   ar
    55    93    92   ar
    56    96    94   ar
    57    92    94   ar
    58    92    91    1
    59    70    72   ar
    60    70    68   ar
    61    88    87    1
    62    88    91    1
    63    88    89    1
    64    72    71   ar
    65    68    67   ar
    66    61    59   ar
    67    89    90    2
    68    57    56    2
    69    58    59    1
    70    58    55    1
    71    59    60   ar
    72    71    69   ar
    73    67    69   ar
    74    67    66    1
    75    56    55    1
    76    56    62   am
    77    63    62    1
    78    63    66    1
    79    63    64    1
    80    65    64    2
    81    55    54    1
    82    81    79   ar
    83    81    82   ar
    84    84    82   ar
    85    84    86   ar
    86    79    78   ar
    87    82    80   ar
    88    86    85   ar
    89    78    80   ar
    90    78    77    1
    91    80    83   ar
    92    85    83   ar
    93    77    74    1
    94    76    75    2
    95    74    75    1
    96    74    73    1
