@<TRIPOS>MOLECULE
tmp/5dezA00.pdb
 92 86 0 0 0
SMALL
GASTEIGER

@<TRIPOS>ATOM
      1  N        138.1200   89.8720  153.9750 N.3   108  ASP108     -0.1239
      2  CA       138.8370   90.3330  152.7860 C.3   108  ASP108      0.1674
      3  C        138.3630   91.7290  152.3460 C.2   108  ASP108      0.2266
      4  O        138.8500   92.2830  151.3580 O.2   108  ASP108     -0.2867
      5  CB       138.6460   89.3460  151.6360 C.3   108  ASP108      0.1410
      6  CG       137.1870   88.9720  151.4230 C.2   108  ASP108      0.3668
      7  OD1      136.2940   89.7440  151.8330 O.co2 108  ASP108     -0.2456
      8  OD2      136.9280   87.9000  150.8420 O.co2 108  ASP108     -0.2456
      9  N        141.5710   96.2390  155.9930 N.3   230  MET230     -0.1245
     10  CA       140.8220   95.6490  154.8870 C.3   230  MET230      0.1570
     11  C        140.5280   96.6950  153.8290 C.2   230  MET230      0.2261
     12  O        140.7070   96.4620  152.6380 O.2   230  MET230     -0.2867
     13  CB       139.4910   95.0870  155.3750 C.3   230  MET230      0.0387
     14  CG       139.6090   94.0650  156.4650 C.3   230  MET230      0.0595
     15  SD       137.9860   93.6840  157.1450 S.3   230  MET230     -0.1393
     16  CE       138.4490   92.8010  158.6310 C.3   230  MET230      0.0692
     17  N        143.7680   98.0910  152.0440 N.3   233  LYS233     -0.1231
     18  CA       144.3080   97.1640  151.0560 C.3   233  LYS233      0.1693
     19  C        143.6790   97.3650  149.6860 C.2   233  LYS233      0.2591
     20  O        144.3390   97.1860  148.6660 O.2   233  LYS233     -0.2718
     21  CB       144.0900   95.7220  151.4960 C.3   233  LYS233      0.0285
     22  CG       145.3550   95.0110  151.8810 C.3   233  LYS233      0.0035
     23  CD       145.1120   93.5430  152.1520 C.3   233  LYS233      0.0206
     24  CE       145.8920   92.6720  151.1730 C.3   233  LYS233      0.1093
     25  NZ       145.8160   91.2240  151.5370 N.3   233  LYS233     -0.1314
     26  N        142.3990   97.7200  149.6680 N.am  234  LEU234     -0.1980
     27  CA       141.7080   97.9850  148.4160 C.3   234  LEU234      0.1596
     28  C        142.2680   99.2470  147.7790 C.2   234  LEU234      0.2287
     29  O        142.4240   99.3250  146.5630 O.2   234  LEU234     -0.2864
     30  CB       140.2060   98.1310  148.6520 C.3   234  LEU234      0.0297
     31  CG       139.5550   96.9790  149.4200 C.3   234  LEU234      0.0022
     32  CD1      138.1250   97.3290  149.7920 C.3   234  LEU234      0.0001
     33  CD2      139.5980   95.6870  148.6130 C.3   234  LEU234      0.0001
     34  N        151.3100   94.2750  150.8910 N.3   240  LYS240     -0.1245
     35  CA       151.1240   93.0230  151.6170 C.3   240  LYS240      0.1561
     36  C        151.0980   93.3350  153.1110 C.2   240  LYS240      0.2260
     37  O        151.8900   94.1500  153.5950 O.2   240  LYS240     -0.2867
     38  CB       152.2450   92.0160  151.3030 C.3   240  LYS240      0.0271
     39  CG       152.3920   91.6440  149.8240 C.3   240  LYS240      0.0035
     40  CD       151.1560   90.9370  149.2980 C.3   240  LYS240      0.0206
     41  CE       151.2060   90.7920  147.7780 C.3   240  LYS240      0.1093
     42  NZ       149.9140   90.2740  147.2130 N.3   240  LYS240     -0.1314
     43  N        141.1720   87.2620  156.6550 N.3   278  LYS278     -0.1231
     44  CA       141.6560   87.0980  155.2880 C.3   278  LYS278      0.1693
     45  C        142.6100   88.1720  154.7580 C.2   278  LYS278      0.2592
     46  O        143.3760   87.9040  153.8440 O.2   278  LYS278     -0.2718
     47  CB       140.4790   86.8800  154.3350 C.3   278  LYS278      0.0285
     48  CG       139.9090   85.4710  154.4670 C.3   278  LYS278      0.0035
     49  CD       138.5830   85.2870  153.7360 C.3   278  LYS278      0.0206
     50  CE       138.0250   83.8960  153.9850 C.3   278  LYS278      0.1093
     51  NZ       136.5380   83.8610  154.1300 N.3   278  LYS278     -0.1314
     52  N        142.5960   89.3550  155.3530 N.am  279  PHE279     -0.1976
     53  CA       143.4320   90.4410  154.8680 C.3   279  PHE279      0.1639
     54  C        144.9410   90.2660  155.1400 C.2   279  PHE279      0.2290
     55  O        145.7470   90.9790  154.5460 O.2   279  PHE279     -0.2864
     56  CB       142.9300   91.8020  155.3880 C.3   279  PHE279      0.0560
     57  CG       143.0750   91.9630  156.8650 C.ar  279  PHE279     -0.0200
     58  CD1      144.2450   92.4740  157.4070 C.ar  279  PHE279     -0.0042
     59  CD2      142.0580   91.5710  157.7200 C.ar  279  PHE279     -0.0042
     60  CE1      144.3930   92.5970  158.7690 C.ar  279  PHE279     -0.0003
     61  CE2      142.1940   91.7020  159.0870 C.ar  279  PHE279     -0.0003
     62  CZ       143.3640   92.2140  159.6120 C.ar  279  PHE279     -0.0000
     63  N        148.5820   88.5120  154.7140 N.3   281  ASP281     -0.1239
     64  CA       149.2340   87.8320  153.5870 C.3   281  ASP281      0.1674
     65  C        150.3760   86.9010  153.9910 C.2   281  ASP281      0.2266
     66  O        151.2780   86.6040  153.1970 O.2   281  ASP281     -0.2867
     67  CB       149.7500   88.8590  152.5820 C.3   281  ASP281      0.1410
     68  CG       148.6330   89.6340  151.9220 C.2   281  ASP281      0.3668
     69  OD1      147.8560   89.0120  151.1560 O.co2 281  ASP281     -0.2456
     70  OD2      148.5360   90.8620  152.1630 O.co2 281  ASP281     -0.2456
     71  N        143.7260   78.1230  148.8110 N.3   327  THR327     -0.1203
     72  CA       143.0990   79.4220  148.5610 C.3   327  THR327      0.1994
     73  C        143.5570   80.0820  147.2690 C.2   327  THR327      0.2618
     74  O        143.0050   81.1050  146.8500 O.2   327  THR327     -0.2717
     75  CB       143.3940   80.4210  149.6890 C.3   327  THR327      0.1784
     76  OG1      144.7810   80.7860  149.6510 O.3   327  THR327     -0.2211
     77  CG2      143.0600   79.8250  151.0450 C.3   327  THR327      0.0376
     78  N        144.5880   79.5200  146.6500 N.am  328  GLY328     -0.1942
     79  CA       145.1410   80.0970  145.4370 C.3   328  GLY328      0.2014
     80  C        145.9990   81.3250  145.6880 C.2   328  GLY328      0.2638
     81  O        146.4800   81.9710  144.7560 O.2   328  GLY328     -0.2714
     82  N        146.2070   81.6550  146.9540 N.am  329  ARG329     -0.1977
     83  CA       146.9830   82.8430  147.2700 C.3   329  ARG329      0.1597
     84  C        148.4510   82.5230  147.5110 C.2   329  ARG329      0.2287
     85  O        148.8310   81.3600  147.6600 O.2   329  ARG329     -0.2864
     86  CB       146.3880   83.5380  148.4910 C.3   329  ARG329      0.0334
     87  CG       144.9110   83.8090  148.3520 C.3   329  ARG329      0.0492
     88  CD       144.3110   84.2320  149.6620 C.3   329  ARG329      0.2205
     89  NE       145.0430   85.3430  150.2540 N.pl3 329  ARG329     -0.0865
     90  CZ       144.6100   86.0240  151.3030 C.cat 329  ARG329      0.5346
     91  NH1      143.4390   85.7110  151.8520 N.pl3 329  ARG329      0.1354
     92  NH2      145.3320   87.0240  151.7880 N.pl3 329  ARG329      0.1354
@<TRIPOS>BOND
     1    81    80    2
     2    79    80    1
     3    79    78    1
     4    80    82   am
     5    29    28    2
     6    78    73   am
     7    74    73    2
     8    82    83    1
     9    42    41    1
    10    73    72    1
    11    83    84    1
    12    83    86    1
    13    84    85    2
    14    41    40    1
    15    28    27    1
    16    87    86    1
    17    87    88    1
    18    27    30    1
    19    27    26    1
    20    72    71    1
    21    72    75    1
    22    33    31    1
    23    30    31    1
    24    20    19    2
    25    40    39    1
    26    31    32    1
    27    76    75    1
    28    88    89    1
    29    26    19   am
    30    19    18    1
    31    75    77    1
    32    39    38    1
    33    89    90    2
    34     8     6   ar
    35    34    35    1
    36    18    21    1
    37    18    17    1
    38    69    68   ar
    39    24    25    1
    40    24    23    1
    41    38    35    1
    42    90    92    1
    43    90    91    1
    44     4     3    2
    45     6     5    1
    46     6     7   ar
    47    21    22    1
    48    35    36    1
    49     5     2    1
    50    22    23    1
    51    68    70   ar
    52    68    67    1
    53     3     2    1
    54    67    64    1
    55    12    11    2
    56     2     1    1
    57    36    37    2
    58    66    65    2
    59    64    65    1
    60    64    63    1
    61    49    50    1
    62    49    48    1
    63    11    10    1
    64    46    45    2
    65    50    51    1
    66    47    48    1
    67    47    44    1
    68    55    54    2
    69    45    44    1
    70    45    52   am
    71    53    54    1
    72    53    52    1
    73    53    56    1
    74    10    13    1
    75    10     9    1
    76    44    43    1
    77    13    14    1
    78    56    57    1
    79    14    15    1
    80    57    58   ar
    81    57    59   ar
    82    15    16    1
    83    58    60   ar
    84    59    61   ar
    85    60    62   ar
    86    61    62   ar
