@<TRIPOS>MOLECULE
tmp/5dezB02.pdb
 106 103 0 0 0
SMALL
GASTEIGER

@<TRIPOS>ATOM
      1  N        117.6610  123.3510  149.0100 N.3   140  TRP140     -0.1241
      2  CA       118.2730  124.3370  149.8990 C.3   140  TRP140      0.1605
      3  C        118.1820  123.9460  151.3650 C.2   140  TRP140      0.2264
      4  O        118.6950  124.6600  152.2360 O.2   140  TRP140     -0.2867
      5  CB       117.6500  125.7240  149.7040 C.3   140  TRP140      0.0550
      6  CG       116.1900  125.7240  149.9730 C.ar  140  TRP140      0.0003
      7  CD1      115.5730  125.9420  151.1710 C.ar  140  TRP140      0.0946
      8  CD2      115.1500  125.4640  149.0250 C.ar  140  TRP140      0.0152
      9  NE1      114.2080  125.8470  151.0250 N.ar  140  TRP140     -0.2442
     10  CE2      113.9230  125.5510  149.7170 C.ar  140  TRP140      0.0810
     11  CE3      115.1380  125.1610  147.6570 C.ar  140  TRP140      0.0012
     12  CZ2      112.6950  125.3480  149.0880 C.ar  140  TRP140      0.0191
     13  CZ3      113.9210  124.9570  147.0340 C.ar  140  TRP140      0.0001
     14  CH2      112.7110  125.0580  147.7500 C.ar  140  TRP140      0.0015
     15  N        118.1460  124.3090  157.5650 N.3   145  ARG145     -0.1245
     16  CA       117.3760  123.1350  157.9730 C.3   145  ARG145      0.1563
     17  C        118.2810  121.9550  158.2950 C.2   145  ARG145      0.2260
     18  O        117.8600  121.0020  158.9600 O.2   145  ARG145     -0.2867
     19  CB       116.3770  122.7340  156.8960 C.3   145  ARG145      0.0307
     20  CG       115.2230  123.6920  156.7240 C.3   145  ARG145      0.0489
     21  CD       114.5840  123.4610  155.3830 C.3   145  ARG145      0.2205
     22  NE       113.2300  123.9960  155.2960 N.pl3 145  ARG145     -0.0865
     23  CZ       112.9500  125.2580  154.9890 C.cat 145  ARG145      0.5346
     24  NH1      113.9350  126.1240  154.7600 N.pl3 145  ARG145      0.1354
     25  NH2      111.6850  125.6530  154.9190 N.pl3 145  ARG145      0.1354
     26  N        114.2420  122.2590  143.4530 N.3   164  PHE164     -0.1241
     27  CA       113.5760  122.3330  142.1670 C.3   164  PHE164      0.1605
     28  C        114.5510  122.6960  141.0740 C.2   164  PHE164      0.2264
     29  O        115.3890  123.5740  141.2530 O.2   164  PHE164     -0.2867
     30  CB       112.4980  123.4220  142.2060 C.3   164  PHE164      0.0534
     31  CG       111.3060  123.0400  142.9990 C.ar  164  PHE164     -0.0203
     32  CD1      110.2840  122.3080  142.4170 C.ar  164  PHE164     -0.0042
     33  CD2      111.2150  123.3800  144.3360 C.ar  164  PHE164     -0.0042
     34  CE1      109.1930  121.9450  143.1420 C.ar  164  PHE164     -0.0003
     35  CE2      110.1180  123.0140  145.0710 C.ar  164  PHE164     -0.0003
     36  CZ       109.1040  122.2960  144.4730 C.ar  164  PHE164     -0.0000
     37  N        111.0560  135.1840  140.7120 N.3   177  LEU177     -0.1245
     38  CA       112.2130  134.9880  141.5860 C.3   177  LEU177      0.1561
     39  C        112.6190  136.2550  142.3370 C.2   177  LEU177      0.2260
     40  O        113.3160  136.1990  143.3570 O.2   177  LEU177     -0.2867
     41  CB       113.4150  134.4710  140.7840 C.3   177  LEU177      0.0270
     42  CG       113.4190  132.9880  140.4050 C.3   177  LEU177      0.0019
     43  CD1      114.7650  132.6050  139.8110 C.3   177  LEU177      0.0001
     44  CD2      113.1010  132.1290  141.6190 C.3   177  LEU177      0.0001
     45  N        112.1970  136.9060  146.1610 N.3   180  ILE180     -0.1245
     46  CA       113.0560  136.2800  147.1660 C.3   180  ILE180      0.1561
     47  C        114.5050  136.7400  147.0530 C.2   180  ILE180      0.2260
     48  O        115.0770  136.7340  145.9610 O.2   180  ILE180     -0.2867
     49  CB       113.0040  134.7460  147.0420 C.3   180  ILE180      0.0252
     50  CG1      111.5540  134.2840  146.8490 C.3   180  ILE180      0.0019
     51  CG2      113.6510  134.0840  148.2510 C.3   180  ILE180      0.0019
     52  CD1      111.4160  132.8020  146.6280 C.3   180  ILE180      0.0001
     53  N        117.6670  135.3470  144.9310 N.3   183  SER183     -0.1217
     54  CA       117.1750  134.1900  144.2040 C.3   183  SER183      0.1889
     55  C        117.2090  134.4070  142.6930 C.2   183  SER183      0.2288
     56  O        117.5860  133.5200  141.9230 O.2   183  SER183     -0.2866
     57  CB       115.7650  133.8500  144.6710 C.3   183  SER183      0.2089
     58  OG       115.2920  132.6940  144.0230 O.3   183  SER183     -0.2183
     59  N        119.7160  125.3930  140.3250 N.3   202  HIS202     -0.1241
     60  CA       119.6280  126.6870  141.0010 C.3   202  HIS202      0.1621
     61  C        120.8130  127.0080  141.9400 C.2   202  HIS202      0.2264
     62  O        121.2640  128.1580  142.0220 O.2   202  HIS202     -0.2867
     63  CB       118.3090  126.8070  141.7520 C.3   202  HIS202      0.0745
     64  CG       117.8730  128.2210  141.9650 C.ar  202  HIS202      0.0817
     65  ND1      116.5990  128.5500  142.3670 N.ar  202  HIS202     -0.2268
     66  CD2      118.5370  129.3930  141.8160 C.ar  202  HIS202      0.1154
     67  CE1      116.4970  129.8650  142.4640 C.ar  202  HIS202      0.1986
     68  NE2      117.6590  130.3990  142.1370 N.ar  202  HIS202     -0.2212
     69  N        106.7070  127.1970  142.9700 N.3   248  TRP248     -0.1227
     70  CA       106.0430  128.4860  143.1420 C.3   248  TRP248      0.1737
     71  C        106.7290  129.6420  142.4100 C.2   248  TRP248      0.2596
     72  O        106.0730  130.4040  141.6950 O.2   248  TRP248     -0.2718
     73  CB       105.8930  128.8020  144.6350 C.3   248  TRP248      0.0564
     74  CG       105.0750  130.0310  144.9700 C.ar  248  TRP248      0.0003
     75  CD1      105.5020  131.1360  145.6450 C.ar  248  TRP248      0.0946
     76  CD2      103.6920  130.2570  144.6720 C.ar  248  TRP248      0.0152
     77  NE1      104.4770  132.0350  145.7810 N.ar  248  TRP248     -0.2442
     78  CE2      103.3540  131.5200  145.1910 C.ar  248  TRP248      0.0810
     79  CE3      102.7060  129.5130  144.0150 C.ar  248  TRP248      0.0012
     80  CZ2      102.0770  132.0570  145.0750 C.ar  248  TRP248      0.0191
     81  CZ3      101.4410  130.0500  143.8990 C.ar  248  TRP248      0.0001
     82  CH2      101.1360  131.3050  144.4280 C.ar  248  TRP248      0.0015
     83  N        108.0410  129.7700  142.5740 N.am  249  THR249     -0.1939
     84  CA       108.7440  130.9170  142.0230 C.3   249  THR249      0.2028
     85  C        109.5420  130.6220  140.7650 C.2   249  THR249      0.2642
     86  O        110.1830  131.5200  140.2230 O.2   249  THR249     -0.2714
     87  CB       109.6850  131.5530  143.0560 C.3   249  THR249      0.1808
     88  OG1      110.4910  130.5330  143.6560 O.3   249  THR249     -0.2208
     89  CG2      108.8730  132.2570  144.1350 C.3   249  THR249      0.0379
     90  N        109.5080  129.3790  140.2970 N.am  250  LEU250     -0.1977
     91  CA       110.2850  129.0070  139.1150 C.3   250  LEU250      0.1596
     92  C        109.4260  128.6730  137.9070 C.2   250  LEU250      0.2287
     93  O        109.9270  128.1760  136.9010 O.2   250  LEU250     -0.2864
     94  CB       111.2140  127.8330  139.4310 C.3   250  LEU250      0.0297
     95  CG       112.4270  128.1620  140.2970 C.3   250  LEU250      0.0022
     96  CD1      113.2460  126.9200  140.5720 C.3   250  LEU250      0.0001
     97  CD2      113.2690  129.2040  139.5950 C.3   250  LEU250      0.0001
     98  N        110.1910  130.3300  158.2720 N.3   447  GLU447     -0.1245
     99  CA       109.5420  131.5700  157.8770 C.3   447  GLU447      0.1567
    100  C        108.2350  131.7030  158.6290 C.2   447  GLU447      0.2260
    101  O        107.6550  130.7090  159.0840 O.2   447  GLU447     -0.2867
    102  CB       109.2920  131.6160  156.3660 C.3   447  GLU447      0.0388
    103  CG       108.3710  130.5240  155.8400 C.3   447  GLU447      0.1160
    104  CD       108.2530  130.5380  154.3230 C.2   447  GLU447      0.3649
    105  OE1      109.0870  131.2020  153.6660 O.co2 447  GLU447     -0.2457
    106  OE2      107.3250  129.8880  153.7890 O.co2 447  GLU447     -0.2457
@<TRIPOS>BOND
     1    93    92    2
     2    92    91    1
     3    91    94    1
     4    91    90    1
     5    94    95    1
     6    97    95    1
     7    43    42    1
     8    86    85    2
     9    95    96    1
    10    90    85   am
    11    59    60    1
    12    42    41    1
    13    42    44    1
    14    37    38    1
    15    85    84    1
    16    41    38    1
    17    60    63    1
    18    60    61    1
    19    28    29    2
    20    28    27    1
    21    38    39    1
    22    72    71    2
    23    63    64    1
    24    66    64   ar
    25    66    68   ar
    26    56    55    2
    27    61    62    2
    28    64    65   ar
    29    84    83    1
    30    84    87    1
    31    68    67   ar
    32    27    30    1
    33    27    26    1
    34    30    31    1
    35    39    40    2
    36    65    67   ar
    37    71    83   am
    38    71    70    1
    39    32    31   ar
    40    32    34   ar
    41    55    54    1
    42    69    70    1
    43    31    33   ar
    44    87    88    1
    45    87    89    1
    46    70    73    1
    47    34    36   ar
    48    81    79   ar
    49    81    82   ar
    50    79    76   ar
    51    58    57    1
    52    54    57    1
    53    54    53    1
    54    33    35   ar
    55    82    80   ar
    56    36    35   ar
    57    73    74    1
    58    76    74   ar
    59    76    78   ar
    60    74    75   ar
    61    80    78   ar
    62    78    77   ar
    63    75    77   ar
    64    48    47    2
    65    45    46    1
    66    52    50    1
    67    50    49    1
    68    13    11   ar
    69    13    14   ar
    70    49    46    1
    71    49    51    1
    72    47    46    1
    73    11     8   ar
    74    14    12   ar
    75     1     2    1
    76     8    10   ar
    77     8     6   ar
    78    12    10   ar
    79     5     2    1
    80     5     6    1
    81    10     9   ar
    82     2     3    1
    83     6     7   ar
    84     9     7   ar
    85     3     4    2
    86   105   104   ar
    87   106   104   ar
    88   104   103    1
    89    24    23    1
    90    25    23    1
    91    23    22    2
    92    22    21    1
    93    21    20    1
    94   103   102    1
    95   102    99    1
    96    20    19    1
    97    19    16    1
    98    15    16    1
    99    99    98    1
   100    99   100    1
   101    16    17    1
   102    17    18    2
   103   100   101    2
