@<TRIPOS>MOLECULE
tmp/5df0B04.pdb
 143 141 0 0 0
SMALL
GASTEIGER

@<TRIPOS>ATOM
      1  N        -69.1430  -11.4420  278.8340 N.3   140  TRP140     -0.1241
      2  CA       -69.6810  -12.3430  279.8430 C.3   140  TRP140      0.1605
      3  C        -69.5510  -11.8010  281.2620 C.2   140  TRP140      0.2264
      4  O        -69.8490  -12.5280  282.2150 O.2   140  TRP140     -0.2867
      5  CB       -68.9880  -13.7040  279.7420 C.3   140  TRP140      0.0550
      6  CG       -67.5060  -13.6260  279.9360 C.ar  140  TRP140      0.0003
      7  CD1      -66.8190  -13.8250  281.0970 C.ar  140  TRP140      0.0946
      8  CD2      -66.5260  -13.3180  278.9380 C.ar  140  TRP140      0.0152
      9  NE1      -65.4710  -13.6640  280.8830 N.ar  140  TRP140     -0.2442
     10  CE2      -65.2650  -13.3520  279.5650 C.ar  140  TRP140      0.0810
     11  CE3      -66.5920  -13.0190  277.5740 C.ar  140  TRP140      0.0012
     12  CZ2      -64.0820  -13.0990  278.8770 C.ar  140  TRP140      0.0191
     13  CZ3      -65.4160  -12.7670  276.8920 C.ar  140  TRP140      0.0001
     14  CH2      -64.1780  -12.8090  277.5440 C.ar  140  TRP140      0.0015
     15  N        -69.7850  -12.3960  287.3000 N.3   145  ARG145     -0.1245
     16  CA       -68.9520  -11.2680  287.7030 C.3   145  ARG145      0.1563
     17  C        -69.7920  -10.0620  288.1000 C.2   145  ARG145      0.2260
     18  O        -69.3380   -9.2320  288.8950 O.2   145  ARG145     -0.2867
     19  CB       -67.9820  -10.9050  286.5790 C.3   145  ARG145      0.0307
     20  CG       -66.9300  -11.9720  286.3200 C.3   145  ARG145      0.0489
     21  CD       -66.0290  -11.6110  285.1520 C.3   145  ARG145      0.2205
     22  NE       -64.8180  -12.4270  285.1320 N.pl3 145  ARG145     -0.0865
     23  CZ       -64.7460  -13.6480  284.6110 C.cat 145  ARG145      0.5346
     24  NH1      -65.8180  -14.2040  284.0650 N.pl3 145  ARG145      0.1354
     25  NH2      -63.6000  -14.3150  284.6390 N.pl3 145  ARG145      0.1354
     26  N        -65.6200  -10.1780  273.4230 N.3   164  PHE164     -0.1241
     27  CA       -65.0540  -10.2000  272.0780 C.3   164  PHE164      0.1605
     28  C        -66.1290  -10.4030  271.0160 C.2   164  PHE164      0.2264
     29  O        -67.1630  -11.0140  271.2770 O.2   164  PHE164     -0.2867
     30  CB       -64.0000  -11.3020  271.9600 C.3   164  PHE164      0.0534
     31  CG       -62.7850  -11.0740  272.8100 C.ar  164  PHE164     -0.0203
     32  CD1      -61.8200  -10.1570  272.4300 C.ar  164  PHE164     -0.0042
     33  CD2      -62.6050  -11.7780  273.9890 C.ar  164  PHE164     -0.0042
     34  CE1      -60.7010   -9.9450  273.2090 C.ar  164  PHE164     -0.0003
     35  CE2      -61.4870  -11.5700  274.7730 C.ar  164  PHE164     -0.0003
     36  CZ       -60.5340  -10.6530  274.3810 C.ar  164  PHE164     -0.0000
     37  N        -63.6110  -24.4650  276.1260 N.3   180  ILE180     -0.1245
     38  CA       -64.5770  -23.9460  277.0860 C.3   180  ILE180      0.1561
     39  C        -65.9110  -24.6380  276.8470 C.2   180  ILE180      0.2260
     40  O        -66.3690  -24.7420  275.7020 O.2   180  ILE180     -0.2867
     41  CB       -64.7170  -22.4190  276.9650 C.3   180  ILE180      0.0252
     42  CG1      -63.3430  -21.7520  277.0480 C.3   180  ILE180      0.0019
     43  CG2      -65.6380  -21.8800  278.0470 C.3   180  ILE180      0.0019
     44  CD1      -63.3850  -20.2530  276.8770 C.3   180  ILE180      0.0001
     45  N        -61.8240  -11.2050  268.0700 N.3   246  GLY246     -0.1210
     46  CA       -60.8910  -12.2910  268.2940 C.3   246  GLY246      0.1956
     47  C        -60.6680  -12.6270  269.7530 C.2   246  GLY246      0.2612
     48  O        -61.6230  -12.8580  270.5000 O.2   246  GLY246     -0.2717
     49  N        -59.4110  -12.6580  270.1680 N.am  247  GLY247     -0.1942
     50  CA       -59.0430  -13.0220  271.5170 C.3   247  GLY247      0.2014
     51  C        -58.2680  -14.3230  271.5680 C.2   247  GLY247      0.2639
     52  O        -57.7080  -14.7960  270.5750 O.2   247  GLY247     -0.2714
     53  N        -58.2420  -14.9150  272.7630 N.am  248  TRP248     -0.1959
     54  CA       -57.5250  -16.1730  272.9460 C.3   248  TRP248      0.1771
     55  C        -58.2440  -17.3270  272.2580 C.2   248  TRP248      0.2620
     56  O        -57.6080  -18.1530  271.5920 O.2   248  TRP248     -0.2715
     57  CB       -57.3500  -16.4630  274.4370 C.3   248  TRP248      0.0590
     58  CG       -56.6120  -17.7360  274.7310 C.ar  248  TRP248      0.0006
     59  CD1      -57.1350  -18.8860  275.2490 C.ar  248  TRP248      0.0946
     60  CD2      -55.2150  -17.9860  274.5320 C.ar  248  TRP248      0.0152
     61  NE1      -56.1520  -19.8360  275.3820 N.ar  248  TRP248     -0.2442
     62  CE2      -54.9640  -19.3090  274.9480 C.ar  248  TRP248      0.0810
     63  CE3      -54.1520  -17.2210  274.0400 C.ar  248  TRP248      0.0012
     64  CZ2      -53.6960  -19.8830  274.8880 C.ar  248  TRP248      0.0191
     65  CZ3      -52.8940  -17.7930  273.9810 C.ar  248  TRP248      0.0001
     66  CH2      -52.6770  -19.1110  274.4030 C.ar  248  TRP248      0.0015
     67  N        -59.5670  -17.3980  272.3990 N.am  249  THR249     -0.1937
     68  CA       -60.3410  -18.5250  271.8990 C.3   249  THR249      0.2028
     69  C        -60.9760  -18.2750  270.5370 C.2   249  THR249      0.2642
     70  O        -61.4330  -19.2310  269.9030 O.2   249  THR249     -0.2714
     71  CB       -61.4430  -18.8940  272.9000 C.3   249  THR249      0.1808
     72  OG1      -62.3190  -17.7750  273.0820 O.3   249  THR249     -0.2208
     73  CG2      -60.8370  -19.2760  274.2400 C.3   249  THR249      0.0379
     74  N        -61.0150  -17.0280  270.0710 N.am  250  LEU250     -0.1977
     75  CA       -61.7010  -16.6860  268.8320 C.3   250  LEU250      0.1596
     76  C        -60.7440  -16.3060  267.7090 C.2   250  LEU250      0.2287
     77  O        -61.1830  -15.7460  266.6990 O.2   250  LEU250     -0.2864
     78  CB       -62.6930  -15.5470  269.0810 C.3   250  LEU250      0.0297
     79  CG       -63.8770  -15.8860  269.9860 C.3   250  LEU250      0.0022
     80  CD1      -64.6080  -14.6250  270.4170 C.3   250  LEU250      0.0001
     81  CD2      -64.8230  -16.8430  269.2840 C.3   250  LEU250      0.0001
     82  N        -55.2950   -7.9730  287.2780 N.3   418  TYR418     -0.1241
     83  CA       -55.4980   -9.2590  287.9300 C.3   418  TYR418      0.1605
     84  C        -54.1400   -9.8230  288.3360 C.2   418  TYR418      0.2264
     85  O        -53.0890   -9.2560  288.0250 O.2   418  TYR418     -0.2867
     86  CB       -56.2540  -10.2250  287.0100 C.3   418  TYR418      0.0534
     87  CG       -55.5490  -10.4790  285.6940 C.ar  418  TYR418     -0.0201
     88  CD1      -55.7600   -9.6490  284.6030 C.ar  418  TYR418     -0.0009
     89  CD2      -54.6710  -11.5460  285.5440 C.ar  418  TYR418     -0.0009
     90  CE1      -55.1170   -9.8680  283.4020 C.ar  418  TYR418      0.0417
     91  CE2      -54.0200  -11.7740  284.3400 C.ar  418  TYR418      0.0417
     92  CZ       -54.2500  -10.9300  283.2730 C.ar  418  TYR418      0.1957
     93  OH       -53.6080  -11.1520  282.0770 O.3   418  TYR418     -0.2866
     94  N        -51.9280  -13.6490  288.6300 N.3   420  ARG420     -0.1245
     95  CA       -51.7770  -15.0910  288.5050 C.3   420  ARG420      0.1563
     96  C        -50.8870  -15.6010  289.6280 C.2   420  ARG420      0.2260
     97  O        -49.9510  -14.9170  290.0510 O.2   420  ARG420     -0.2867
     98  CB       -51.1830  -15.4580  287.1440 C.3   420  ARG420      0.0307
     99  CG       -52.1100  -15.1580  285.9780 C.3   420  ARG420      0.0489
    100  CD       -51.4910  -15.5720  284.6560 C.3   420  ARG420      0.2205
    101  NE       -52.4830  -15.6200  283.5870 N.pl3 420  ARG420     -0.0865
    102  CZ       -53.2550  -16.6730  283.3410 C.cat 420  ARG420      0.5346
    103  NH1      -53.1460  -17.7620  284.0870 N.pl3 420  ARG420      0.1354
    104  NH2      -54.1340  -16.6370  282.3500 N.pl3 420  ARG420      0.1354
    105  N        -61.6110  -18.2290  287.7580 N.3   447  GLU447     -0.1245
    106  CA       -60.8180  -19.3110  287.1950 C.3   447  GLU447      0.1567
    107  C        -59.6110  -19.5660  288.0850 C.2   447  GLU447      0.2260
    108  O        -59.0020  -18.6240  288.6030 O.2   447  GLU447     -0.2867
    109  CB       -60.3670  -18.9760  285.7670 C.3   447  GLU447      0.0388
    110  CG       -59.1480  -19.7490  285.2900 C.3   447  GLU447      0.1160
    111  CD       -58.8070  -19.4700  283.8400 C.2   447  GLU447      0.3649
    112  OE1      -59.7200  -19.0990  283.0720 O.co2 447  GLU447     -0.2457
    113  OE2      -57.6240  -19.6210  283.4680 O.co2 447  GLU447     -0.2457
    114  N        -55.8950  -17.5540  288.4610 N.3   450  VAL450     -0.1245
    115  CA       -56.0630  -16.1310  288.1930 C.3   450  VAL450      0.1561
    116  C        -56.9380  -15.5410  289.2890 C.2   450  VAL450      0.2260
    117  O        -58.0130  -16.0750  289.5850 O.2   450  VAL450     -0.2867
    118  CB       -56.6910  -15.8720  286.8100 C.3   450  VAL450      0.0252
    119  CG1      -56.8900  -14.3790  286.5890 C.3   450  VAL450      0.0019
    120  CG2      -55.8280  -16.4660  285.7080 C.3   450  VAL450      0.0019
    121  N        -56.6250   -4.9160  281.1740 N.3   511  TRP511     -0.1227
    122  CA       -57.4890   -6.0920  281.1660 C.3   511  TRP511      0.1737
    123  C        -57.5470   -6.6440  282.5850 C.2   511  TRP511      0.2595
    124  O        -56.5150   -7.0120  283.1430 O.2   511  TRP511     -0.2718
    125  CB       -56.9710   -7.1640  280.2000 C.3   511  TRP511      0.0564
    126  CG       -57.7430   -8.4620  280.2680 C.ar  511  TRP511      0.0003
    127  CD1      -57.6300   -9.4340  281.2210 C.ar  511  TRP511      0.0946
    128  CD2      -58.7280   -8.9300  279.3380 C.ar  511  TRP511      0.0152
    129  NE1      -58.4920  -10.4670  280.9510 N.ar  511  TRP511     -0.2442
    130  CE2      -59.1750  -10.1840  279.7980 C.ar  511  TRP511      0.0810
    131  CE3      -59.2750   -8.4110  278.1620 C.ar  511  TRP511      0.0012
    132  CZ2      -60.1460  -10.9220  279.1270 C.ar  511  TRP511      0.0191
    133  CZ3      -60.2400   -9.1450  277.4980 C.ar  511  TRP511      0.0001
    134  CH2      -60.6630  -10.3880  277.9800 C.ar  511  TRP511      0.0015
    135  N        -58.7350   -6.6990  283.1810 N.am  512  GLU512     -0.1979
    136  CA       -59.9670   -6.2150  282.5710 C.3   512  GLU512      0.1602
    137  C        -60.6250   -5.2050  283.5080 C.2   512  GLU512      0.2287
    138  O        -60.3410   -5.1910  284.7050 O.2   512  GLU512     -0.2864
    139  CB       -60.9040   -7.3850  282.2650 C.3   512  GLU512      0.0415
    140  CG       -61.0890   -8.3480  283.4300 C.3   512  GLU512      0.1163
    141  CD       -61.8090   -9.6220  283.0280 C.2   512  GLU512      0.3649
    142  OE1      -62.8600   -9.9340  283.6250 O.co2 512  GLU512     -0.2457
    143  OE2      -61.3210  -10.3130  282.1100 O.co2 512  GLU512     -0.2457
@<TRIPOS>BOND
     1    77    76    2
     2    76    75    1
     3    45    46    1
     4    46    47    1
     5    75    78    1
     6    75    74    1
     7    78    79    1
     8    81    79    1
     9    47    49   am
    10    47    48    2
    11    70    69    2
    12    79    80    1
    13    74    69   am
    14    49    50    1
    15    69    68    1
    16    52    51    2
    17    28    29    2
    18    28    27    1
    19    50    51    1
    20    51    53   am
    21    56    55    2
    22    68    67    1
    23    68    71    1
    24    30    27    1
    25    30    31    1
    26    27    26    1
    27    55    67   am
    28    55    54    1
    29    32    31   ar
    30    32    34   ar
    31    53    54    1
    32    31    33   ar
    33    71    72    1
    34    71    73    1
    35    54    57    1
    36    34    36   ar
    37    65    63   ar
    38    65    66   ar
    39    33    35   ar
    40    63    60   ar
    41    36    35   ar
    42    66    64   ar
    43    57    58    1
    44    60    58   ar
    45    60    62   ar
    46    58    59   ar
    47    64    62   ar
    48    62    61   ar
    49    59    61   ar
    50    40    39    2
    51    37    38    1
    52    39    38    1
    53    44    42    1
    54    13    14   ar
    55    13    11   ar
    56    41    42    1
    57    41    38    1
    58    41    43    1
    59   133   134   ar
    60   133   131   ar
    61    14    12   ar
    62    11     8   ar
    63   134   132   ar
    64   131   128   ar
    65     1     2    1
    66    12    10   ar
    67     8    10   ar
    68     8     6   ar
    69   132   130   ar
    70   128   130   ar
    71   128   126   ar
    72    10     9   ar
    73     5     2    1
    74     5     6    1
    75   130   129   ar
    76     2     3    1
    77     6     7   ar
    78   125   126    1
    79   125   122    1
    80   126   127   ar
    81     9     7   ar
    82   129   127   ar
    83   122   121    1
    84   122   123    1
    85     3     4    2
    86    93    92    1
    87   143   141   ar
    88   139   136    1
    89   139   140    1
    90   104   102    1
    91   136   135    1
    92   136   137    1
    93   123   124    2
    94   123   135   am
    95   141   140    1
    96   141   142   ar
    97   112   111   ar
    98    92    90   ar
    99    92    91   ar
   100   102   101    2
   101   102   103    1
   102    90    88   ar
   103   113   111   ar
   104   137   138    2
   105   101   100    1
   106   111   110    1
   107    24    23    1
   108    91    89   ar
   109    88    87   ar
   110    23    25    1
   111    23    22    2
   112   100    99    1
   113    22    21    1
   114    21    20    1
   115   110   109    1
   116    89    87   ar
   117    87    86    1
   118   120   118    1
   119   109   106    1
   120    99    98    1
   121    20    19    1
   122    19    16    1
   123   119   118    1
   124   118   115    1
   125    86    83    1
   126    98    95    1
   127   106   105    1
   128   106   107    1
   129    82    83    1
   130    15    16    1
   131    16    17    1
   132    83    84    1
   133    85    84    2
   134   107   108    2
   135    17    18    2
   136   115   114    1
   137   115   116    1
   138    95    94    1
   139    95    96    1
   140   116   117    2
   141    96    97    2
