@<TRIPOS>MOLECULE
tmp/5df0B05.pdb
 135 131 0 0 0
SMALL
GASTEIGER

@<TRIPOS>ATOM
      1  N        -60.5350   -2.9320  278.7880 N.3   136  TYR136     -0.1241
      2  CA       -61.2740   -4.0210  278.1660 C.3   136  TYR136      0.1605
      3  C        -62.5090   -4.3520  278.9910 C.2   136  TYR136      0.2264
      4  O        -62.4120   -4.5710  280.2030 O.2   136  TYR136     -0.2867
      5  CB       -60.3990   -5.2650  278.0240 C.3   136  TYR136      0.0534
      6  CG       -59.6920   -5.3870  276.6950 C.ar  136  TYR136     -0.0201
      7  CD1      -60.3360   -5.9360  275.5950 C.ar  136  TYR136     -0.0009
      8  CD2      -58.3770   -4.9730  276.5430 C.ar  136  TYR136     -0.0009
      9  CE1      -59.6960   -6.0570  274.3780 C.ar  136  TYR136      0.0417
     10  CE2      -57.7260   -5.0920  275.3300 C.ar  136  TYR136      0.0417
     11  CZ       -58.3910   -5.6330  274.2500 C.ar  136  TYR136      0.1957
     12  OH       -57.7510   -5.7530  273.0380 O.3   136  TYR136     -0.2866
     13  N        -65.6200  -10.1780  273.4230 N.3   164  PHE164     -0.1241
     14  CA       -65.0540  -10.2000  272.0780 C.3   164  PHE164      0.1605
     15  C        -66.1290  -10.4030  271.0160 C.2   164  PHE164      0.2264
     16  O        -67.1630  -11.0140  271.2770 O.2   164  PHE164     -0.2867
     17  CB       -64.0000  -11.3020  271.9600 C.3   164  PHE164      0.0534
     18  CG       -62.7850  -11.0740  272.8100 C.ar  164  PHE164     -0.0203
     19  CD1      -61.8200  -10.1570  272.4300 C.ar  164  PHE164     -0.0042
     20  CD2      -62.6050  -11.7780  273.9890 C.ar  164  PHE164     -0.0042
     21  CE1      -60.7010   -9.9450  273.2090 C.ar  164  PHE164     -0.0003
     22  CE2      -61.4870  -11.5700  274.7730 C.ar  164  PHE164     -0.0003
     23  CZ       -60.5340  -10.6530  274.3810 C.ar  164  PHE164     -0.0000
     24  N        -59.4110  -12.6580  270.1680 N.3   247  GLY247     -0.1210
     25  CA       -59.0430  -13.0220  271.5170 C.3   247  GLY247      0.1956
     26  C        -58.2680  -14.3230  271.5680 C.2   247  GLY247      0.2611
     27  O        -57.7080  -14.7960  270.5750 O.2   247  GLY247     -0.2717
     28  N        -58.2420  -14.9150  272.7630 N.am  248  TRP248     -0.1976
     29  CA       -57.5250  -16.1730  272.9460 C.3   248  TRP248      0.1640
     30  C        -58.2440  -17.3270  272.2580 C.2   248  TRP248      0.2290
     31  O        -57.6080  -18.1530  271.5920 O.2   248  TRP248     -0.2864
     32  CB       -57.3500  -16.4630  274.4370 C.3   248  TRP248      0.0576
     33  CG       -56.6120  -17.7360  274.7310 C.ar  248  TRP248      0.0006
     34  CD1      -57.1350  -18.8860  275.2490 C.ar  248  TRP248      0.0946
     35  CD2      -55.2150  -17.9860  274.5320 C.ar  248  TRP248      0.0152
     36  NE1      -56.1520  -19.8360  275.3820 N.ar  248  TRP248     -0.2442
     37  CE2      -54.9640  -19.3090  274.9480 C.ar  248  TRP248      0.0810
     38  CE3      -54.1520  -17.2210  274.0400 C.ar  248  TRP248      0.0012
     39  CZ2      -53.6960  -19.8830  274.8880 C.ar  248  TRP248      0.0191
     40  CZ3      -52.8940  -17.7930  273.9810 C.ar  248  TRP248      0.0001
     41  CH2      -52.6770  -19.1110  274.4030 C.ar  248  TRP248      0.0015
     42  N        -57.6350   -8.6380  267.4410 N.3   286  ASP286     -0.1239
     43  CA       -56.9550   -9.4090  268.4730 C.3   286  ASP286      0.1674
     44  C        -56.5740  -10.7930  267.9640 C.2   286  ASP286      0.2266
     45  O        -56.9960  -11.8090  268.5260 O.2   286  ASP286     -0.2867
     46  CB       -57.8310   -9.5170  269.7210 C.3   286  ASP286      0.1410
     47  CG       -58.1450   -8.1640  270.3280 C.2   286  ASP286      0.3668
     48  OD1      -57.3630   -7.6960  271.1810 O.co2 286  ASP286     -0.2456
     49  OD2      -59.1680   -7.5620  269.9450 O.co2 286  ASP286     -0.2456
     50  N        -54.5190  -13.7680  267.9700 N.3   288  GLU288     -0.1245
     51  CA       -53.6230  -14.3310  268.9720 C.3   288  GLU288      0.1567
     52  C        -53.2920  -15.7960  268.7020 C.2   288  GLU288      0.2260
     53  O        -54.0590  -16.6840  269.0700 O.2   288  GLU288     -0.2867
     54  CB       -54.2340  -14.1950  270.3670 C.3   288  GLU288      0.0388
     55  CG       -54.4690  -12.7630  270.8120 C.3   288  GLU288      0.1160
     56  CD       -55.0270  -12.6780  272.2180 C.2   288  GLU288      0.3649
     57  OE1      -54.9810  -13.6960  272.9400 O.co2 288  GLU288     -0.2457
     58  OE2      -55.5110  -11.5930  272.6020 O.co2 288  GLU288     -0.2457
     59  N        -54.1090   -5.6840  269.2320 N.3   336  ALA336     -0.1245
     60  CA       -53.4160   -6.0770  270.4500 C.3   336  ALA336      0.1562
     61  C        -52.4570   -7.2160  270.1380 C.2   336  ALA336      0.2260
     62  O        -52.8650   -8.2460  269.5920 O.2   336  ALA336     -0.2867
     63  CB       -54.4060   -6.4960  271.5370 C.3   336  ALA336      0.0290
     64  N        -49.6650   -6.4520  274.7610 N.3   362  MET362     -0.1245
     65  CA       -50.1700   -7.2440  275.8820 C.3   362  MET362      0.1570
     66  C        -49.0010   -7.6410  276.7800 C.2   362  MET362      0.2261
     67  O        -48.4410   -8.7360  276.6890 O.2   362  MET362     -0.2867
     68  CB       -50.9220   -8.4640  275.3650 C.3   362  MET362      0.0387
     69  CG       -52.1870   -8.1190  274.5970 C.3   362  MET362      0.0595
     70  SD       -52.9080   -9.5410  273.7620 S.3   362  MET362     -0.1393
     71  CE       -52.6590  -10.8160  274.9910 C.3   362  MET362      0.0692
     72  N        -48.4870   -8.7320  279.7860 N.3   364  TYR364     -0.1227
     73  CA       -48.8970   -9.4890  280.9620 C.3   364  TYR364      0.1736
     74  C        -48.9600  -10.9650  280.5880 C.2   364  TYR364      0.2595
     75  O        -48.7170  -11.3460  279.4400 O.2   364  TYR364     -0.2718
     76  CB       -50.2320   -8.9790  281.5140 C.3   364  TYR364      0.0548
     77  CG       -51.2340   -8.5800  280.4560 C.ar  364  TYR364     -0.0200
     78  CD1      -52.0040   -9.5330  279.8030 C.ar  364  TYR364     -0.0009
     79  CD2      -51.4160   -7.2460  280.1160 C.ar  364  TYR364     -0.0009
     80  CE1      -52.9230   -9.1680  278.8360 C.ar  364  TYR364      0.0417
     81  CE2      -52.3310   -6.8720  279.1520 C.ar  364  TYR364      0.0417
     82  CZ       -53.0820   -7.8370  278.5160 C.ar  364  TYR364      0.1957
     83  OH       -53.9950   -7.4670  277.5550 O.3   364  TYR364     -0.2866
     84  N        -49.2860  -11.7950  281.5820 N.am  365  ASP365     -0.1974
     85  CA       -49.3200  -13.2500  281.4260 C.3   365  ASP365      0.1709
     86  C        -47.9630  -13.7970  280.9880 C.2   365  ASP365      0.2293
     87  O        -47.8790  -14.7490  280.2110 O.2   365  ASP365     -0.2864
     88  CB       -50.4220  -13.6840  280.4560 C.3   365  ASP365      0.1436
     89  CG       -51.8110  -13.3900  280.9840 C.2   365  ASP365      0.3671
     90  OD1      -51.9950  -13.4110  282.2180 O.co2 365  ASP365     -0.2456
     91  OD2      -52.7190  -13.1360  280.1660 O.co2 365  ASP365     -0.2456
     92  N        -55.2950   -7.9730  287.2780 N.3   418  TYR418     -0.1241
     93  CA       -55.4980   -9.2590  287.9300 C.3   418  TYR418      0.1605
     94  C        -54.1400   -9.8230  288.3360 C.2   418  TYR418      0.2264
     95  O        -53.0890   -9.2560  288.0250 O.2   418  TYR418     -0.2867
     96  CB       -56.2540  -10.2250  287.0100 C.3   418  TYR418      0.0534
     97  CG       -55.5490  -10.4790  285.6940 C.ar  418  TYR418     -0.0201
     98  CD1      -55.7600   -9.6490  284.6030 C.ar  418  TYR418     -0.0009
     99  CD2      -54.6710  -11.5460  285.5440 C.ar  418  TYR418     -0.0009
    100  CE1      -55.1170   -9.8680  283.4020 C.ar  418  TYR418      0.0417
    101  CE2      -54.0200  -11.7740  284.3400 C.ar  418  TYR418      0.0417
    102  CZ       -54.2500  -10.9300  283.2730 C.ar  418  TYR418      0.1957
    103  OH       -53.6080  -11.1520  282.0770 O.3   418  TYR418     -0.2866
    104  N        -51.9280  -13.6490  288.6300 N.3   420  ARG420     -0.1245
    105  CA       -51.7770  -15.0910  288.5050 C.3   420  ARG420      0.1563
    106  C        -50.8870  -15.6010  289.6280 C.2   420  ARG420      0.2260
    107  O        -49.9510  -14.9170  290.0510 O.2   420  ARG420     -0.2867
    108  CB       -51.1830  -15.4580  287.1440 C.3   420  ARG420      0.0307
    109  CG       -52.1100  -15.1580  285.9780 C.3   420  ARG420      0.0489
    110  CD       -51.4910  -15.5720  284.6560 C.3   420  ARG420      0.2205
    111  NE       -52.4830  -15.6200  283.5870 N.pl3 420  ARG420     -0.0865
    112  CZ       -53.2550  -16.6730  283.3410 C.cat 420  ARG420      0.5346
    113  NH1      -53.1460  -17.7620  284.0870 N.pl3 420  ARG420      0.1354
    114  NH2      -54.1340  -16.6370  282.3500 N.pl3 420  ARG420      0.1354
    115  N        -55.8950  -17.5540  288.4610 N.3   450  VAL450     -0.1245
    116  CA       -56.0630  -16.1310  288.1930 C.3   450  VAL450      0.1561
    117  C        -56.9380  -15.5410  289.2890 C.2   450  VAL450      0.2260
    118  O        -58.0130  -16.0750  289.5850 O.2   450  VAL450     -0.2867
    119  CB       -56.6910  -15.8720  286.8100 C.3   450  VAL450      0.0252
    120  CG1      -56.8900  -14.3790  286.5890 C.3   450  VAL450      0.0019
    121  CG2      -55.8280  -16.4660  285.7080 C.3   450  VAL450      0.0019
    122  N        -56.6250   -4.9160  281.1740 N.3   511  TRP511     -0.1241
    123  CA       -57.4890   -6.0920  281.1660 C.3   511  TRP511      0.1605
    124  C        -57.5470   -6.6440  282.5850 C.2   511  TRP511      0.2264
    125  O        -56.5150   -7.0120  283.1430 O.2   511  TRP511     -0.2867
    126  CB       -56.9710   -7.1640  280.2000 C.3   511  TRP511      0.0550
    127  CG       -57.7430   -8.4620  280.2680 C.ar  511  TRP511      0.0003
    128  CD1      -57.6300   -9.4340  281.2210 C.ar  511  TRP511      0.0946
    129  CD2      -58.7280   -8.9300  279.3380 C.ar  511  TRP511      0.0152
    130  NE1      -58.4920  -10.4670  280.9510 N.ar  511  TRP511     -0.2442
    131  CE2      -59.1750  -10.1840  279.7980 C.ar  511  TRP511      0.0810
    132  CE3      -59.2750   -8.4110  278.1620 C.ar  511  TRP511      0.0012
    133  CZ2      -60.1460  -10.9220  279.1270 C.ar  511  TRP511      0.0191
    134  CZ3      -60.2400   -9.1450  277.4980 C.ar  511  TRP511      0.0001
    135  CH2      -60.6630  -10.3880  277.9800 C.ar  511  TRP511      0.0015
@<TRIPOS>BOND
     1    42    43    1
     2    44    43    1
     3    44    45    2
     4    50    51    1
     5    43    46    1
     6    52    51    1
     7    52    53    2
     8    51    54    1
     9    59    60    1
    10    62    61    2
    11    46    47    1
    12    49    47   ar
    13    61    60    1
    14    24    25    1
    15    47    48   ar
    16    54    55    1
    17    60    63    1
    18    27    26    2
    19    55    56    1
    20    15    16    2
    21    15    14    1
    22    25    26    1
    23    26    28   am
    24    31    30    2
    25    17    14    1
    26    17    18    1
    27    14    13    1
    28    56    58   ar
    29    56    57   ar
    30    30    29    1
    31    19    18   ar
    32    19    21   ar
    33    28    29    1
    34    18    20   ar
    35    29    32    1
    36    12    11    1
    37    21    23   ar
    38    70    69    1
    39    70    71    1
    40    40    38   ar
    41    40    41   ar
    42    20    22   ar
    43    38    35   ar
    44    11     9   ar
    45    11    10   ar
    46     9     7   ar
    47    23    22   ar
    48    41    39   ar
    49    32    33    1
    50    35    33   ar
    51    35    37   ar
    52    69    68    1
    53    33    34   ar
    54    64    65    1
    55    39    37   ar
    56    37    36   ar
    57    34    36   ar
    58    10     8   ar
    59    68    65    1
    60     7     6   ar
    61    65    66    1
    62     8     6   ar
    63    67    66    2
    64     6     5    1
    65   134   135   ar
    66   134   132   ar
    67    83    82    1
    68   135   133   ar
    69     5     2    1
    70   132   129   ar
    71     2     1    1
    72     2     3    1
    73    82    80   ar
    74    82    81   ar
    75    80    78   ar
    76     3     4    2
    77   133   131   ar
    78    81    79   ar
    79   129   131   ar
    80   129   127   ar
    81    75    74    2
    82    72    73    1
    83   131   130   ar
    84    78    77   ar
    85    79    77   ar
    86    91    89   ar
    87   126   127    1
    88   126   123    1
    89    87    86    2
    90   127   128   ar
    91    88    89    1
    92    88    85    1
    93    77    76    1
    94    74    73    1
    95    74    84   am
    96   130   128   ar
    97    73    76    1
    98    89    90   ar
    99    86    85    1
   100   123   122    1
   101   123   124    1
   102    85    84    1
   103   103   102    1
   104   114   112    1
   105   124   125    2
   106   102   100   ar
   107   102   101   ar
   108   112   111    2
   109   112   113    1
   110   100    98   ar
   111   111   110    1
   112   101    99   ar
   113    98    97   ar
   114   110   109    1
   115    99    97   ar
   116    97    96    1
   117   121   119    1
   118   109   108    1
   119   120   119    1
   120   119   116    1
   121    96    93    1
   122   108   105    1
   123    92    93    1
   124    93    94    1
   125    95    94    2
   126   116   115    1
   127   116   117    1
   128   105   104    1
   129   105   106    1
   130   117   118    2
   131   106   107    2
