@<TRIPOS>MOLECULE
tmp/5df1A01.pdb
 149 145 0 0 0
SMALL
GASTEIGER

@<TRIPOS>ATOM
      1  N          2.8420   29.2550   -9.2530 N.3   121  THR121     -0.1203
      2  CA         1.4030   29.0400   -9.1770 C.3   121  THR121      0.1994
      3  C          0.7670   30.4330   -9.1410 C.2   121  THR121      0.2618
      4  O          1.0200   31.2130  -10.0580 O.2   121  THR121     -0.2717
      5  CB         1.0020   28.1120   -8.0150 C.3   121  THR121      0.1784
      6  OG1        1.3910   28.6830   -6.7530 O.3   121  THR121     -0.2211
      7  CG2        1.6130   26.7560   -8.2100 C.3   121  THR121      0.0376
      8  N          0.0240   30.7770   -8.0900 N.am  122  GLY122     -0.1942
      9  CA        -0.6400   32.0780   -8.0420 C.3   122  GLY122      0.2014
     10  C         -1.6000   32.2140   -6.8970 C.2   122  GLY122      0.2639
     11  O         -1.8060   31.2740   -6.1310 O.2   122  GLY122     -0.2714
     12  N         -2.2300   33.3910   -6.8100 N.am  123  ILE123     -0.1963
     13  CA        -3.1200   33.6990   -5.7130 C.3   123  ILE123      0.1727
     14  C         -4.4450   32.9300   -5.7540 C.2   123  ILE123      0.2616
     15  O         -5.1640   32.9510   -4.7730 O.2   123  ILE123     -0.2715
     16  CB        -3.4070   35.1990   -5.5900 C.3   123  ILE123      0.0290
     17  CG1       -3.9850   35.7680   -6.8970 C.3   123  ILE123      0.0022
     18  CG2       -2.1330   35.9400   -5.1770 C.3   123  ILE123      0.0023
     19  CD1       -4.8330   36.9810   -6.6660 C.3   123  ILE123      0.0001
     20  N         -4.7650   32.2380   -6.8550 N.am  124  LYS124     -0.1977
     21  CA        -5.9180   31.2940   -6.8370 C.3   124  LYS124      0.1596
     22  C         -5.7940   30.2420   -5.7340 C.2   124  LYS124      0.2287
     23  O         -6.7920   29.6350   -5.3230 O.2   124  LYS124     -0.2864
     24  CB        -6.0720   30.5610   -8.1800 C.3   124  LYS124      0.0298
     25  CG        -6.9090   31.2650   -9.2370 C.3   124  LYS124      0.0038
     26  CD        -6.6510   30.5480  -10.5880 C.3   124  LYS124      0.0206
     27  CE        -7.4910   29.3110  -10.8770 C.3   124  LYS124      0.1093
     28  NZ        -7.0480   28.6290  -12.1470 N.3   124  LYS124     -0.1314
     29  N         -8.1930   31.5000   -3.0570 N.3   127  PHE127     -0.1241
     30  CA        -9.6250   31.7510   -3.2750 C.3   127  PHE127      0.1605
     31  C        -10.3720   30.7390   -4.1430 C.2   127  PHE127      0.2264
     32  O        -11.5880   30.7530   -4.1340 O.2   127  PHE127     -0.2867
     33  CB        -9.8760   33.1940   -3.7500 C.3   127  PHE127      0.0534
     34  CG        -9.3550   33.4980   -5.1240 C.ar  127  PHE127     -0.0203
     35  CD1      -10.0900   33.1520   -6.2530 C.ar  127  PHE127     -0.0042
     36  CD2       -8.1400   34.1580   -5.2990 C.ar  127  PHE127     -0.0042
     37  CE1       -9.6260   33.4370   -7.5280 C.ar  127  PHE127     -0.0003
     38  CE2       -7.6710   34.4500   -6.5720 C.ar  127  PHE127     -0.0003
     39  CZ        -8.4140   34.0910   -7.6900 C.ar  127  PHE127     -0.0000
     40  N        -11.4720   28.7060  -11.3900 N.3   130  PHE130     -0.1241
     41  CA       -12.4110   29.3770  -12.2820 C.3   130  PHE130      0.1605
     42  C        -13.5860   28.4900  -12.7020 C.2   130  PHE130      0.2264
     43  O        -14.6420   29.0370  -13.0160 O.2   130  PHE130     -0.2867
     44  CB       -11.7020   29.9410  -13.5320 C.3   130  PHE130      0.0534
     45  CG       -10.5690   30.9170  -13.2320 C.ar  130  PHE130     -0.0203
     46  CD1      -10.6800   31.8890  -12.2200 C.ar  130  PHE130     -0.0042
     47  CD2       -9.4000   30.8890  -14.0020 C.ar  130  PHE130     -0.0042
     48  CE1       -9.6390   32.7710  -11.9720 C.ar  130  PHE130     -0.0003
     49  CE2       -8.3640   31.7860  -13.7650 C.ar  130  PHE130     -0.0003
     50  CZ        -8.4820   32.7200  -12.7460 C.ar  130  PHE130     -0.0000
     51  N         -2.7500   23.4270   -8.5650 N.3   156  TYR156     -0.1241
     52  CA        -1.6260   23.9560   -7.7760 C.3   156  TYR156      0.1605
     53  C         -1.2010   23.0030   -6.6650 C.2   156  TYR156      0.2264
     54  O         -0.0170   22.9010   -6.3650 O.2   156  TYR156     -0.2867
     55  CB        -2.0110   25.2940   -7.1560 C.3   156  TYR156      0.0534
     56  CG        -2.1780   26.4690   -8.0990 C.ar  156  TYR156     -0.0201
     57  CD1       -1.8460   26.3920   -9.4670 C.ar  156  TYR156     -0.0009
     58  CD2       -2.6200   27.6990   -7.6050 C.ar  156  TYR156     -0.0009
     59  CE1       -1.9790   27.4970  -10.2880 C.ar  156  TYR156      0.0417
     60  CE2       -2.7200   28.7990   -8.4120 C.ar  156  TYR156      0.0417
     61  CZ        -2.4090   28.6930   -9.7660 C.ar  156  TYR156      0.1957
     62  OH        -2.5150   29.8300  -10.5450 O.3   156  TYR156     -0.2866
     63  N          2.1720   34.6230   -7.7380 N.3   179  PRO179     -0.2102
     64  CA         1.9190   35.9500   -8.2150 C.3   179  PRO179      0.1504
     65  C          0.4690   36.3540   -8.1560 C.2   179  PRO179      0.2576
     66  O         -0.4560   35.5190   -8.2460 O.2   179  PRO179     -0.2718
     67  CB         2.4020   35.9180   -9.6870 C.3   179  PRO179      0.0282
     68  CG         2.5430   34.4930  -10.0500 C.3   179  PRO179      0.0208
     69  CD         2.8480   33.7880   -8.7530 C.3   179  PRO179      0.0893
     70  N          0.2850   37.6350   -7.9710 N.am  180  ALA180     -0.1966
     71  CA        -1.0050   38.2750   -8.1780 C.3   180  ALA180      0.1728
     72  C         -1.2920   38.3550   -9.7100 C.2   180  ALA180      0.2616
     73  O         -0.5320   37.8320  -10.5120 O.2   180  ALA180     -0.2715
     74  CB        -0.9740   39.6530   -7.5630 C.3   180  ALA180      0.0334
     75  N         -2.3970   39.0020  -10.0890 N.am  181  LEU181     -0.1963
     76  CA        -2.6900   39.3320  -11.4890 C.3   181  LEU181      0.1728
     77  C         -1.4530   39.8980  -12.1720 C.2   181  LEU181      0.2616
     78  O         -0.8650   40.8580  -11.6680 O.2   181  LEU181     -0.2715
     79  CB        -3.8010   40.4040  -11.5100 C.3   181  LEU181      0.0311
     80  CG        -4.2580   40.9400  -12.8700 C.3   181  LEU181      0.0022
     81  CD1       -4.9060   39.8140  -13.6740 C.3   181  LEU181      0.0001
     82  CD2       -5.2420   42.0830  -12.6720 C.3   181  LEU181      0.0001
     83  N         -1.0400   39.3260  -13.3110 N.am  182  VAL182     -0.1977
     84  CA         0.2120   39.7720  -13.9410 C.3   182  VAL182      0.1596
     85  C         -0.0090   40.9140  -14.9370 C.2   182  VAL182      0.2287
     86  O         -0.8680   40.8070  -15.8150 O.2   182  VAL182     -0.2864
     87  CB         1.0090   38.6210  -14.6030 C.3   182  VAL182      0.0276
     88  CG1        2.2480   39.1700  -15.3210 C.3   182  VAL182      0.0022
     89  CG2        1.4600   37.6130  -13.5490 C.3   182  VAL182      0.0022
     90  N         -3.7410   34.5450  -20.4830 N.3   191  MET191     -0.1245
     91  CA        -4.3090   35.4180  -19.4590 C.3   191  MET191      0.1570
     92  C         -3.4400   36.6580  -19.3160 C.2   191  MET191      0.2261
     93  O         -2.7040   36.8030  -18.3330 O.2   191  MET191     -0.2867
     94  CB        -4.4300   34.6930  -18.1020 C.3   191  MET191      0.0387
     95  CG        -5.3540   33.4640  -18.0880 C.3   191  MET191      0.0595
     96  SD        -5.5970   32.7710  -16.4410 S.3   191  MET191     -0.1393
     97  CE        -3.9580   32.2600  -15.9310 C.3   191  MET191      0.0692
     98  N         -9.2420   49.8460  -10.4780 N.3   260  TRP260     -0.1241
     99  CA        -9.5700   49.7940  -11.9140 C.3   260  TRP260      0.1605
    100  C        -10.1480   51.1120  -12.4240 C.2   260  TRP260      0.2264
    101  O         -9.9090   51.4830  -13.5820 O.2   260  TRP260     -0.2867
    102  CB       -10.5300   48.6230  -12.2520 C.3   260  TRP260      0.0550
    103  CG        -9.8280   47.2910  -12.1810 C.ar  260  TRP260      0.0003
    104  CD1      -10.0740   46.2910  -11.2920 C.ar  260  TRP260      0.0946
    105  CD2       -8.7290   46.8500  -12.9850 C.ar  260  TRP260      0.0152
    106  NE1       -9.2210   45.2440  -11.5150 N.ar  260  TRP260     -0.2442
    107  CE2       -8.3750   45.5630  -12.5350 C.ar  260  TRP260      0.0810
    108  CE3       -8.0490   47.3910  -14.0880 C.ar  260  TRP260      0.0012
    109  CZ2       -7.3480   44.8080  -13.1280 C.ar  260  TRP260      0.0191
    110  CZ3       -7.0090   46.6510  -14.6700 C.ar  260  TRP260      0.0001
    111  CH2       -6.6810   45.3640  -14.1910 C.ar  260  TRP260      0.0015
    112  N        -11.2100   36.4990  -19.2160 N.3   320  PHE320     -0.1241
    113  CA       -10.3420   36.7590  -18.0730 C.3   320  PHE320      0.1605
    114  C        -10.5740   38.1590  -17.5020 C.2   320  PHE320      0.2264
    115  O        -10.6380   38.3330  -16.2860 O.2   320  PHE320     -0.2867
    116  CB        -8.9020   36.5720  -18.4910 C.3   320  PHE320      0.0534
    117  CG        -7.9110   36.7050  -17.3870 C.ar  320  PHE320     -0.0203
    118  CD1       -7.9250   35.8340  -16.3100 C.ar  320  PHE320     -0.0042
    119  CD2       -6.9260   37.6920  -17.4430 C.ar  320  PHE320     -0.0042
    120  CE1       -6.9840   35.9480  -15.3080 C.ar  320  PHE320     -0.0003
    121  CE2       -5.9940   37.8220  -16.4280 C.ar  320  PHE320     -0.0003
    122  CZ        -6.0310   36.9560  -15.3600 C.ar  320  PHE320     -0.0000
    123  N        -13.7460   38.0210  -15.3780 N.3   323  ILE323     -0.1231
    124  CA       -13.4550   37.5430  -14.0360 C.3   323  ILE323      0.1692
    125  C        -12.7770   38.6380  -13.1860 C.2   323  ILE323      0.2591
    126  O        -13.2020   38.8790  -12.0620 O.2   323  ILE323     -0.2718
    127  CB       -12.6120   36.2560  -14.0680 C.3   323  ILE323      0.0266
    128  CG1      -13.4270   35.1240  -14.6800 C.3   323  ILE323      0.0019
    129  CG2      -12.1970   35.8350  -12.6480 C.3   323  ILE323      0.0020
    130  CD1      -12.5890   33.9030  -15.0090 C.3   323  ILE323      0.0001
    131  N        -11.7940   39.3440  -13.7320 N.am  324  ALA324     -0.1980
    132  CA       -11.1810   40.4490  -13.0250 C.3   324  ALA324      0.1597
    133  C        -12.2120   41.4790  -12.5780 C.2   324  ALA324      0.2287
    134  O        -12.1540   42.0030  -11.4530 O.2   324  ALA324     -0.2864
    135  CB       -10.1180   41.1120  -13.8930 C.3   324  ALA324      0.0319
    136  N        -14.3300   40.5820   -9.4660 N.3   327  SER327     -0.1217
    137  CA       -13.5500   40.1780   -8.3150 C.3   327  SER327      0.1889
    138  C        -13.3080   41.3580   -7.3860 C.2   327  SER327      0.2288
    139  O        -13.1740   42.5050   -7.8260 O.2   327  SER327     -0.2866
    140  CB       -12.2150   39.6370   -8.7730 C.3   327  SER327      0.2089
    141  OG       -12.3960   38.4930   -9.5810 O.3   327  SER327     -0.2183
    142  N         -9.1310   40.4890   -2.9470 N.3   330  LEU330     -0.1245
    143  CA        -8.0730   39.5290   -3.3360 C.3   330  LEU330      0.1561
    144  C         -6.6460   40.0140   -3.0860 C.2   330  LEU330      0.2260
    145  O         -5.6750   39.3830   -3.5710 O.2   330  LEU330     -0.2867
    146  CB        -8.2210   39.1570   -4.8270 C.3   330  LEU330      0.0270
    147  CG        -9.5500   38.4920   -5.2140 C.3   330  LEU330      0.0019
    148  CD1       -9.5490   38.1650   -6.6920 C.3   330  LEU330      0.0001
    149  CD2       -9.8000   37.2470   -4.3800 C.3   330  LEU330      0.0001
@<TRIPOS>BOND
     1    90    91    1
     2    91    92    1
     3    91    94    1
     4    92    93    2
     5   112   113    1
     6   116   113    1
     7   116   117    1
     8    94    95    1
     9    95    96    1
    10   113   114    1
    11   114   115    2
    12   119   117   ar
    13   119   121   ar
    14   117   118   ar
    15    96    97    1
    16   121   122   ar
    17   118   120   ar
    18    86    85    2
    19   123   124    1
    20   122   120   ar
    21    88    87    1
    22   130   128    1
    23    85    84    1
    24   128   127    1
    25   110   111   ar
    26   110   108   ar
    27    87    84    1
    28    87    89    1
    29   111   109   ar
    30   108   105   ar
    31   127   124    1
    32   127   129    1
    33   124   125    1
    34    47    49   ar
    35    47    45   ar
    36    84    83    1
    37   135   132    1
    38    49    50   ar
    39   131   125   am
    40   131   132    1
    41    81    80    1
    42   101   100    2
    43    44    45    1
    44    44    41    1
    45    83    77   am
    46    45    46   ar
    47   125   126    2
    48   109   107   ar
    49   132   133    1
    50    43    42    2
    51   105   107   ar
    52   105   103   ar
    53    80    82    1
    54    80    79    1
    55    50    48   ar
    56    42    41    1
    57   133   134    2
    58   107   106   ar
    59   100    99    1
    60    41    40    1
    61   102   103    1
    62   102    99    1
    63    46    48   ar
    64   103   104   ar
    65    77    78    2
    66    77    76    1
    67    28    27    1
    68    99    98    1
    69   106   104   ar
    70    79    76    1
    71    76    75    1
    72    27    26    1
    73    26    25    1
    74    62    61    1
    75    73    72    2
    76    59    61   ar
    77    59    57   ar
    78    75    72   am
    79     4     3    2
    80    68    67    1
    81    68    69    1
    82    61    60   ar
    83    72    71    1
    84    67    64    1
    85   141   140    1
    86    57    56   ar
    87   136   137    1
    88     1     2    1
    89    25    24    1
    90     2     3    1
    91     2     5    1
    92     3     8   am
    93   140   137    1
    94    69    63    1
    95    51    52    1
    96    60    58   ar
    97   137   138    1
    98    66    65    2
    99    64    65    1
   100    64    63    1
   101     7     5    1
   102    24    21    1
   103    71    70    1
   104    71    74    1
   105    65    70   am
   106    56    58   ar
   107    56    55    1
   108     8     9    1
   109     9    10    1
   110     5     6    1
   111   139   138    2
   112    52    55    1
   113    52    53    1
   114    39    37   ar
   115    39    38   ar
   116    37    35   ar
   117    10    12   am
   118    10    11    2
   119    17    19    1
   120    17    16    1
   121    20    21    1
   122    20    14   am
   123    21    22    1
   124    12    13    1
   125   148   147    1
   126    53    54    2
   127    38    36   ar
   128    35    34   ar
   129    14    13    1
   130    14    15    2
   131    22    23    2
   132    13    16    1
   133    16    18    1
   134    36    34   ar
   135   147   146    1
   136   147   149    1
   137    34    33    1
   138   146   143    1
   139    31    32    2
   140    31    30    1
   141    33    30    1
   142   145   144    2
   143   143   144    1
   144   143   142    1
   145    30    29    1
