@<TRIPOS>MOLECULE
tmp/5df7A00.pdb
 197 191 0 0 0
SMALL
GASTEIGER

@<TRIPOS>ATOM
      1  N          1.6130    2.6010   18.2170 N.3   244  GLY244     -0.1210
      2  CA         0.8730    2.8140   19.4530 C.3   244  GLY244      0.1956
      3  C          0.0650    1.5970   19.8660 C.2   244  GLY244      0.2612
      4  O          0.5200    0.4550   19.7270 O.2   244  GLY244     -0.2717
      5  N         -1.1600    1.8460   20.3190 N.am  245  SER245     -0.1952
      6  CA        -2.0180    0.8200   20.9260 C.3   245  SER245      0.1924
      7  C         -2.4020   -0.3230   20.0050 C.2   245  SER245      0.2314
      8  O         -2.9440   -1.3230   20.4650 O.2   245  SER245     -0.2863
      9  CB        -3.2880    1.4580   21.4890 C.3   245  SER245      0.2116
     10  OG        -2.9400    2.4050   22.4930 O.3   245  SER245     -0.2180
     11  N          9.8020    9.3050   34.1900 N.3   279  TYR279     -0.1241
     12  CA         8.7270    9.1870   33.2000 C.3   279  TYR279      0.1605
     13  C          7.4130    8.7020   33.8100 C.2   279  TYR279      0.2264
     14  O          7.4100    7.9060   34.7530 O.2   279  TYR279     -0.2867
     15  CB         9.1530    8.2770   32.0400 C.3   279  TYR279      0.0534
     16  CG         8.1460    8.1960   30.9070 C.ar  279  TYR279     -0.0201
     17  CD1        7.8480    9.3170   30.1230 C.ar  279  TYR279     -0.0009
     18  CD2        7.4930    6.9980   30.6160 C.ar  279  TYR279     -0.0009
     19  CE1        6.9260    9.2460   29.0880 C.ar  279  TYR279      0.0417
     20  CE2        6.5710    6.9170   29.5820 C.ar  279  TYR279      0.0417
     21  CZ         6.2910    8.0410   28.8210 C.ar  279  TYR279      0.1957
     22  OH         5.3750    7.9580   27.7950 O.3   279  TYR279     -0.2866
     23  N          0.6240    7.2480   31.2070 N.3   282  ARG282     -0.1245
     24  CA        -0.7220    7.7930   31.3880 C.3   282  ARG282      0.1563
     25  C         -1.7740    7.0670   30.5530 C.2   282  ARG282      0.2260
     26  O         -1.5490    6.7740   29.3770 O.2   282  ARG282     -0.2867
     27  CB        -0.7440    9.2880   31.0500 C.3   282  ARG282      0.0307
     28  CG         0.0720   10.1580   31.9940 C.3   282  ARG282      0.0489
     29  CD         0.0020   11.6240   31.6000 C.3   282  ARG282      0.2205
     30  NE         0.7500   12.4650   32.5310 N.pl3 282  ARG282     -0.0865
     31  CZ         2.0440   12.7560   32.4140 C.cat 282  ARG282      0.5346
     32  NH1        2.6300   13.5310   33.3170 N.pl3 282  ARG282      0.1354
     33  NH2        2.7580   12.2760   31.4010 N.pl3 282  ARG282      0.1354
     34  N         -5.6480    7.4480   28.9580 N.3   284  VAL284     -0.1231
     35  CA        -6.6160    8.4640   28.5680 C.3   284  VAL284      0.1692
     36  C         -7.9460    8.1350   29.2410 C.2   284  VAL284      0.2592
     37  O         -8.4670    8.9360   30.0140 O.2   284  VAL284     -0.2718
     38  CB        -6.7390    8.5810   27.0270 C.3   284  VAL284      0.0266
     39  CG1       -8.0080    9.3200   26.6240 C.3   284  VAL284      0.0020
     40  CG2       -5.5160    9.2810   26.4560 C.3   284  VAL284      0.0020
     41  N         -8.4780    6.9490   28.9540 N.am  285  SER285     -0.1952
     42  CA        -9.6560    6.4410   29.6440 C.3   285  SER285      0.1924
     43  C         -9.2920    6.1420   31.1020 C.2   285  SER285      0.2314
     44  O         -8.4060    5.3280   31.3710 O.2   285  SER285     -0.2863
     45  CB       -10.1700    5.1840   28.9380 C.3   285  SER285      0.2116
     46  OG       -11.2590    4.6070   29.6350 O.3   285  SER285     -0.2180
     47  N        -10.5240   -0.8840   26.7530 N.3   299  LYS299     -0.1231
     48  CA       -10.3230    0.4820   27.2490 C.3   299  LYS299      0.1693
     49  C         -8.9730    1.0770   26.8290 C.2   299  LYS299      0.2592
     50  O         -8.7210    2.2680   27.0400 O.2   299  LYS299     -0.2718
     51  CB       -10.4590    0.5320   28.7840 C.3   299  LYS299      0.0285
     52  CG       -11.7610   -0.0270   29.3530 C.3   299  LYS299      0.0035
     53  CD       -12.9650    0.8640   29.0790 C.3   299  LYS299      0.0206
     54  CE       -14.2520    0.2030   29.5530 C.3   299  LYS299      0.1093
     55  NZ       -15.4610    0.9890   29.1800 N.3   299  LYS299     -0.1314
     56  N         -8.1170    0.2420   26.2390 N.am  300  SER300     -0.1952
     57  CA        -6.7840    0.6470   25.7870 C.3   300  SER300      0.1924
     58  C         -5.9990    1.2720   26.9370 C.2   300  SER300      0.2314
     59  O         -5.6180    2.4490   26.8960 O.2   300  SER300     -0.2863
     60  CB        -6.8790    1.5980   24.5860 C.3   300  SER300      0.2116
     61  OG        -5.8590    1.3320   23.6440 O.3   300  SER300     -0.2180
     62  N         -2.7940    1.8580   28.8360 N.3   302  ASN302     -0.1240
     63  CA        -1.3320    1.8430   28.7770 C.3   302  ASN302      0.1653
     64  C         -0.7450    1.3330   30.0900 C.2   302  ASN302      0.2266
     65  O          0.2290    0.5840   30.0840 O.2   302  ASN302     -0.2867
     66  CB        -0.7780    3.2420   28.5020 C.3   302  ASN302      0.1155
     67  CG        -1.0900    3.7440   27.1020 C.2   302  ASN302      0.2627
     68  OD1       -1.3890    2.9730   26.1860 O.2   302  ASN302     -0.2716
     69  ND2       -1.0090    5.0530   26.9320 N.am  302  ASN302     -0.0877
     70  N          6.9170    1.2930   27.0460 N.3   355  THR355     -0.1218
     71  CA         6.6080    1.9840   25.7840 C.3   355  THR355      0.1862
     72  C          6.6240    1.0540   24.5740 C.2   355  THR355      0.2287
     73  O          5.8210    1.2240   23.6520 O.2   355  THR355     -0.2866
     74  CB         7.5490    3.1710   25.5190 C.3   355  THR355      0.1770
     75  OG1        8.9040    2.7030   25.4390 O.3   355  THR355     -0.2211
     76  CG2        7.4240    4.2040   26.6270 C.3   355  THR355      0.0375
     77  N          3.2120   -0.7660   24.6310 N.3   358  TYR358     -0.1241
     78  CA         2.1190    0.0410   24.0990 C.3   358  TYR358      0.1605
     79  C          2.4500    0.8520   22.8360 C.2   358  TYR358      0.2264
     80  O          1.7380    1.7910   22.5030 O.2   358  TYR358     -0.2867
     81  CB         1.3630    0.8480   25.1760 C.3   358  TYR358      0.0534
     82  CG         2.1380    1.8850   25.9620 C.ar  358  TYR358     -0.0201
     83  CD1        2.6710    1.5800   27.2100 C.ar  358  TYR358     -0.0009
     84  CD2        2.2630    3.1950   25.4980 C.ar  358  TYR358     -0.0009
     85  CE1        3.3550    2.5330   27.9540 C.ar  358  TYR358      0.0417
     86  CE2        2.9420    4.1590   26.2360 C.ar  358  TYR358      0.0417
     87  CZ         3.4860    3.8210   27.4650 C.ar  358  TYR358      0.1957
     88  OH         4.1650    4.7630   28.2130 O.3   358  TYR358     -0.2866
     89  N          5.2820    2.6040   21.3060 N.3   360  TYR360     -0.1241
     90  CA         6.1710    3.7190   20.9850 C.3   360  TYR360      0.1605
     91  C          7.6330    3.2970   21.0940 C.2   360  TYR360      0.2264
     92  O          7.9700    2.3770   21.8350 O.2   360  TYR360     -0.2867
     93  CB         5.8290    4.9540   21.8360 C.3   360  TYR360      0.0534
     94  CG         4.3610    5.2850   21.7160 C.ar  360  TYR360     -0.0201
     95  CD1        3.8410    5.8340   20.5370 C.ar  360  TYR360     -0.0009
     96  CD2        3.4770    4.9880   22.7510 C.ar  360  TYR360     -0.0009
     97  CE1        2.4860    6.1020   20.4100 C.ar  360  TYR360      0.0417
     98  CE2        2.1250    5.2530   22.6300 C.ar  360  TYR360      0.0417
     99  CZ         1.6340    5.8060   21.4630 C.ar  360  TYR360      0.1957
    100  OH         0.2920    6.0680   21.3530 O.3   360  TYR360     -0.2866
    101  N         -8.4930   -3.2630   16.6870 N.3   435  LYS435     -0.1231
    102  CA        -7.9390   -2.4230   17.7420 C.3   435  LYS435      0.1693
    103  C         -7.6490   -1.0250   17.1940 C.2   435  LYS435      0.2593
    104  O         -7.0230   -0.8950   16.1400 O.2   435  LYS435     -0.2718
    105  CB        -6.6450   -3.0430   18.2710 C.3   435  LYS435      0.0285
    106  CG        -6.0210   -2.2960   19.4400 C.3   435  LYS435      0.0035
    107  CD        -6.8100   -2.4900   20.7300 C.3   435  LYS435      0.0206
    108  CE        -6.2640   -1.5980   21.8410 C.3   435  LYS435      0.1093
    109  NZ        -6.5720   -0.1690   21.5690 N.3   435  LYS435     -0.1314
    110  N         -8.0930    0.0010   17.9190 N.am  436  SER436     -0.1938
    111  CA        -7.8170    1.3880   17.5710 C.3   436  SER436      0.2055
    112  C         -6.5040    1.8650   18.1840 C.2   436  SER436      0.2644
    113  O         -5.9980    1.2820   19.1310 O.2   436  SER436     -0.2714
    114  CB        -8.9440    2.2990   18.0810 C.3   436  SER436      0.2130
    115  OG        -8.9730    2.3110   19.5080 O.3   436  SER436     -0.2179
    116  N         -5.9680    2.9530   17.6510 N.am  437  GLY437     -0.1939
    117  CA        -4.8180    3.5930   18.2610 C.3   437  GLY437      0.2014
    118  C         -4.8470    5.0580   17.9260 C.2   437  GLY437      0.2640
    119  O         -5.4190    5.4670   16.9090 O.2   437  GLY437     -0.2714
    120  N         -4.2290    5.8470   18.7910 N.am  438  THR438     -0.1936
    121  CA        -4.0760    7.2630   18.5760 C.3   438  THR438      0.2028
    122  C         -2.6750    7.5870   19.0590 C.2   438  THR438      0.2642
    123  O         -2.2980    7.1950   20.1690 O.2   438  THR438     -0.2714
    124  CB        -5.0840    8.0880   19.4090 C.3   438  THR438      0.1808
    125  OG1       -6.4110    7.5710   19.2360 O.3   438  THR438     -0.2208
    126  CG2       -5.0520    9.5560   18.9820 C.3   438  THR438      0.0379
    127  N         -1.8990    8.2710   18.2230 N.am  439  ALA439     -0.1963
    128  CA        -0.5240    8.6090   18.5750 C.3   439  ALA439      0.1728
    129  C         -0.2720   10.0810   18.3340 C.2   439  ALA439      0.2616
    130  O         -0.7350   10.6370   17.3390 O.2   439  ALA439     -0.2715
    131  CB         0.4560    7.7710   17.7630 C.3   439  ALA439      0.0334
    132  N          0.4620   10.7130   19.2410 N.am  440  ARG440     -0.1977
    133  CA         0.9710   12.0550   18.9830 C.3   440  ARG440      0.1597
    134  C          2.0200   11.9540   17.8870 C.2   440  ARG440      0.2287
    135  O          2.8320   11.0220   17.8790 O.2   440  ARG440     -0.2864
    136  CB         1.6120   12.6520   20.2330 C.3   440  ARG440      0.0334
    137  CG         0.6540   12.8670   21.3860 C.3   440  ARG440      0.0492
    138  CD         1.3660   13.5740   22.5300 C.3   440  ARG440      0.2205
    139  NE         0.5300   13.6510   23.7230 N.pl3 440  ARG440     -0.0865
    140  CZ        -0.4690   14.5180   23.8860 C.cat 440  ARG440      0.5346
    141  NH1       -1.1650   14.5130   25.0120 N.pl3 440  ARG440      0.1354
    142  NH2       -0.7770   15.3880   22.9280 N.pl3 440  ARG440      0.1354
    143  N          7.2720   15.0930   21.3130 N.3   449  TYR449     -0.1241
    144  CA         5.9990   15.0270   20.6080 C.3   449  TYR449      0.1605
    145  C          5.2840   16.3580   20.4960 C.2   449  TYR449      0.2264
    146  O          5.4620   17.2470   21.3260 O.2   449  TYR449     -0.2867
    147  CB         5.0930   13.9980   21.2790 C.3   449  TYR449      0.0534
    148  CG         5.6140   12.5890   21.1490 C.ar  449  TYR449     -0.0201
    149  CD1        6.4670   12.0520   22.1100 C.ar  449  TYR449     -0.0009
    150  CD2        5.2670   11.8000   20.0560 C.ar  449  TYR449     -0.0009
    151  CE1        6.9560   10.7620   21.9920 C.ar  449  TYR449      0.0417
    152  CE2        5.7440   10.5090   19.9270 C.ar  449  TYR449      0.0417
    153  CZ         6.5860    9.9950   20.8970 C.ar  449  TYR449      0.1957
    154  OH         7.0590    8.7160   20.7790 O.3   449  TYR449     -0.2866
    155  N         -1.9210   14.6020   15.6360 N.3   454  TYR454     -0.1241
    156  CA        -2.1090   13.2050   15.9530 C.3   454  TYR454      0.1605
    157  C         -2.1960   12.3610   14.7070 C.2   454  TYR454      0.2264
    158  O         -2.5070   12.8590   13.6240 O.2   454  TYR454     -0.2867
    159  CB        -3.4090   13.0010   16.7620 C.3   454  TYR454      0.0534
    160  CG        -3.4680   13.7390   18.0740 C.ar  454  TYR454     -0.0201
    161  CD1       -2.9800   13.1630   19.2480 C.ar  454  TYR454     -0.0009
    162  CD2       -4.0210   15.0200   18.1400 C.ar  454  TYR454     -0.0009
    163  CE1       -3.0390   13.8510   20.4560 C.ar  454  TYR454      0.0417
    164  CE2       -4.0790   15.7090   19.3290 C.ar  454  TYR454      0.0417
    165  CZ        -3.5880   15.1270   20.4800 C.ar  454  TYR454      0.1957
    166  OH        -3.6600   15.8350   21.6480 O.3   454  TYR454     -0.2866
    167  N         -9.9650   13.1780   16.8800 N.3   483  TYR483     -0.1227
    168  CA        -8.6680   12.6200   16.5160 C.3   483  TYR483      0.1736
    169  C         -8.4150   11.1920   17.0000 C.2   483  TYR483      0.2595
    170  O         -7.4410   10.5670   16.5770 O.2   483  TYR483     -0.2718
    171  CB        -7.5470   13.5590   16.9670 C.3   483  TYR483      0.0548
    172  CG        -7.5490   13.8280   18.4500 C.ar  483  TYR483     -0.0200
    173  CD1       -6.7850   13.0480   19.3080 C.ar  483  TYR483     -0.0009
    174  CD2       -8.3170   14.8630   18.9990 C.ar  483  TYR483     -0.0009
    175  CE1       -6.7750   13.2840   20.6700 C.ar  483  TYR483      0.0417
    176  CE2       -8.3160   15.1030   20.3640 C.ar  483  TYR483      0.0417
    177  CZ        -7.5400   14.3080   21.1900 C.ar  483  TYR483      0.1957
    178  OH        -7.5130   14.5180   22.5400 O.3   483  TYR483     -0.2866
    179  N         -9.2750   10.6770   17.8770 N.am  484  PHE484     -0.1962
    180  CA        -9.1110    9.3080   18.3550 C.3   484  PHE484      0.1771
    181  C         -9.2950    8.3360   17.1920 C.2   484  PHE484      0.2620
    182  O        -10.1490    8.5520   16.3310 O.2   484  PHE484     -0.2715
    183  CB       -10.1040    8.9610   19.4730 C.3   484  PHE484      0.0574
    184  CG        -9.8470    9.6640   20.7810 C.ar  484  PHE484     -0.0200
    185  CD1      -10.8770    9.8160   21.7060 C.ar  484  PHE484     -0.0042
    186  CD2       -8.5890   10.1700   21.1010 C.ar  484  PHE484     -0.0042
    187  CE1      -10.6570   10.4650   22.9220 C.ar  484  PHE484     -0.0003
    188  CE2       -8.3660   10.8180   22.3130 C.ar  484  PHE484     -0.0003
    189  CZ        -9.4030   10.9650   23.2250 C.ar  484  PHE484     -0.0000
    190  N         -8.4890    7.2810   17.1860 N.am  485  GLY485     -0.1940
    191  CA        -8.5720    6.2120   16.1960 C.3   485  GLY485      0.2014
    192  C         -9.9590    5.6140   16.0560 C.2   485  GLY485      0.2639
    193  O        -10.4050    5.3330   14.9450 O.2   485  GLY485     -0.2714
    194  N        -10.6460    5.4370   17.1790 N.am  486  GLY486     -0.1954
    195  CA       -12.0070    4.8930   17.1830 C.3   486  GLY486      0.1869
    196  C        -13.0770    5.8510   16.6720 C.2   486  GLY486      0.2309
    197  O        -14.1920    5.4270   16.3580 O.2   486  GLY486     -0.2863
@<TRIPOS>BOND
     1   158   157    2
     2   157   156    1
     3   193   192    2
     4   155   156    1
     5   156   159    1
     6   192   191    1
     7   192   194   am
     8   104   103    2
     9   191   190    1
    10   182   181    2
    11   197   196    2
    12   168   167    1
    13   168   171    1
    14   168   169    1
    15   170   169    2
    16   196   195    1
    17   101   102    1
    18   159   160    1
    19   119   118    2
    20   171   172    1
    21   169   179   am
    22   194   195    1
    23   190   181   am
    24   181   180    1
    25   103   102    1
    26   103   110   am
    27   130   129    2
    28   111   110    1
    29   111   114    1
    30   111   112    1
    31   116   112   am
    32   116   117    1
    33   102   105    1
    34   131   128    1
    35   179   180    1
    36   135   134    2
    37   134   133    1
    38   118   117    1
    39   118   120   am
    40   160   162   ar
    41   160   161   ar
    42   114   115    1
    43   162   164   ar
    44   112   113    2
    45     1     2    1
    46   127   128    1
    47   127   122   am
    48   105   106    1
    49   129   128    1
    50   129   132   am
    51   180   183    1
    52   172   174   ar
    53   172   173   ar
    54   121   120    1
    55   121   122    1
    56   121   124    1
    57   126   124    1
    58   133   132    1
    59   133   136    1
    60   174   176   ar
    61   122   123    2
    62   125   124    1
    63   161   163   ar
    64   173   175   ar
    65   164   165   ar
    66   106   107    1
    67     2     3    1
    68   183   184    1
    69     4     3    2
    70     3     5   am
    71   152   150   ar
    72   152   153   ar
    73     7     8    2
    74     7     6    1
    75   150   148   ar
    76   136   137    1
    77     5     6    1
    78   176   177   ar
    79    97    95   ar
    80    97    99   ar
    81   163   165   ar
    82   165   166    1
    83   145   144    1
    84   145   146    2
    85    95    94   ar
    86   144   147    1
    87   144   143    1
    88   175   177   ar
    89   107   108    1
    90   154   153    1
    91   184   186   ar
    92   184   185   ar
    93   153   151   ar
    94     6     9    1
    95    90    91    1
    96    90    89    1
    97    90    93    1
    98    91    92    2
    99   186   188   ar
   100   148   147    1
   101   148   149   ar
   102   177   178    1
   103   100    99    1
   104   137   138    1
   105    99    98   ar
   106     9    10    1
   107   109   108    1
   108   185   187   ar
   109    94    93    1
   110    94    96   ar
   111   151   149   ar
   112   188   189   ar
   113    80    79    2
   114   138   139    1
   115    98    96   ar
   116    79    78    1
   117   187   189   ar
   118   142   140    1
   119    61    60    1
   120    73    72    2
   121   139   140    2
   122   140   141    1
   123    78    77    1
   124    78    81    1
   125    72    71    1
   126    60    57    1
   127    81    82    1
   128    75    74    1
   129    84    82   ar
   130    84    86   ar
   131    74    71    1
   132    74    76    1
   133    71    70    1
   134    57    56    1
   135    57    58    1
   136    82    83   ar
   137    68    67    2
   138    86    87   ar
   139    56    49   am
   140    40    38    1
   141    39    38    1
   142    47    48    1
   143    49    50    2
   144    49    48    1
   145    59    58    2
   146    69    67   am
   147    38    35    1
   148    67    66    1
   149    83    85   ar
   150    48    51    1
   151    87    85   ar
   152    87    88    1
   153    22    21    1
   154    66    63    1
   155    35    34    1
   156    35    36    1
   157    63    62    1
   158    63    64    1
   159    51    52    1
   160    21    19   ar
   161    21    20   ar
   162    45    46    1
   163    45    42    1
   164    41    36   am
   165    41    42    1
   166    53    52    1
   167    53    54    1
   168    19    17   ar
   169    55    54    1
   170    36    37    2
   171    26    25    2
   172    20    18   ar
   173    42    43    1
   174    65    64    2
   175    17    16   ar
   176    25    24    1
   177    18    16   ar
   178    16    15    1
   179    27    24    1
   180    27    28    1
   181    43    44    2
   182    23    24    1
   183    33    31    1
   184    29    28    1
   185    29    30    1
   186    15    12    1
   187    31    30    2
   188    31    32    1
   189    12    13    1
   190    12    11    1
   191    13    14    2
