@<TRIPOS>MOLECULE
tmp/5df8B00.pdb
 212 204 0 0 0
SMALL
GASTEIGER

@<TRIPOS>ATOM
      1  N         30.0550   16.5230  -10.5600 N.3   220  GLY220     -0.1210
      2  CA        29.2520   16.2080  -11.7450 C.3   220  GLY220      0.1956
      3  C         28.5360   17.4270  -12.3190 C.2   220  GLY220      0.2612
      4  O         29.1020   18.5220  -12.3770 O.2   220  GLY220     -0.2717
      5  N         27.2770   17.2440  -12.7050 N.am  221  SER221     -0.1952
      6  CA        26.5160   18.3030  -13.3770 C.3   221  SER221      0.1924
      7  C         26.2600   19.5400  -12.5310 C.2   221  SER221      0.2314
      8  O         25.8860   20.5870  -13.0650 O.2   221  SER221     -0.2863
      9  CB        25.1810   17.7620  -13.8550 C.3   221  SER221      0.2116
     10  OG        25.4100   16.8070  -14.8550 O.3   221  SER221     -0.2180
     11  N         27.7910   22.7460  -13.5820 N.3   224  LYS224     -0.1245
     12  CA        27.3430   23.3220  -14.8560 C.3   224  LYS224      0.1561
     13  C         26.9100   24.7970  -14.7600 C.2   224  LYS224      0.2260
     14  O         27.2730   25.5840  -15.6230 O.2   224  LYS224     -0.2867
     15  CB        26.2580   22.4590  -15.5150 C.3   224  LYS224      0.0271
     16  CG        26.8140   21.2400  -16.2290 C.3   224  LYS224      0.0035
     17  CD        25.7150   20.3040  -16.7190 C.3   224  LYS224      0.0206
     18  CE        26.3260   19.0250  -17.2710 C.3   224  LYS224      0.1093
     19  NZ        25.3630   18.1770  -18.0300 N.3   224  LYS224     -0.1314
     20  N         38.5250    9.7900  -26.6250 N.3   255  TYR255     -0.1227
     21  CA        37.4940    9.9210  -25.6030 C.3   255  TYR255      0.1736
     22  C         36.2010   10.4750  -26.2070 C.2   255  TYR255      0.2596
     23  O         36.2460   11.3840  -27.0480 O.2   255  TYR255     -0.2718
     24  CB        38.0170   10.8180  -24.4740 C.3   255  TYR255      0.0548
     25  CG        36.9890   11.2450  -23.4480 C.ar  255  TYR255     -0.0200
     26  CD1       36.3540   10.3070  -22.6250 C.ar  255  TYR255     -0.0009
     27  CD2       36.6680   12.5910  -23.2860 C.ar  255  TYR255     -0.0009
     28  CE1       35.4180   10.7020  -21.6810 C.ar  255  TYR255      0.0417
     29  CE2       35.7360   12.9960  -22.3450 C.ar  255  TYR255      0.0417
     30  CZ        35.1170   12.0500  -21.5480 C.ar  255  TYR255      0.1957
     31  OH        34.1950   12.4600  -20.6200 O.3   255  TYR255     -0.2866
     32  N         35.0620    9.9160  -25.7890 N.am  256  THR256     -0.1953
     33  CA        33.7450   10.3820  -26.2470 C.3   256  THR256      0.1897
     34  C         32.9130   10.9990  -25.1170 C.2   256  THR256      0.2313
     35  O         32.6320   10.3530  -24.1080 O.2   256  THR256     -0.2863
     36  CB        32.9030    9.2640  -26.9180 C.3   256  THR256      0.1794
     37  OG1       32.3990    8.3710  -25.9220 O.3   256  THR256     -0.2208
     38  CG2       33.7130    8.4720  -27.9140 C.3   256  THR256      0.0378
     39  N         29.4600   11.8660  -23.7830 N.3   258  ARG258     -0.1245
     40  CA        28.1390   11.2910  -24.0210 C.3   258  ARG258      0.1563
     41  C         27.0430   11.9880  -23.2180 C.2   258  ARG258      0.2260
     42  O         27.2420   12.3350  -22.0480 O.2   258  ARG258     -0.2867
     43  CB        28.1330    9.7930  -23.7030 C.3   258  ARG258      0.0307
     44  CG        29.0970    8.9590  -24.5320 C.3   258  ARG258      0.0489
     45  CD        28.8400    7.4710  -24.3450 C.3   258  ARG258      0.2205
     46  NE        29.5440    6.6570  -25.3370 N.pl3 258  ARG258     -0.0865
     47  CZ        30.7770    6.1810  -25.1900 C.cat 258  ARG258      0.5346
     48  NH1       31.3210    5.4530  -26.1570 N.pl3 258  ARG258      0.1354
     49  NH2       31.4780    6.4390  -24.0900 N.pl3 258  ARG258      0.1354
     50  N         23.1600   11.6040  -21.6040 N.3   260  VAL260     -0.1231
     51  CA        22.2680   10.5500  -21.1000 C.3   260  VAL260      0.1692
     52  C         20.8680   10.6810  -21.6970 C.2   260  VAL260      0.2592
     53  O         20.3070    9.7010  -22.1920 O.2   260  VAL260     -0.2718
     54  CB        22.2250   10.5260  -19.5540 C.3   260  VAL260      0.0266
     55  CG1       21.0560    9.6980  -19.0420 C.3   260  VAL260      0.0020
     56  CG2       23.5340    9.9810  -19.0090 C.3   260  VAL260      0.0020
     57  N         20.3160   11.8920  -21.6430 N.am  261  SER261     -0.1952
     58  CA        19.0580   12.2060  -22.3180 C.3   261  SER261      0.1924
     59  C         19.3250   12.7110  -23.7380 C.2   261  SER261      0.2314
     60  O         19.6160   13.8940  -23.9490 O.2   261  SER261     -0.2863
     61  CB        18.2470   13.2280  -21.5110 C.3   261  SER261      0.2116
     62  OG        19.0760   14.2550  -20.9810 O.3   261  SER261     -0.2180
     63  N         18.1350   19.8970  -19.2610 N.3   275  LYS275     -0.1231
     64  CA        18.3660   18.5310  -19.7120 C.3   275  LYS275      0.1693
     65  C         19.7060   17.9840  -19.2280 C.2   275  LYS275      0.2592
     66  O         20.0020   16.7890  -19.3800 O.2   275  LYS275     -0.2718
     67  CB        18.2620   18.4580  -21.2400 C.3   275  LYS275      0.0285
     68  CG        16.8500   18.6790  -21.7690 C.3   275  LYS275      0.0035
     69  CD        15.8890   17.6350  -21.2050 C.3   275  LYS275      0.0206
     70  CE        14.4360   18.0590  -21.3460 C.3   275  LYS275      0.1093
     71  NZ        13.9580   17.9160  -22.7520 N.3   275  LYS275     -0.1314
     72  N         20.5010   18.8700  -18.6320 N.am  276  SER276     -0.1952
     73  CA        21.8330   18.5440  -18.1530 C.3   276  SER276      0.1924
     74  C         22.6370   17.8580  -19.2620 C.2   276  SER276      0.2314
     75  O         22.9970   16.6750  -19.1630 O.2   276  SER276     -0.2863
     76  CB        21.7580   17.6840  -16.8900 C.3   276  SER276      0.2116
     77  OG        22.9700   17.7860  -16.1780 O.3   276  SER276     -0.2180
     78  N         25.8390   17.2150  -21.3250 N.3   278  ASN278     -0.1240
     79  CA        27.2950   17.2320  -21.3010 C.3   278  ASN278      0.1653
     80  C         27.8480   17.7700  -22.6150 C.2   278  ASN278      0.2266
     81  O         28.7550   18.6090  -22.6220 O.2   278  ASN278     -0.2867
     82  CB        27.8530   15.8250  -21.0620 C.3   278  ASN278      0.1155
     83  CG        27.6630   15.3360  -19.6330 C.2   278  ASN278      0.2627
     84  OD1       27.3810   16.1080  -18.7090 O.2   278  ASN278     -0.2716
     85  ND2       27.8300   14.0410  -19.4460 N.am  278  ASN278     -0.0877
     86  N         35.7030   17.8690  -19.4500 N.3   331  THR331     -0.1218
     87  CA        35.3900   17.1880  -18.1890 C.3   331  THR331      0.1862
     88  C         35.3580   18.1070  -16.9670 C.2   331  THR331      0.2287
     89  O         34.5720   17.8670  -16.0470 O.2   331  THR331     -0.2866
     90  CB        36.3140   15.9850  -17.9110 C.3   331  THR331      0.1770
     91  OG1       37.6610   16.4410  -17.7190 O.3   331  THR331     -0.2211
     92  CG2       36.2460   14.9770  -19.0580 C.3   331  THR331      0.0375
     93  N         31.8430   20.0180  -17.0530 N.3   334  TYR334     -0.1241
     94  CA        30.7140   19.2550  -16.5360 C.3   334  TYR334      0.1605
     95  C         31.0220   18.3800  -15.3120 C.2   334  TYR334      0.2264
     96  O         30.3400   17.3780  -15.0760 O.2   334  TYR334     -0.2867
     97  CB        29.9600   18.4980  -17.6320 C.3   334  TYR334      0.0534
     98  CG        30.7650   17.5320  -18.4660 C.ar  334  TYR334     -0.0201
     99  CD1       31.2630   17.9040  -19.7130 C.ar  334  TYR334     -0.0009
    100  CD2       30.9810   16.2260  -18.0330 C.ar  334  TYR334     -0.0009
    101  CE1       31.9820   17.0060  -20.4880 C.ar  334  TYR334      0.0417
    102  CE2       31.6930   15.3190  -18.7970 C.ar  334  TYR334      0.0417
    103  CZ        32.1890   15.7100  -20.0240 C.ar  334  TYR334      0.1957
    104  OH        32.9010   14.8050  -20.7740 O.3   334  TYR334     -0.2866
    105  N         33.8230   16.5970  -13.7270 N.3   336  TYR336     -0.1227
    106  CA        34.7680   15.5290  -13.3800 C.3   336  TYR336      0.1736
    107  C         36.2050   16.0120  -13.4750 C.2   336  TYR336      0.2596
    108  O         36.5020   16.9550  -14.2030 O.2   336  TYR336     -0.2718
    109  CB        34.5260   14.2750  -14.2180 C.3   336  TYR336      0.0548
    110  CG        33.0800   13.8720  -14.1930 C.ar  336  TYR336     -0.0200
    111  CD1       32.5720   13.0740  -13.1690 C.ar  336  TYR336     -0.0009
    112  CD2       32.2030   14.3330  -15.1670 C.ar  336  TYR336     -0.0009
    113  CE1       31.2260   12.7260  -13.1380 C.ar  336  TYR336      0.0417
    114  CE2       30.8680   13.9970  -15.1430 C.ar  336  TYR336      0.0417
    115  CZ        30.3850   13.1960  -14.1300 C.ar  336  TYR336      0.1957
    116  OH        29.0550   12.8710  -14.1240 O.3   336  TYR336     -0.2866
    117  N         37.0880   15.3810  -12.7140 N.am  337  GLY337     -0.1957
    118  CA        38.4930   15.7740  -12.7100 C.3   337  GLY337      0.1869
    119  C         38.8060   16.8330  -11.6700 C.2   337  GLY337      0.2309
    120  O         39.9650   17.2140  -11.5080 O.2   337  GLY337     -0.2863
    121  N         19.9860   22.5600   -9.2610 N.3   411  LYS411     -0.1231
    122  CA        20.5600   21.6870  -10.2900 C.3   411  LYS411      0.1693
    123  C         20.7860   20.2750   -9.7270 C.2   411  LYS411      0.2593
    124  O         21.3170   20.1110   -8.6200 O.2   411  LYS411     -0.2718
    125  CB        21.8840   22.2810  -10.7990 C.3   411  LYS411      0.0285
    126  CG        22.6150   21.4680  -11.8610 C.3   411  LYS411      0.0035
    127  CD        22.0700   21.7040  -13.2640 C.3   411  LYS411      0.0206
    128  CE        22.6020   20.6840  -14.2690 C.3   411  LYS411      0.1093
    129  NZ        21.9560   19.3560  -14.0870 N.3   411  LYS411     -0.1314
    130  N         20.3870   19.2600  -10.4820 N.am  412  SER412     -0.1938
    131  CA        20.7170   17.8910  -10.1090 C.3   412  SER412      0.2055
    132  C         22.0830   17.4940  -10.6570 C.2   412  SER412      0.2644
    133  O         22.6970   18.2290  -11.4320 O.2   412  SER412     -0.2714
    134  CB        19.6470   16.9070  -10.5830 C.3   412  SER412      0.2130
    135  OG        19.2350   17.2320  -11.8930 O.3   412  SER412     -0.2179
    136  N         22.5540   16.3310  -10.2150 N.am  413  GLY413     -0.1939
    137  CA        23.8380   15.7690  -10.6190 C.3   413  GLY413      0.2014
    138  C         23.7920   14.2740  -10.3760 C.2   413  GLY413      0.2639
    139  O         23.2030   13.8150   -9.3980 O.2   413  GLY413     -0.2714
    140  N         24.3840   13.5150  -11.2840 N.am  414  THR414     -0.1950
    141  CA        24.4560   12.0750  -11.1640 C.3   414  THR414      0.1897
    142  C         25.8410   11.6840  -11.6000 C.2   414  THR414      0.2313
    143  O         26.1740   11.8320  -12.7670 O.2   414  THR414     -0.2863
    144  CB        23.4200   11.4050  -12.0760 C.3   414  THR414      0.1794
    145  OG1       22.1200   11.8440  -11.6870 O.3   414  THR414     -0.2208
    146  CG2       23.4910    9.8680  -11.9900 C.3   414  THR414      0.0378
    147  N         28.9600    8.7310  -11.6990 N.3   416  ARG416     -0.1245
    148  CA        29.5230    7.4040  -11.4820 C.3   416  ARG416      0.1563
    149  C         30.5980    7.5110  -10.4130 C.2   416  ARG416      0.2260
    150  O         31.3560    8.4960  -10.3470 O.2   416  ARG416     -0.2867
    151  CB        30.1650    6.8680  -12.7550 C.3   416  ARG416      0.0307
    152  CG        29.2260    6.6640  -13.9280 C.3   416  ARG416      0.0489
    153  CD        30.0220    6.1780  -15.1260 C.3   416  ARG416      0.2205
    154  NE        29.1660    5.7390  -16.2230 N.pl3 416  ARG416     -0.0865
    155  CZ        28.4030    4.6480  -16.1980 C.cat 416  ARG416      0.5346
    156  NH1       27.6640    4.3360  -17.2550 N.pl3 416  ARG416      0.1354
    157  NH2       28.3670    3.8740  -15.1170 N.pl3 416  ARG416      0.1354
    158  N         35.9280    4.3930  -13.7840 N.3   425  TYR425     -0.1241
    159  CA        34.6390    4.4940  -13.1010 C.3   425  TYR425      0.1605
    160  C         33.8420    3.2010  -13.1100 C.2   425  TYR425      0.2264
    161  O         34.0020    2.3580  -13.9950 O.2   425  TYR425     -0.2867
    162  CB        33.8100    5.6360  -13.6980 C.3   425  TYR425      0.0534
    163  CG        34.4730    6.9790  -13.5150 C.ar  425  TYR425     -0.0201
    164  CD1       35.4630    7.4190  -14.4000 C.ar  425  TYR425     -0.0009
    165  CD2       34.1360    7.7960  -12.4500 C.ar  425  TYR425     -0.0009
    166  CE1       36.0910    8.6390  -14.2240 C.ar  425  TYR425      0.0417
    167  CE2       34.7530    9.0220  -12.2720 C.ar  425  TYR425      0.0417
    168  CZ        35.7270    9.4400  -13.1590 C.ar  425  TYR425      0.1957
    169  OH        36.3350   10.6630  -12.9750 O.3   425  TYR425     -0.2866
    170  N         26.6490    4.7980   -8.1760 N.3   430  TYR430     -0.1241
    171  CA        26.4370    6.2130   -8.4660 C.3   430  TYR430      0.1605
    172  C         26.3700    7.0710   -7.2170 C.2   430  TYR430      0.2264
    173  O         26.1040    6.5870   -6.1220 O.2   430  TYR430     -0.2867
    174  CB        25.1440    6.4040   -9.2680 C.3   430  TYR430      0.0534
    175  CG        25.1590    5.7510  -10.6270 C.ar  430  TYR430     -0.0201
    176  CD1       25.6750    6.4200  -11.7340 C.ar  430  TYR430     -0.0009
    177  CD2       24.6460    4.4680  -10.8060 C.ar  430  TYR430     -0.0009
    178  CE1       25.6850    5.8250  -12.9840 C.ar  430  TYR430      0.0417
    179  CE2       24.6490    3.8640  -12.0480 C.ar  430  TYR430      0.0417
    180  CZ        25.1720    4.5460  -13.1310 C.ar  430  TYR430      0.1957
    181  OH        25.1860    3.9450  -14.3650 O.3   430  TYR430     -0.2866
    182  N         18.6150    6.1500   -9.4040 N.3   459  TYR459     -0.1227
    183  CA        19.8790    6.7240   -8.9410 C.3   459  TYR459      0.1736
    184  C         20.1550    8.1490   -9.3840 C.2   459  TYR459      0.2595
    185  O         21.1420    8.7440   -8.9640 O.2   459  TYR459     -0.2718
    186  CB        21.0590    5.8020   -9.3130 C.3   459  TYR459      0.0548
    187  CG        21.2240    5.6160  -10.8030 C.ar  459  TYR459     -0.0200
    188  CD1       21.9800    6.5230  -11.5620 C.ar  459  TYR459     -0.0009
    189  CD2       20.5970    4.5580  -11.4690 C.ar  459  TYR459     -0.0009
    190  CE1       22.1160    6.3670  -12.9330 C.ar  459  TYR459      0.0417
    191  CE2       20.7330    4.3970  -12.8400 C.ar  459  TYR459      0.0417
    192  CZ        21.4920    5.3010  -13.5620 C.ar  459  TYR459      0.1957
    193  OH        21.6360    5.1460  -14.9170 O.3   459  TYR459     -0.2866
    194  N         19.2970    8.7070  -10.2270 N.am  460  PHE460     -0.1962
    195  CA        19.5170   10.0590  -10.7370 C.3   460  PHE460      0.1771
    196  C         19.3090   11.1170   -9.6490 C.2   460  PHE460      0.2620
    197  O         18.3740   11.0180   -8.8740 O.2   460  PHE460     -0.2715
    198  CB        18.6160   10.3310  -11.9510 C.3   460  PHE460      0.0574
    199  CG        19.1410    9.7390  -13.2330 C.ar  460  PHE460     -0.0200
    200  CD1       18.6830    8.4960  -13.6860 C.ar  460  PHE460     -0.0042
    201  CD2       20.1140   10.4080  -13.9720 C.ar  460  PHE460     -0.0042
    202  CE1       19.1850    7.9390  -14.8570 C.ar  460  PHE460     -0.0003
    203  CE2       20.6150    9.8620  -15.1460 C.ar  460  PHE460     -0.0003
    204  CZ        20.1530    8.6260  -15.5880 C.ar  460  PHE460     -0.0000
    205  N         20.1810   12.1190   -9.5950 N.am  461  GLY461     -0.1940
    206  CA        20.0520   13.2120   -8.6180 C.3   461  GLY461      0.2014
    207  C         18.6270   13.7250   -8.4610 C.2   461  GLY461      0.2639
    208  O         18.1480   13.9080   -7.3500 O.2   461  GLY461     -0.2714
    209  N         17.9310   13.9070   -9.5820 N.am  462  GLY462     -0.1954
    210  CA        16.5640   14.4220   -9.5940 C.3   462  GLY462      0.1869
    211  C         15.4730   13.4610   -9.1610 C.2   462  GLY462      0.2309
    212  O         14.3320   13.8790   -8.9390 O.2   462  GLY462     -0.2863
@<TRIPOS>BOND
     1    38    36    1
     2    23    22    2
     3    36    33    1
     4    36    37    1
     5    20    21    1
     6    33    32    1
     7    33    34    1
     8    22    32   am
     9    22    21    1
    10    48    47    1
    11    21    24    1
    12    46    47    2
    13    46    45    1
    14    47    49    1
    15    34    35    2
    16    44    45    1
    17    44    43    1
    18    24    25    1
    19    40    39    1
    20    40    43    1
    21    40    41    1
    22    60    59    2
    23    59    58    1
    24    25    27   ar
    25    25    26   ar
    26    27    29   ar
    27    41    42    2
    28    71    70    1
    29    26    28   ar
    30    81    80    2
    31    80    79    1
    32    29    30   ar
    33    58    57    1
    34    58    61    1
    35    53    52    2
    36    68    67    1
    37    68    69    1
    38    52    57   am
    39    52    51    1
    40    28    30   ar
    41    50    51    1
    42    30    31    1
    43    61    62    1
    44    70    69    1
    45    78    79    1
    46    79    82    1
    47    67    64    1
    48    51    54    1
    49    82    83    1
    50   104   103    1
    51   101   103   ar
    52   101    99   ar
    53   103   102   ar
    54    99    98   ar
    55    64    63    1
    56    64    65    1
    57    83    85   am
    58    83    84    2
    59    54    55    1
    60    54    56    1
    61    86    87    1
    62    66    65    2
    63    74    75    2
    64    74    73    1
    65    65    72   am
    66    92    90    1
    67   102   100   ar
    68    72    73    1
    69    98   100   ar
    70    98    97    1
    71    87    90    1
    72    87    88    1
    73    73    76    1
    74    19    18    1
    75    90    91    1
    76    97    94    1
    77    18    17    1
    78   156   155    1
    79    93    94    1
    80    88    89    2
    81    76    77    1
    82    17    16    1
    83    94    95    1
    84    16    15    1
    85   154   155    2
    86   154   153    1
    87   155   157    1
    88    14    13    2
    89   204   203   ar
    90   204   202   ar
    91    15    12    1
    92    95    96    2
    93   112   114   ar
    94   112   110   ar
    95   203   201   ar
    96   114   115   ar
    97   153   152    1
    98   193   192    1
    99   202   200   ar
   100    12    13    1
   101    12    11    1
   102    10     9    1
   103   164   166   ar
   104   164   163   ar
   105   181   180    1
   106   128   129    1
   107   128   127    1
   108   166   168   ar
   109   109   110    1
   110   109   106    1
   111   108   107    2
   112   110   111   ar
   113   115   116    1
   114   115   113   ar
   115   161   160    2
   116   201   199   ar
   117   152   151    1
   118     9     6    1
   119   158   159    1
   120   105   106    1
   121   162   163    1
   122   162   159    1
   123   200   199   ar
   124   192   190   ar
   125   192   191   ar
   126   163   165   ar
   127   107   106    1
   128   107   117   am
   129     6     5    1
   130     6     7    1
   131   127   126    1
   132   199   198    1
   133   111   113   ar
   134   168   169    1
   135   168   167   ar
   136   180   178   ar
   137   180   179   ar
   138   160   159    1
   139     8     7    2
   140   178   176   ar
   141   190   188   ar
   142   191   189   ar
   143   143   142    2
   144   151   148    1
   145   117   118    1
   146   118   119    1
   147     5     3   am
   148   165   167   ar
   149     4     3    2
   150     3     2    1
   151   144   146    1
   152   144   145    1
   153   144   141    1
   154   179   177   ar
   155   198   195    1
   156   135   134    1
   157   126   125    1
   158     2     1    1
   159   176   175   ar
   160   147   148    1
   161   119   120    2
   162   142   141    1
   163   188   187   ar
   164   148   149    1
   165   189   187   ar
   166   133   132    2
   167   140   141    1
   168   140   138   am
   169   177   175   ar
   170   187   186    1
   171   125   122    1
   172   195   194    1
   173   195   196    1
   174   132   136   am
   175   132   131    1
   176   175   174    1
   177   137   138    1
   178   137   136    1
   179   134   131    1
   180   130   131    1
   181   130   123   am
   182   149   150    2
   183   138   139    2
   184   122   123    1
   185   122   121    1
   186   194   184   am
   187   123   124    2
   188   196   205   am
   189   196   197    2
   190   205   206    1
   191   210   209    1
   192   210   211    1
   193   209   207   am
   194   182   183    1
   195   184   185    2
   196   184   183    1
   197   186   183    1
   198   174   171    1
   199   211   212    2
   200   206   207    1
   201   171   170    1
   202   171   172    1
   203   207   208    2
   204   172   173    2
