@<TRIPOS>MOLECULE
tmp/5dfdA00.pdb
 155 152 0 0 0
SMALL
GASTEIGER

@<TRIPOS>ATOM
      1  N         -6.8210  -10.2380    4.3230 N.3    24  PHE24      -0.1228
      2  CA        -7.2480   -8.8870    4.0050 C.3    24  PHE24       0.1721
      3  C         -7.9220   -8.7160    2.6400 C.2    24  PHE24       0.2437
      4  O         -8.8170   -7.8820    2.5070 O.2    24  PHE24      -0.2733
      5  CB        -6.1080   -7.8680    4.2150 C.3    24  PHE24       0.0547
      6  CG        -5.0920   -7.8660    3.1200 C.ar   24  PHE24      -0.0202
      7  CD1       -5.2860   -7.1170    1.9580 C.ar   24  PHE24      -0.0042
      8  CD2       -3.9410   -8.6400    3.2200 C.ar   24  PHE24      -0.0042
      9  CE1       -4.3550   -7.1510    0.9320 C.ar   24  PHE24      -0.0003
     10  CE2       -3.0100   -8.6590    2.1980 C.ar   24  PHE24      -0.0003
     11  CZ        -3.2170   -7.9180    1.0540 C.ar   24  PHE24      -0.0000
     12  N         -7.5270   -9.4840    1.6000 N.am   25  PRO25      -0.2718
     13  CA        -8.2470   -9.2750    0.3250 C.3    25  PRO25       0.1535
     14  C         -9.7300   -9.6010    0.3920 C.2    25  PRO25       0.2598
     15  O        -10.4960   -9.1550   -0.4550 O.2    25  PRO25      -0.2715
     16  CB        -7.5590  -10.2420   -0.6460 C.3    25  PRO25       0.0310
     17  CG        -6.2130  -10.4610   -0.0420 C.3    25  PRO25       0.0237
     18  CD        -6.4390  -10.4690    1.4490 C.3    25  PRO25       0.0939
     19  N        -10.1280  -10.3890    1.3890 N.am   26  PHE26      -0.1974
     20  CA       -11.4920  -10.9220    1.5020 C.3    26  PHE26       0.1639
     21  C        -12.3600  -10.1850    2.4990 C.2    26  PHE26       0.2290
     22  O        -13.5040  -10.5730    2.7130 O.2    26  PHE26      -0.2864
     23  CB       -11.3720  -12.4060    1.8650 C.3    26  PHE26       0.0560
     24  CG       -10.4630  -13.1300    0.9400 C.ar   26  PHE26      -0.0200
     25  CD1       -9.1580  -13.4240    1.3070 C.ar   26  PHE26      -0.0042
     26  CD2      -10.8690  -13.4190   -0.3620 C.ar   26  PHE26      -0.0042
     27  CE1       -8.2790  -14.0320    0.4210 C.ar   26  PHE26      -0.0003
     28  CE2       -9.9870  -14.0050   -1.2470 C.ar   26  PHE26      -0.0003
     29  CZ        -8.6970  -14.3050   -0.8540 C.ar   26  PHE26      -0.0000
     30  N        -13.6780   -7.0490    2.3600 N.3    28  LYS28      -0.1231
     31  CA       -14.7490   -6.2250    1.7920 C.3    28  LYS28       0.1678
     32  C        -15.0250   -6.6460    0.3630 C.2    28  LYS28       0.2434
     33  O        -14.1940   -7.3050   -0.2470 O.2    28  LYS28      -0.2733
     34  CB       -14.3130   -4.7520    1.8100 C.3    28  LYS28       0.0284
     35  CG       -14.1220   -4.2000    3.2090 C.3    28  LYS28       0.0035
     36  CD       -15.4550   -3.9220    3.8860 C.3    28  LYS28       0.0206
     37  CE       -15.4230   -4.0580    5.4050 C.3    28  LYS28       0.1093
     38  NZ       -14.5190   -3.0950    6.0670 N.3    28  LYS28      -0.1314
     39  N        -16.1730   -6.2380   -0.2080 N.am   29  PRO29      -0.2718
     40  CA       -16.4270   -6.6110   -1.6080 C.3    29  PRO29       0.1535
     41  C        -15.2880   -6.1550   -2.5160 C.2    29  PRO29       0.2598
     42  O        -14.6940   -5.0870   -2.3160 O.2    29  PRO29      -0.2715
     43  CB       -17.7250   -5.8700   -1.9280 C.3    29  PRO29       0.0310
     44  CG       -18.4010   -5.7310   -0.6100 C.3    29  PRO29       0.0237
     45  CD       -17.2990   -5.4900    0.3750 C.3    29  PRO29       0.0939
     46  N        -14.9710   -6.9570   -3.5210 N.am   30  VAL30      -0.1964
     47  CA       -14.0480   -6.5340   -4.5570 C.3    30  VAL30       0.1727
     48  C        -14.6010   -5.2550   -5.1850 C.2    30  VAL30       0.2616
     49  O        -15.7620   -5.2160   -5.6260 O.2    30  VAL30      -0.2715
     50  CB       -13.8870   -7.6250   -5.6470 C.3    30  VAL30       0.0290
     51  CG1      -13.0900   -7.0860   -6.8190 C.3    30  VAL30       0.0023
     52  CG2      -13.2540   -8.8840   -5.0760 C.3    30  VAL30       0.0023
     53  N        -13.7760   -4.2010   -5.1770 N.am   31  ASP31      -0.1971
     54  CA       -14.1350   -2.9430   -5.8190 C.3    31  ASP31       0.1709
     55  C        -13.4780   -2.9640   -7.1920 C.2    31  ASP31       0.2293
     56  O        -12.3250   -2.5760   -7.3700 O.2    31  ASP31      -0.2864
     57  CB       -13.6770   -1.7390   -5.0000 C.3    31  ASP31       0.1436
     58  CG       -14.1920   -0.4340   -5.5650 C.2    31  ASP31       0.3671
     59  OD1      -14.5450   -0.3760   -6.7700 O.co2  31  ASP31      -0.2456
     60  OD2      -14.2500    0.5440   -4.7750 O.co2  31  ASP31      -0.2456
     61  N         -9.9100   -1.2580   -8.6360 N.3    35  LEU35      -0.1245
     62  CA        -8.7550   -2.0890   -8.9330 C.3    35  LEU35       0.1561
     63  C         -8.4890   -2.2170  -10.4420 C.2    35  LEU35       0.2260
     64  O         -7.5680   -2.9260  -10.8350 O.2    35  LEU35      -0.2867
     65  CB        -8.9400   -3.4860   -8.3050 C.3    35  LEU35       0.0270
     66  CG        -8.9180   -3.5560   -6.7720 C.3    35  LEU35       0.0019
     67  CD1       -9.2980   -4.9420   -6.2800 C.3    35  LEU35       0.0001
     68  CD2       -7.5500   -3.1520   -6.2420 C.3    35  LEU35       0.0001
     69  N        -10.4610   -3.7240  -12.6350 N.3    37  LEU37      -0.1245
     70  CA       -10.8870   -5.0710  -13.0340 C.3    37  LEU37       0.1561
     71  C        -12.2200   -4.9500  -13.7760 C.2    37  LEU37       0.2260
     72  O        -13.2820   -5.3360  -13.3070 O.2    37  LEU37      -0.2867
     73  CB       -11.0260   -5.9730  -11.8040 C.3    37  LEU37       0.0270
     74  CG        -9.8330   -5.9520  -10.8590 C.3    37  LEU37       0.0019
     75  CD1      -10.1250   -6.8750   -9.6750 C.3    37  LEU37       0.0001
     76  CD2       -8.5630   -6.3380  -11.5810 C.3    37  LEU37       0.0001
     77  N        -14.4730   -7.9980  -14.1240 N.3    40  TYR40      -0.1241
     78  CA       -14.7510   -8.8020  -12.9380 C.3    40  TYR40       0.1605
     79  C        -16.2060   -9.2430  -12.8850 C.2    40  TYR40       0.2264
     80  O        -16.5110  -10.4130  -12.6310 O.2    40  TYR40      -0.2867
     81  CB       -14.4150   -8.0200  -11.6580 C.3    40  TYR40       0.0534
     82  CG       -14.4820   -8.8920  -10.4060 C.ar   40  TYR40      -0.0201
     83  CD1      -13.4450   -9.7380  -10.1000 C.ar   40  TYR40      -0.0009
     84  CD2      -15.5790   -8.8890   -9.5740 C.ar   40  TYR40      -0.0009
     85  CE1      -13.4840  -10.5760   -8.9840 C.ar   40  TYR40       0.0417
     86  CE2      -15.6400   -9.7240   -8.4530 C.ar   40  TYR40       0.0417
     87  CZ       -14.5870  -10.5570   -8.1780 C.ar   40  TYR40       0.1957
     88  OH       -14.6540  -11.4150   -7.1040 O.3    40  TYR40      -0.2866
     89  N        -16.9330  -17.2730   -1.9590 N.3    75  MET75      -0.1245
     90  CA       -15.9160  -16.2420   -1.9150 C.3    75  MET75       0.1570
     91  C        -14.5680  -16.7480   -2.4350 C.2    75  MET75       0.2261
     92  O        -13.9220  -16.1170   -3.2960 O.2    75  MET75      -0.2867
     93  CB       -15.8270  -15.7280   -0.4790 C.3    75  MET75       0.0387
     94  CG       -14.7570  -14.6960   -0.2480 C.3    75  MET75       0.0595
     95  SD       -14.6430  -14.3120    1.5100 S.3    75  MET75      -0.1393
     96  CE       -13.6790  -15.6950    2.0700 C.3    75  MET75       0.0692
     97  N        -12.4370  -16.1170   -6.3260 N.3    79  CYS79      -0.1235
     98  CA       -11.0160  -15.7960   -6.4460 C.3    79  CYS79       0.1677
     99  C        -10.2990  -16.7680   -7.3950 C.2    79  CYS79       0.2270
    100  O         -9.5160  -16.3610   -8.2480 O.2    79  CYS79      -0.2867
    101  CB       -10.3950  -15.7810   -5.0520 C.3    79  CYS79       0.0956
    102  SG        -8.7040  -15.1910   -4.9880 S.3    79  CYS79      -0.0801
    103  N        -11.4730  -16.0340  -11.1270 N.3    82  TYR82      -0.1227
    104  CA       -11.0630  -14.7840  -11.7750 C.3    82  TYR82       0.1736
    105  C         -9.5570  -14.7260  -12.0310 C.2    82  TYR82       0.2595
    106  O         -9.1100  -14.2110  -13.0680 O.2    82  TYR82      -0.2718
    107  CB       -11.4990  -13.5780  -10.9210 C.3    82  TYR82       0.0548
    108  CG       -11.1510  -12.2690  -11.6160 C.ar   82  TYR82      -0.0200
    109  CD1      -11.8590  -11.8620  -12.7360 C.ar   82  TYR82      -0.0009
    110  CD2      -10.0770  -11.5220  -11.2110 C.ar   82  TYR82      -0.0009
    111  CE1      -11.5100  -10.7220  -13.4280 C.ar   82  TYR82       0.0417
    112  CE2       -9.7280  -10.3540  -11.8800 C.ar   82  TYR82       0.0417
    113  CZ       -10.4490   -9.9770  -13.0040 C.ar   82  TYR82       0.1957
    114  OH       -10.0630   -8.8370  -13.6880 O.3    82  TYR82      -0.2866
    115  N         -8.7710  -15.2110  -11.0870 N.am   83  ASN83      -0.1974
    116  CA        -7.3120  -15.0210  -11.1100 C.3    83  ASN83       0.1688
    117  C         -6.5630  -16.2360  -11.6150 C.2    83  ASN83       0.2292
    118  O         -6.9730  -17.3630  -11.3550 O.2    83  ASN83      -0.2864
    119  CB        -6.8380  -14.7150   -9.7010 C.3    83  ASN83       0.1181
    120  CG        -7.3840  -13.4090   -9.2020 C.2    83  ASN83       0.2629
    121  OD1       -6.9250  -12.3410   -9.6300 O.2    83  ASN83      -0.2716
    122  ND2       -8.4050  -13.4610   -8.3310 N.am   83  ASN83      -0.0877
    123  N         -1.2550  -16.5320   -8.9790 N.3    87  HIS87      -0.1226
    124  CA        -1.3720  -15.1540   -8.4970 C.3    87  HIS87       0.1752
    125  C         -1.2450  -15.1160   -6.9680 C.2    87  HIS87       0.2596
    126  O         -1.7020  -16.0230   -6.2790 O.2    87  HIS87      -0.2718
    127  CB        -2.7220  -14.5810   -8.9660 C.3    87  HIS87       0.0759
    128  CG        -2.8350  -13.0900   -8.8650 C.ar   87  HIS87       0.0818
    129  ND1       -2.9190  -12.4300   -7.6600 N.ar   87  HIS87      -0.2268
    130  CD2       -2.9160  -12.1300   -9.8200 C.ar   87  HIS87       0.1154
    131  CE1       -3.0160  -11.1310   -7.8660 C.ar   87  HIS87       0.1986
    132  NE2       -3.0250  -10.9200   -9.1710 N.ar   87  HIS87      -0.2212
    133  N         -0.6170  -14.0700   -6.4300 N.am   88  ASP88      -0.1960
    134  CA        -0.4730  -13.9240   -4.9830 C.3    88  ASP88       0.1840
    135  C         -1.8240  -13.9890   -4.2410 C.2    88  ASP88       0.2621
    136  O         -1.9080  -14.5380   -3.1650 O.2    88  ASP88      -0.2715
    137  CB         0.2120  -12.5920   -4.6360 C.3    88  ASP88       0.1450
    138  CG         1.7090  -12.6000   -4.8950 C.2    88  ASP88       0.3671
    139  OD1        2.2740  -13.6080   -5.3840 O.co2  88  ASP88      -0.2456
    140  OD2        2.3230  -11.5630   -4.5830 O.co2  88  ASP88      -0.2456
    141  N         -2.8780  -13.4220   -4.8090 N.am   89  VAL89      -0.1977
    142  CA        -4.1610  -13.4520   -4.1120 C.3    89  VAL89       0.1596
    143  C         -4.7120  -14.8730   -3.9950 C.2    89  VAL89       0.2287
    144  O         -5.4190  -15.1840   -3.0350 O.2    89  VAL89      -0.2864
    145  CB        -5.2100  -12.4890   -4.7330 C.3    89  VAL89       0.0276
    146  CG1       -5.7340  -12.9800   -6.0730 C.3    89  VAL89       0.0022
    147  CG2       -6.3680  -12.2530   -3.7690 C.3    89  VAL89       0.0022
    148  N         -3.0900  -16.5330   -1.1080 N.3    92  MET92      -0.1245
    149  CA        -3.7370  -16.0810    0.1020 C.3    92  MET92       0.1570
    150  C         -5.0810  -16.7530    0.3220 C.2    92  MET92       0.2261
    151  O         -5.3870  -17.1660    1.4490 O.2    92  MET92      -0.2867
    152  CB        -3.9340  -14.5850    0.0480 C.3    92  MET92       0.0387
    153  CG        -2.6340  -13.7970    0.1030 C.3    92  MET92       0.0595
    154  SD        -2.9100  -12.0180    0.2640 S.3    92  MET92      -0.1393
    155  CE        -1.2620  -11.3850   -0.0480 C.3    92  MET92       0.0692
@<TRIPOS>BOND
     1    77    78    1
     2    71    72    2
     3    71    70    1
     4   114   113    1
     5   111   113   ar
     6   111   109   ar
     7   106   105    2
     8    70    69    1
     9    70    73    1
    10   113   112   ar
    11    78    79    1
    12    78    81    1
    13    79    80    2
    14   109   108   ar
    15   105   104    1
    16   105   115   am
    17   112   110   ar
    18    73    74    1
    19   104   103    1
    20   104   107    1
    21    81    82    1
    22   108   110   ar
    23   108   107    1
    24   117   118    2
    25   117   116    1
    26    76    74    1
    27   116   115    1
    28   116   119    1
    29    74    75    1
    30    64    63    2
    31    63    62    1
    32    82    83   ar
    33    82    84   ar
    34    83    85   ar
    35   130   132   ar
    36   130   128   ar
    37   119   120    1
    38   121   120    2
    39    84    86   ar
    40   120   122   am
    41   132   131   ar
    42    85    87   ar
    43   123   124    1
    44   127   128    1
    45   127   124    1
    46    62    61    1
    47    62    65    1
    48   128   129   ar
    49   124   125    1
    50    86    87   ar
    51    65    66    1
    52   100    99    2
    53    87    88    1
    54   131   129   ar
    55    99    98    1
    56    56    55    2
    57    55    54    1
    58   125   133   am
    59   125   126    2
    60    51    50    1
    61    66    67    1
    62    66    68    1
    63    59    58   ar
    64    98    97    1
    65    98   101    1
    66   133   134    1
    67   146   145    1
    68    54    53    1
    69    54    57    1
    70    50    52    1
    71    50    47    1
    72    49    48    2
    73    58    57    1
    74    58    60   ar
    75   139   138   ar
    76    48    53   am
    77    48    47    1
    78   101   102    1
    79   134   137    1
    80   134   135    1
    81   138   137    1
    82   138   140   ar
    83   141   135   am
    84   141   142    1
    85   145   142    1
    86   145   147    1
    87    47    46    1
    88   135   136    2
    89   142   143    1
    90   143   144    2
    91    46    41   am
    92    92    91    2
    93    41    42    2
    94    41    40    1
    95    91    90    1
    96    89    90    1
    97    43    40    1
    98    43    44    1
    99    90    93    1
   100    40    39    1
   101    28    29   ar
   102    28    26   ar
   103   148   149    1
   104    29    27   ar
   105    16    17    1
   106    16    13    1
   107    44    45    1
   108    93    94    1
   109    15    14    2
   110    26    24   ar
   111    94    95    1
   112    33    32    2
   113    39    32   am
   114    39    45    1
   115   155   154    1
   116    17    18    1
   117   152   149    1
   118   152   153    1
   119   149   150    1
   120   153   154    1
   121   150   151    2
   122    13    14    1
   123    13    12    1
   124    32    31    1
   125    14    19   am
   126    27    25   ar
   127     9    11   ar
   128     9     7   ar
   129    24    25   ar
   130    24    23    1
   131    11    10   ar
   132    19    20    1
   133    18    12    1
   134    20    23    1
   135    20    21    1
   136    95    96    1
   137    12     3   am
   138    31    34    1
   139    31    30    1
   140    34    35    1
   141     7     6   ar
   142    10     8   ar
   143    21    22    2
   144     4     3    2
   145     3     2    1
   146     6     8   ar
   147     6     5    1
   148    35    36    1
   149    36    37    1
   150     2     5    1
   151     2     1    1
   152    37    38    1
