@<TRIPOS>MOLECULE
tmp/5dffA00.pdb
 109 104 0 0 0
SMALL
GASTEIGER

@<TRIPOS>ATOM
      1  N          0.3030  -29.7170    2.8110 N.3   130  VAL130     -0.1245
      2  CA        -1.0250  -29.2840    2.3690 C.3   130  VAL130      0.1561
      3  C         -2.1070  -30.2630    2.8710 C.2   130  VAL130      0.2260
      4  O         -1.9110  -31.4720    2.8460 O.2   130  VAL130     -0.2867
      5  CB        -1.0190  -29.1480    0.8180 C.3   130  VAL130      0.0252
      6  CG1       -2.4320  -28.9130    0.2340 C.3   130  VAL130      0.0019
      7  CG2       -0.0670  -28.0440    0.4050 C.3   130  VAL130      0.0019
      8  N        -10.1260  -28.2630    1.5830 N.3   143  ARG143     -0.1245
      9  CA        -8.8700  -28.2200    0.8510 C.3   143  ARG143      0.1563
     10  C         -8.9280  -27.1210   -0.2230 C.2   143  ARG143      0.2260
     11  O         -7.9700  -26.3700   -0.4000 O.2   143  ARG143     -0.2867
     12  CB        -8.5690  -29.5930    0.2390 C.3   143  ARG143      0.0307
     13  CG        -7.5170  -29.5750   -0.8980 C.3   143  ARG143      0.0489
     14  CD        -6.1240  -29.1160   -0.4310 C.3   143  ARG143      0.2205
     15  NE        -5.2280  -29.2540   -1.5750 N.pl3 143  ARG143     -0.0865
     16  CZ        -4.5990  -30.3740   -1.9150 C.cat 143  ARG143      0.5346
     17  NH1       -4.6730  -31.4610   -1.1560 N.pl3 143  ARG143      0.1354
     18  NH2       -3.8730  -30.3860   -3.0290 N.pl3 143  ARG143      0.1354
     19  N         -8.6330  -23.8380    1.5330 N.3   146  TRP146     -0.1227
     20  CA        -7.2670  -23.6900    2.0190 C.3   146  TRP146      0.1737
     21  C         -6.3270  -23.3210    0.8700 C.2   146  TRP146      0.2595
     22  O         -5.4720  -22.4440    1.0440 O.2   146  TRP146     -0.2718
     23  CB        -6.7920  -24.9720    2.7170 C.3   146  TRP146      0.0564
     24  CG        -5.4940  -24.7940    3.4730 C.ar  146  TRP146      0.0003
     25  CD1       -5.3560  -24.5070    4.7950 C.ar  146  TRP146      0.0946
     26  CD2       -4.1600  -24.8890    2.9430 C.ar  146  TRP146      0.0152
     27  NE1       -4.0220  -24.4170    5.1260 N.ar  146  TRP146     -0.2442
     28  CE2       -3.2720  -24.6450    4.0050 C.ar  146  TRP146      0.0810
     29  CE3       -3.6360  -25.1540    1.6730 C.ar  146  TRP146      0.0012
     30  CZ2       -1.8810  -24.6640    3.8340 C.ar  146  TRP146      0.0191
     31  CZ3       -2.2660  -25.1610    1.5100 C.ar  146  TRP146      0.0001
     32  CH2       -1.4070  -24.9150    2.5800 C.ar  146  TRP146      0.0015
     33  N         -6.4900  -23.9880   -0.2760 N.am  147  ASP147     -0.1974
     34  CA        -5.6810  -23.7060   -1.4580 C.3   147  ASP147      0.1709
     35  C         -5.7590  -22.2240   -1.7780 C.2   147  ASP147      0.2293
     36  O         -4.7330  -21.5760   -2.0440 O.2   147  ASP147     -0.2864
     37  CB        -6.1270  -24.5060   -2.6880 C.3   147  ASP147      0.1436
     38  CG        -5.6330  -25.9490   -2.6960 C.2   147  ASP147      0.3671
     39  OD1       -4.7750  -26.3190   -1.8720 O.co2 147  ASP147     -0.2456
     40  OD2       -6.1090  -26.7130   -3.5630 O.co2 147  ASP147     -0.2456
     41  N         -3.9770  -20.1220    0.7590 N.3   150  PHE150     -0.1227
     42  CA        -2.5270  -20.2880    0.6050 C.3   150  PHE150      0.1736
     43  C         -1.9640  -19.4890   -0.5870 C.2   150  PHE150      0.2595
     44  O         -0.9140  -18.8500   -0.4580 O.2   150  PHE150     -0.2718
     45  CB        -2.1900  -21.7830    0.4720 C.3   150  PHE150      0.0547
     46  CG        -0.7130  -22.1030    0.5790 C.ar  150  PHE150     -0.0202
     47  CD1        0.0760  -21.5100    1.5560 C.ar  150  PHE150     -0.0042
     48  CD2       -0.1330  -23.0300   -0.2770 C.ar  150  PHE150     -0.0042
     49  CE1        1.4310  -21.8120    1.6620 C.ar  150  PHE150     -0.0003
     50  CE2        1.2280  -23.3460   -0.1760 C.ar  150  PHE150     -0.0003
     51  CZ         2.0020  -22.7400    0.7980 C.ar  150  PHE150     -0.0000
     52  N         -2.6590  -19.5290   -1.7270 N.am  151  ARG151     -0.1980
     53  CA        -2.2710  -18.7370   -2.9010 C.3   151  ARG151      0.1597
     54  C         -2.1920  -17.2720   -2.5190 C.2   151  ARG151      0.2287
     55  O         -1.2090  -16.5880   -2.8240 O.2   151  ARG151     -0.2864
     56  CB        -3.2700  -18.8830   -4.0620 C.3   151  ARG151      0.0334
     57  CG        -3.4010  -20.2480   -4.6540 C.3   151  ARG151      0.0492
     58  CD        -4.0900  -20.2000   -6.0220 C.3   151  ARG151      0.2205
     59  NE        -5.4840  -19.7490   -5.9900 N.pl3 151  ARG151     -0.0865
     60  CZ        -6.5260  -20.5400   -5.7410 C.cat 151  ARG151      0.5346
     61  NH1       -6.3450  -21.8210   -5.4550 N.pl3 151  ARG151      0.1354
     62  NH2       -7.7520  -20.0400   -5.7490 N.pl3 151  ARG151      0.1354
     63  N          2.7050  -31.0700   -1.4350 N.3   169  LEU169     -0.1245
     64  CA         1.5960  -30.2250   -1.8330 C.3   169  LEU169      0.1561
     65  C          0.3460  -31.0730   -2.0800 C.2   169  LEU169      0.2260
     66  O         -0.7250  -30.5390   -2.4050 O.2   169  LEU169     -0.2867
     67  CB         1.9880  -29.3920   -3.0470 C.3   169  LEU169      0.0270
     68  CG         3.2670  -28.5720   -2.8360 C.3   169  LEU169      0.0019
     69  CD1        3.5270  -27.6990   -4.0620 C.3   169  LEU169      0.0001
     70  CD2        3.1940  -27.7200   -1.5760 C.3   169  LEU169      0.0001
     71  N         -0.9410  -33.1580   -4.2270 N.3   171  VAL171     -0.1245
     72  CA        -1.6510  -33.2640   -5.4890 C.3   171  VAL171      0.1561
     73  C         -0.6670  -33.6910   -6.5660 C.2   171  VAL171      0.2260
     74  O          0.4810  -33.2280   -6.6080 O.2   171  VAL171     -0.2867
     75  CB        -2.3570  -31.9230   -5.8880 C.3   171  VAL171      0.0252
     76  CG1       -1.3930  -30.7570   -5.8570 C.3   171  VAL171      0.0019
     77  CG2       -3.0500  -32.0360   -7.2570 C.3   171  VAL171      0.0019
     78  N         -8.4400  -30.2540   -7.0710 N.3   194  GLU194     -0.1245
     79  CA        -7.0850  -30.0990   -6.5570 C.3   194  GLU194      0.1567
     80  C         -6.0980  -29.7970   -7.6850 C.2   194  GLU194      0.2260
     81  O         -5.1640  -29.0050   -7.5180 O.2   194  GLU194     -0.2867
     82  CB        -6.6660  -31.3610   -5.8070 C.3   194  GLU194      0.0388
     83  CG        -7.4690  -31.6130   -4.5190 C.3   194  GLU194      0.1160
     84  CD        -7.3270  -33.0290   -4.0410 C.2   194  GLU194      0.3649
     85  OE1       -7.7920  -33.9470   -4.7510 O.co2 194  GLU194     -0.2457
     86  OE2       -6.7480  -33.2260   -2.9470 O.co2 194  GLU194     -0.2457
     87  N         -6.4300  -26.2450   -8.5370 N.3   197  GLY197     -0.1210
     88  CA        -5.8130  -25.4250   -7.5170 C.3   197  GLY197      0.1956
     89  C         -4.3070  -25.3230   -7.7050 C.2   197  GLY197      0.2611
     90  O         -3.7350  -24.2650   -7.5040 O.2   197  GLY197     -0.2717
     91  N         -3.6750  -26.4300   -8.0670 N.am  198  PHE198     -0.1976
     92  CA        -2.2320  -26.4180   -8.3110 C.3   198  PHE198      0.1639
     93  C         -1.9190  -25.5320   -9.5090 C.2   198  PHE198      0.2290
     94  O         -0.9830  -24.7330   -9.4760 O.2   198  PHE198     -0.2864
     95  CB        -1.7230  -27.8490   -8.5390 C.3   198  PHE198      0.0560
     96  CG        -0.2240  -27.9670   -8.5910 C.ar  198  PHE198     -0.0200
     97  CD1        0.4530  -27.8300   -9.7850 C.ar  198  PHE198     -0.0042
     98  CD2        0.4980  -28.2390   -7.4330 C.ar  198  PHE198     -0.0042
     99  CE1        1.8420  -27.9410   -9.8290 C.ar  198  PHE198     -0.0003
    100  CE2        1.8770  -28.3510   -7.4740 C.ar  198  PHE198     -0.0003
    101  CZ         2.5370  -28.2110   -8.6700 C.ar  198  PHE198     -0.0000
    102  N         -2.1310  -22.0530   -8.3930 N.3   201  LEU201     -0.1245
    103  CA        -0.9780  -21.6890   -7.5700 C.3   201  LEU201      0.1561
    104  C          0.1770  -21.2160   -8.4520 C.2   201  LEU201      0.2260
    105  O          0.7740  -20.1670   -8.2140 O.2   201  LEU201     -0.2867
    106  CB        -0.5370  -22.8830   -6.7100 C.3   201  LEU201      0.0270
    107  CG         0.7530  -22.7550   -5.8820 C.3   201  LEU201      0.0019
    108  CD1        0.6190  -21.7250   -4.7610 C.3   201  LEU201      0.0001
    109  CD2        1.1520  -24.1180   -5.3140 C.3   201  LEU201      0.0001
@<TRIPOS>BOND
     1    99    97   ar
     2    99   101   ar
     3    97    96   ar
     4    93    94    2
     5    93    92    1
     6   101   100   ar
     7    96    95    1
     8    96    98   ar
     9    95    92    1
    10    87    88    1
    11   104   105    2
    12   104   103    1
    13   102   103    1
    14    92    91    1
    15    91    89   am
    16    89    88    1
    17    89    90    2
    18    80    81    2
    19    80    79    1
    20   103   106    1
    21   100    98   ar
    22    77    75    1
    23    78    79    1
    24   106   107    1
    25    74    73    2
    26    73    72    1
    27    79    82    1
    28    58    59    1
    29    58    57    1
    30    59    60    2
    31    75    76    1
    32    75    72    1
    33   107   109    1
    34   107   108    1
    35    82    83    1
    36    62    60    1
    37    60    61    1
    38    72    71    1
    39    85    84   ar
    40    57    56    1
    41    83    84    1
    42    56    53    1
    43    69    68    1
    44    84    86   ar
    45    40    38   ar
    46    67    68    1
    47    67    64    1
    48    18    16    1
    49    53    54    1
    50    53    52    1
    51    68    70    1
    52    55    54    2
    53    38    37    1
    54    38    39   ar
    55    37    34    1
    56    66    65    2
    57    65    64    1
    58    36    35    2
    59    16    15    2
    60    16    17    1
    61    64    63    1
    62    35    34    1
    63    52    43   am
    64    15    14    1
    65    34    33    1
    66    13    14    1
    67    13    12    1
    68    43    44    2
    69    43    42    1
    70    11    10    2
    71    48    50   ar
    72    48    46   ar
    73    33    21   am
    74    10     9    1
    75    50    51   ar
    76     6     5    1
    77    12     9    1
    78     7     5    1
    79    45    46    1
    80    45    42    1
    81    46    47   ar
    82    42    41    1
    83    51    49   ar
    84     5     2    1
    85     9     8    1
    86    21    22    2
    87    21    20    1
    88    31    29   ar
    89    31    32   ar
    90    19    20    1
    91    47    49   ar
    92    29    26   ar
    93    20    23    1
    94     2     1    1
    95     2     3    1
    96    32    30   ar
    97    23    24    1
    98     4     3    2
    99    26    24   ar
   100    26    28   ar
   101    24    25   ar
   102    30    28   ar
   103    28    27   ar
   104    25    27   ar
