@<TRIPOS>MOLECULE
tmp/5dfpA00.pdb
 191 177 0 0 0
SMALL
GASTEIGER

@<TRIPOS>ATOM
      1  N         14.9770   42.1910  -20.0740 N.3    28  ILE28      -0.1245
      2  CA        15.5570   40.9430  -20.5730 C.3    28  ILE28       0.1561
      3  C         14.5320   40.0150  -21.2240 C.2    28  ILE28       0.2260
      4  O         14.8290   38.8520  -21.4620 O.2    28  ILE28      -0.2867
      5  CB        16.2110   40.1090  -19.4520 C.3    28  ILE28       0.0252
      6  CG1       15.1450   39.6670  -18.4460 C.3    28  ILE28       0.0019
      7  CG2       17.3570   40.8640  -18.7950 C.3    28  ILE28       0.0019
      8  CD1       15.6160   38.6470  -17.4700 C.3    28  ILE28       0.0001
      9  N          9.8510   41.2270  -18.7110 N.3    36  VAL36      -0.1245
     10  CA        10.7060   40.8950  -17.5840 C.3    36  VAL36       0.1561
     11  C         11.9630   41.7580  -17.5590 C.2    36  VAL36       0.2260
     12  O         12.5880   41.9870  -18.5910 O.2    36  VAL36      -0.2867
     13  CB        11.1210   39.4270  -17.6220 C.3    36  VAL36       0.0252
     14  CG1       11.9910   39.1020  -16.4140 C.3    36  VAL36       0.0019
     15  CG2        9.8900   38.5280  -17.6860 C.3    36  VAL36       0.0019
     16  N         14.6190   40.0180  -10.4480 N.3    49  ALA49      -0.1231
     17  CA        13.9750   39.8980  -11.7430 C.3    49  ALA49       0.1694
     18  C         12.5440   40.3240  -11.5330 C.2    49  ALA49       0.2592
     19  O         11.9140   39.9160  -10.5710 O.2    49  ALA49      -0.2718
     20  CB        14.0390   38.4460  -12.2540 C.3    49  ALA49       0.0304
     21  N         12.0320   41.1720  -12.4100 N.am   50  ILE50      -0.1966
     22  CA        10.6780   41.6670  -12.2570 C.3    50  ILE50       0.1727
     23  C          9.9020   41.4160  -13.5300 C.2    50  ILE50       0.2616
     24  O         10.3810   41.6920  -14.6340 O.2    50  ILE50      -0.2715
     25  CB        10.6410   43.1860  -11.9540 C.3    50  ILE50       0.0290
     26  CG1       11.4410   43.5150  -10.7040 C.3    50  ILE50       0.0022
     27  CG2        9.2070   43.6700  -11.7850 C.3    50  ILE50       0.0023
     28  CD1       11.2600   44.9380  -10.2490 C.3    50  ILE50       0.0001
     29  N          8.7000   40.8860  -13.3660 N.am   51  ARG51      -0.1977
     30  CA         7.7930   40.7170  -14.4770 C.3    51  ARG51       0.1597
     31  C          6.7070   41.7630  -14.3470 C.2    51  ARG51       0.2287
     32  O          6.0430   41.8140  -13.3160 O.2    51  ARG51      -0.2864
     33  CB         7.1930   39.3090  -14.4460 C.3    51  ARG51       0.0334
     34  CG         5.8500   39.1690  -15.1230 C.3    51  ARG51       0.0492
     35  CD         5.9000   38.1200  -16.2060 C.3    51  ARG51       0.2205
     36  NE         6.7700   37.0070  -15.8390 N.pl3  51  ARG51      -0.0865
     37  CZ         7.4890   36.3080  -16.7120 C.cat  51  ARG51       0.5346
     38  NH1        8.2650   35.3010  -16.2980 N.pl3  51  ARG51       0.1354
     39  NH2        7.4330   36.6190  -18.0050 N.pl3  51  ARG51       0.1354
     40  N          3.0920   43.1410  -15.9930 N.3    53  MET53      -0.1245
     41  CA         1.9940   42.7230  -16.8520 C.3    53  MET53       0.1570
     42  C          0.9160   43.7850  -16.8740 C.2    53  MET53       0.2261
     43  O          0.6130   44.3810  -15.8490 O.2    53  MET53      -0.2867
     44  CB         1.3650   41.4450  -16.3220 C.3    53  MET53       0.0387
     45  CG         2.2040   40.2210  -16.4620 C.3    53  MET53       0.0595
     46  SD         1.4230   38.8870  -15.5330 S.3    53  MET53      -0.1393
     47  CE         2.2340   39.1020  -13.9520 C.3    53  MET53       0.0692
     48  N         -2.6270   33.5360  -13.0360 N.3    64  ILE64      -0.1245
     49  CA        -1.6590   34.4740  -12.4580 C.3    64  ILE64       0.1561
     50  C         -1.7100   34.5510  -10.9260 C.2    64  ILE64       0.2260
     51  O         -0.6880   34.4120  -10.2450 O.2    64  ILE64      -0.2867
     52  CB        -1.8010   35.8700  -13.0550 C.3    64  ILE64       0.0252
     53  CG1       -1.5310   35.8040  -14.5600 C.3    64  ILE64       0.0019
     54  CG2       -0.8080   36.8170  -12.3910 C.3    64  ILE64       0.0019
     55  CD1       -1.7630   37.0900  -15.2780 C.3    64  ILE64       0.0001
     56  N         -0.4040   31.2810   -9.5520 N.3    67  GLU67      -0.1231
     57  CA         1.0310   31.1530   -9.5210 C.3    67  GLU67       0.1699
     58  C          1.6150   31.9050   -8.3390 C.2    67  GLU67       0.2592
     59  O          2.4690   31.3880   -7.6240 O.2    67  GLU67      -0.2718
     60  CB         1.6780   31.6300  -10.8080 C.3    67  GLU67       0.0402
     61  CG         3.1520   31.2990  -10.8090 C.3    67  GLU67       0.1161
     62  CD         3.8290   31.6070  -12.1140 C.2    67  GLU67       0.3649
     63  OE1        3.1130   31.8520  -13.1050 O.co2  67  GLU67      -0.2457
     64  OE2        5.0770   31.6020  -12.1330 O.co2  67  GLU67      -0.2457
     65  N          1.1660   33.1390   -8.1410 N.am   68  ILE68      -0.1980
     66  CA         1.6900   33.9450   -7.0450 C.3    68  ILE68       0.1595
     67  C          1.4550   33.2710   -5.7100 C.2    68  ILE68       0.2287
     68  O          2.3860   33.1370   -4.9170 O.2    68  ILE68      -0.2864
     69  CB         1.0730   35.3420   -7.0150 C.3    68  ILE68       0.0276
     70  CG1        1.5220   36.1260   -8.2480 C.3    68  ILE68       0.0022
     71  CG2        1.4870   36.0490   -5.7500 C.3    68  ILE68       0.0022
     72  CD1        0.8130   37.4230   -8.4400 C.3    68  ILE68       0.0001
     73  N          3.7980   30.3930   -5.1750 N.3    71  MET71      -0.1245
     74  CA         5.1610   30.7740   -4.8420 C.3    71  MET71       0.1570
     75  C          5.2050   31.1420   -3.3740 C.2    71  MET71       0.2261
     76  O          6.1070   30.7260   -2.6470 O.2    71  MET71      -0.2867
     77  CB         5.6630   31.9520   -5.6840 C.3    71  MET71       0.0387
     78  CG         5.6600   31.7350   -7.1980 C.3    71  MET71       0.0595
     79  SD         6.2530   30.1150   -7.7370 S.3    71  MET71      -0.1393
     80  CE         8.0300   30.2240   -7.4030 C.3    71  MET71       0.0692
     81  N         13.0650   29.1280   -6.9840 N.3    80  VAL80      -0.1245
     82  CA        13.4280   30.5270   -7.1970 C.3    80  VAL80       0.1561
     83  C         12.5680   31.3630   -6.2660 C.2    80  VAL80       0.2260
     84  O         11.3500   31.2230   -6.2550 O.2    80  VAL80      -0.2867
     85  CB        13.1730   30.9440   -8.6670 C.3    80  VAL80       0.0252
     86  CG1       11.6730   30.8890   -8.9820 C.3    80  VAL80       0.0019
     87  CG2       13.7210   32.3310   -8.9470 C.3    80  VAL80       0.0019
     88  N         10.2470   33.8700   -4.4940 N.3    82  TYR82      -0.1241
     89  CA         9.2990   34.9390   -4.7690 C.3    82  TYR82       0.1605
     90  C          9.4570   36.0100   -3.6960 C.2    82  TYR82       0.2264
     91  O          9.4160   35.6970   -2.5100 O.2    82  TYR82      -0.2867
     92  CB         7.8780   34.3910   -4.7930 C.3    82  TYR82       0.0534
     93  CG         6.8130   35.4290   -4.5340 C.ar   82  TYR82      -0.0201
     94  CD1        6.2950   35.6130   -3.2600 C.ar   82  TYR82      -0.0009
     95  CD2        6.3150   36.2180   -5.5660 C.ar   82  TYR82      -0.0009
     96  CE1        5.3090   36.5560   -3.0230 C.ar   82  TYR82       0.0417
     97  CE2        5.3320   37.1640   -5.3320 C.ar   82  TYR82       0.0417
     98  CZ         4.8370   37.3250   -4.0590 C.ar   82  TYR82       0.1957
     99  OH         3.8660   38.2590   -3.8130 O.3    82  TYR82      -0.2866
    100  N          5.5300   41.4580  -10.4660 N.3    94  VAL94      -0.1245
    101  CA         5.9680   40.3640   -9.5990 C.3    94  VAL94       0.1561
    102  C          7.4840   40.3650   -9.4650 C.2    94  VAL94       0.2260
    103  O          8.2030   40.3110  -10.4540 O.2    94  VAL94      -0.2867
    104  CB         5.4750   38.9980  -10.0980 C.3    94  VAL94       0.0252
    105  CG1        6.1110   37.8940   -9.2840 C.3    94  VAL94       0.0019
    106  CG2        3.9480   38.9230   -9.9910 C.3    94  VAL94       0.0019
    107  N         11.0470   38.7750   -8.1790 N.3    96  MET96      -0.1230
    108  CA        11.6690   37.5020   -7.8470 C.3    96  MET96       0.1702
    109  C         13.1690   37.6780   -7.6520 C.2    96  MET96       0.2592
    110  O         13.7600   38.6060   -8.2120 O.2    96  MET96      -0.2718
    111  CB        11.4330   36.5130   -8.9830 C.3    96  MET96       0.0401
    112  CG         9.9850   36.4010   -9.4360 C.3    96  MET96       0.0596
    113  SD         8.9550   35.5180   -8.2440 S.3    96  MET96      -0.1393
    114  CE         9.7390   33.9040   -8.2190 C.3    96  MET96       0.0692
    115  N         13.7960   36.7980   -6.8700 N.am   97  GLU97      -0.1966
    116  CA        15.2520   36.8280   -6.7810 C.3    97  GLU97       0.1733
    117  C         15.8280   36.6360   -8.1900 C.2    97  GLU97       0.2616
    118  O         15.2470   35.9350   -9.0100 O.2    97  GLU97      -0.2715
    119  CB        15.8040   35.7680   -5.8080 C.3    97  GLU97       0.0429
    120  CG        15.7650   34.3450   -6.3440 C.3    97  GLU97       0.1163
    121  CD        16.5940   33.3620   -5.5310 C.2    97  GLU97       0.3649
    122  OE1       16.1120   32.2280   -5.3040 O.co2  97  GLU97      -0.2457
    123  OE2       17.7340   33.7070   -5.1370 O.co2  97  GLU97      -0.2457
    124  N         16.9560   37.2740   -8.4780 N.am   98  TYR98      -0.1960
    125  CA        17.5860   37.1280   -9.7880 C.3    98  TYR98       0.1771
    126  C         18.7290   36.1330   -9.7140 C.2    98  TYR98       0.2619
    127  O         19.5760   36.2320   -8.8420 O.2    98  TYR98      -0.2715
    128  CB        18.1260   38.4720  -10.3010 C.3    98  TYR98       0.0574
    129  CG        18.9200   38.3410  -11.5860 C.ar   98  TYR98      -0.0198
    130  CD1       18.2830   38.1530  -12.8050 C.ar   98  TYR98      -0.0009
    131  CD2       20.3050   38.3810  -11.5760 C.ar   98  TYR98      -0.0009
    132  CE1       19.0120   38.0180  -13.9790 C.ar   98  TYR98       0.0417
    133  CE2       21.0410   38.2410  -12.7440 C.ar   98  TYR98       0.0417
    134  CZ        20.3910   38.0650  -13.9320 C.ar   98  TYR98       0.1957
    135  OH        21.1170   37.9370  -15.0820 O.3    98  TYR98      -0.2866
    136  N         18.7580   35.1840  -10.6410 N.am   99  LEU99      -0.1977
    137  CA        19.8310   34.1930  -10.6690 C.3    99  LEU99       0.1596
    138  C         20.7320   34.4000  -11.8870 C.2    99  LEU99       0.2287
    139  O         20.3000   34.2590  -13.0360 O.2    99  LEU99      -0.2864
    140  CB        19.2550   32.7780  -10.5780 C.3    99  LEU99       0.0297
    141  CG        18.7430   32.5520   -9.1450 C.3    99  LEU99       0.0022
    142  CD1       17.5290   31.6460   -9.0980 C.3    99  LEU99       0.0001
    143  CD2       19.8690   32.0200   -8.2340 C.3    99  LEU99       0.0001
    144  N         22.2020   31.8920  -15.1930 N.3   102  GLY102     -0.1210
    145  CA        21.4930   31.5210  -16.4100 C.3   102  GLY102      0.1956
    146  C         20.5480   30.3510  -16.2100 C.2   102  GLY102      0.2612
    147  O         20.2410   29.9970  -15.0750 O.2   102  GLY102     -0.2717
    148  N         20.0720   29.7760  -17.3110 N.am  103  SER103     -0.1952
    149  CA        19.2800   28.5530  -17.2770 C.3   103  SER103      0.1924
    150  C         20.1590   27.3420  -17.5670 C.2   103  SER103      0.2314
    151  O         21.2050   27.4690  -18.1800 O.2   103  SER103     -0.2863
    152  CB        18.1780   28.5930  -18.3280 C.3   103  SER103      0.2116
    153  OG        18.7440   28.4800  -19.6260 O.3   103  SER103     -0.2180
    154  N         21.0030   26.8960  -21.2460 N.3   106  ASP106     -0.1239
    155  CA        22.2340   27.5430  -21.7020 C.3   106  ASP106      0.1674
    156  C         23.3870   26.5820  -21.4990 C.2   106  ASP106      0.2266
    157  O         24.2510   26.4100  -22.3620 O.2   106  ASP106     -0.2867
    158  CB        22.5090   28.8440  -20.9200 C.3   106  ASP106      0.1410
    159  CG        21.3280   29.8420  -20.9580 C.2   106  ASP106      0.3668
    160  OD1       20.5780   29.8600  -21.9620 O.co2 106  ASP106     -0.2456
    161  OD2       21.1580   30.6220  -19.9760 O.co2 106  ASP106     -0.2456
    162  N         16.8150   27.3170  -13.1350 N.3   148  LEU148     -0.1245
    163  CA        17.6980   28.4700  -13.0760 C.3   148  LEU148      0.1561
    164  C         18.9020   28.1800  -12.1880 C.2   148  LEU148      0.2260
    165  O         18.8180   27.4240  -11.2250 O.2   148  LEU148     -0.2867
    166  CB        16.9370   29.7020  -12.5910 C.3   148  LEU148      0.0270
    167  CG        15.7630   29.9990  -13.5260 C.3   148  LEU148      0.0019
    168  CD1       15.0730   31.3210  -13.1810 C.3   148  LEU148      0.0001
    169  CD2       16.2260   29.9900  -14.9600 C.3   148  LEU148      0.0001
    170  N         11.7500   26.9360  -11.5240 N.3   158  THR158     -0.1203
    171  CA        10.9950   28.1500  -11.7760 C.3   158  THR158      0.1994
    172  C          9.7970   27.8580  -12.6610 C.2   158  THR158      0.2617
    173  O          9.6240   26.7340  -13.1370 O.2   158  THR158     -0.2717
    174  CB        11.8510   29.2240  -12.4760 C.3   158  THR158      0.1784
    175  OG1       11.1940   30.4880  -12.3910 O.3   158  THR158     -0.2211
    176  CG2       12.0670   28.8620  -13.9550 C.3   158  THR158      0.0376
    177  N          8.9860   28.8970  -12.8680 N.am  159  ASP159     -0.1973
    178  CA         7.8130   28.8690  -13.7380 C.3   159  ASP159      0.1709
    179  C          6.7590   27.8640  -13.3070 C.2   159  ASP159      0.2293
    180  O          6.6160   26.7900  -13.8920 O.2   159  ASP159     -0.2864
    181  CB         8.1960   28.6510  -15.2030 C.3   159  ASP159      0.1436
    182  CG         7.1120   29.1370  -16.1560 C.2   159  ASP159      0.3671
    183  OD1        5.9530   29.2910  -15.6890 O.co2 159  ASP159     -0.2456
    184  OD2        7.4120   29.3720  -17.3510 O.co2 159  ASP159     -0.2456
    185  N         26.8260   33.1300  -25.0020 N.3   292  THR292     -0.1218
    186  CA        25.5560   33.7530  -25.3660 C.3   292  THR292      0.1862
    187  C         25.3920   35.1620  -24.7910 C.2   292  THR292      0.2287
    188  O         26.3460   35.7560  -24.2840 O.2   292  THR292     -0.2866
    189  CB        24.3680   32.8850  -24.9270 C.3   292  THR292      0.1770
    190  OG1       23.1710   33.6750  -24.9300 O.3   292  THR292     -0.2211
    191  CG2       24.6060   32.3430  -23.5330 C.3   292  THR292      0.0375
@<TRIPOS>BOND
     1   186   185    1
     2   186   189    1
     3   186   187    1
     4   190   189    1
     5   189   191    1
     6   187   188    2
     7   157   156    2
     8   160   159   ar
     9   155   156    1
    10   155   154    1
    11   155   158    1
    12     4     3    2
    13     3     2    1
    14   159   158    1
    15   159   161   ar
    16     2     1    1
    17     2     5    1
    18   153   152    1
    19     5     7    1
    20     5     6    1
    21     9    10    1
    22    12    11    2
    23     6     8    1
    24   152   149    1
    25   151   150    2
    26    39    37    1
    27    15    13    1
    28    13    10    1
    29    13    14    1
    30    10    11    1
    31   150   149    1
    32   184   182   ar
    33   148   149    1
    34   148   146   am
    35    42    41    1
    36    42    43    2
    37    41    44    1
    38    41    40    1
    39    37    38    1
    40    37    36    2
    41    45    44    1
    42    45    46    1
    43   145   146    1
    44   145   144    1
    45   146   147    2
    46    35    36    1
    47    35    34    1
    48   182   183   ar
    49   182   181    1
    50    46    47    1
    51    55    53    1
    52   181   178    1
    53    34    33    1
    54   135   134    1
    55   169   167    1
    56    24    23    2
    57    53    52    1
    58    30    33    1
    59    30    31    1
    60    30    29    1
    61    31    32    2
    62   132   134   ar
    63   132   130   ar
    64   176   174    1
    65   134   133   ar
    66   180   179    2
    67   178   179    1
    68   178   177    1
    69    23    29   am
    70    23    22    1
    71   167   168    1
    72   167   166    1
    73   173   172    2
    74   162   163    1
    75    63    62   ar
    76   163   166    1
    77   163   164    1
    78    52    49    1
    79    52    54    1
    80   139   138    2
    81    48    49    1
    82   177   172   am
    83   130   129   ar
    84   133   131   ar
    85   172   171    1
    86   174   175    1
    87   174   171    1
    88    49    50    1
    89    21    22    1
    90    21    18   am
    91    22    25    1
    92    20    17    1
    93   164   165    2
    94    64    62   ar
    95    62    61    1
    96    25    27    1
    97    25    26    1
    98   138   137    1
    99   171   170    1
   100    17    18    1
   101    17    16    1
   102   129   131   ar
   103   129   128    1
   104    18    19    2
   105    50    51    2
   106    61    60    1
   107    60    57    1
   108    26    28    1
   109   137   136    1
   110   137   140    1
   111   136   126   am
   112   140   141    1
   113   100   101    1
   114   103   102    2
   115   128   125    1
   116   104   106    1
   117   104   101    1
   118   104   105    1
   119   125   126    1
   120   125   124    1
   121   126   127    2
   122   101   102    1
   123    56    57    1
   124    57    58    1
   125   112   111    1
   126   112   113    1
   127   141   142    1
   128   141   143    1
   129   118   117    2
   130   111   108    1
   131    86    85    1
   132    87    85    1
   133    85    82    1
   134   124   117   am
   135    72    70    1
   136    58    65   am
   137    58    59    2
   138    70    69    1
   139   113   114    1
   140   110   109    2
   141   117   116    1
   142   107   108    1
   143    65    66    1
   144   108   109    1
   145    79    80    1
   146    79    78    1
   147   109   115   am
   148    78    77    1
   149    82    81    1
   150    82    83    1
   151    66    69    1
   152    66    67    1
   153    69    71    1
   154   115   116    1
   155   116   119    1
   156   120   119    1
   157   120   121    1
   158    83    84    2
   159    67    68    2
   160    77    74    1
   161    95    97   ar
   162    95    93   ar
   163   121   122   ar
   164   121   123   ar
   165    97    98   ar
   166    73    74    1
   167    74    75    1
   168    92    89    1
   169    92    93    1
   170    89    88    1
   171    89    90    1
   172    93    94   ar
   173    98    99    1
   174    98    96   ar
   175    90    91    2
   176    75    76    2
   177    94    96   ar
