@<TRIPOS>MOLECULE
tmp/5dg3D00.pdb
 143 133 0 0 0
SMALL
GASTEIGER

@<TRIPOS>ATOM
      1  N         14.9510    7.6560  -13.7130 N.3   103  LEU103     -0.1245
      2  CA        14.7120    7.1600  -15.0510 C.3   103  LEU103      0.1561
      3  C         14.7240    5.6300  -14.9960 C.2   103  LEU103      0.2260
      4  O         15.7010    5.0190  -14.5870 O.2   103  LEU103     -0.2867
      5  CB        15.7690    7.7190  -15.9890 C.3   103  LEU103      0.0270
      6  CG        15.7670    7.1720  -17.4180 C.3   103  LEU103      0.0019
      7  CD1       14.4680    7.3980  -18.1230 C.3   103  LEU103      0.0001
      8  CD2       16.9130    7.7830  -18.1890 C.3   103  LEU103      0.0001
      9  N         13.9650    2.4820  -17.3290 N.3   105  MET105     -0.1245
     10  CA        13.8620    2.1350  -18.7170 C.3   105  MET105      0.1570
     11  C         13.0280    0.8920  -18.9360 C.2   105  MET105      0.2261
     12  O         12.6240    0.2720  -17.9900 O.2   105  MET105     -0.2867
     13  CB        15.2410    2.0140  -19.3140 C.3   105  MET105      0.0387
     14  CG        16.0230    3.3210  -19.2400 C.3   105  MET105      0.0595
     15  SD        17.5660    3.2120  -20.1630 S.3   105  MET105     -0.1393
     16  CE        18.3930    4.6570  -19.5410 C.3   105  MET105      0.0692
     17  N         18.9000    5.5990  -12.0970 N.3   121  ILE121     -0.1245
     18  CA        18.6650    5.1430  -13.4380 C.3   121  ILE121      0.1561
     19  C         18.6700    3.6160  -13.3850 C.2   121  ILE121      0.2260
     20  O         19.6610    3.0110  -12.9980 O.2   121  ILE121     -0.2867
     21  CB        19.7440    5.6470  -14.4210 C.3   121  ILE121      0.0252
     22  CG1       19.8440    7.1670  -14.3780 C.3   121  ILE121      0.0019
     23  CG2       19.4480    5.1400  -15.8510 C.3   121  ILE121      0.0019
     24  CD1       20.9180    7.7770  -15.2760 C.3   121  ILE121      0.0001
     25  N         18.4080    0.8690  -16.1190 N.3   123  VAL123     -0.1231
     26  CA        18.4540    0.6180  -17.5180 C.3   123  VAL123      0.1692
     27  C         17.5900   -0.6250  -17.8340 C.2   123  VAL123      0.2592
     28  O         17.1780   -1.3490  -16.9380 O.2   123  VAL123     -0.2718
     29  CB        19.9410    0.4880  -17.9650 C.3   123  VAL123      0.0266
     30  CG1       20.0770    0.2130  -19.4740 C.3   123  VAL123      0.0020
     31  CG2       20.6950    1.7770  -17.6360 C.3   123  VAL123      0.0020
     32  N         17.2480   -0.8030  -19.1020 N.am  124  ASN124     -0.1974
     33  CA        16.3230   -1.8650  -19.5430 C.3   124  ASN124      0.1688
     34  C         16.4440   -3.1940  -18.8400 C.2   124  ASN124      0.2292
     35  O         17.5130   -3.7310  -18.6810 O.2   124  ASN124     -0.2864
     36  CB        16.5040   -2.1450  -21.0320 C.3   124  ASN124      0.1181
     37  CG        16.2180   -0.9270  -21.9070 C.2   124  ASN124      0.2629
     38  OD1       16.5420    0.1940  -21.5690 O.2   124  ASN124     -0.2716
     39  ND2       15.6530   -1.1730  -23.0670 N.am  124  ASN124     -0.0877
     40  N         23.1980    3.7220  -10.5930 N.3   139  ILE139     -0.1245
     41  CA        22.8930    3.4030  -11.9780 C.3   139  ILE139      0.1561
     42  C         23.0260    1.9070  -12.1040 C.2   139  ILE139      0.2260
     43  O         24.0580    1.3420  -11.8030 O.2   139  ILE139     -0.2867
     44  CB        23.8020    4.1130  -12.9620 C.3   139  ILE139      0.0252
     45  CG1       23.5540    5.6140  -12.9150 C.3   139  ILE139      0.0019
     46  CG2       23.5420    3.6270  -14.4060 C.3   139  ILE139      0.0019
     47  CD1       24.5090    6.4180  -13.7620 C.3   139  ILE139      0.0001
     48  N         21.8320   -2.3630  -18.0000 N.3   142  GLY142     -0.1210
     49  CA        20.7880   -3.2590  -18.5460 C.3   142  GLY142      0.1956
     50  C         20.8700   -4.6860  -18.0440 C.2   142  GLY142      0.2611
     51  O         21.9310   -5.2740  -17.9960 O.2   142  GLY142     -0.2717
     52  N         19.7250   -5.2550  -17.7330 N.am  143  TYR143     -0.1976
     53  CA        19.6130   -6.6660  -17.2890 C.3   143  TYR143      0.1639
     54  C         20.3880   -6.9640  -15.9770 C.2   143  TYR143      0.2290
     55  O         20.8110   -8.0770  -15.7090 O.2   143  TYR143     -0.2864
     56  CB        19.9990   -7.6180  -18.4250 C.3   143  TYR143      0.0560
     57  CG        19.0000   -7.6360  -19.5510 C.ar  143  TYR143     -0.0198
     58  CD1       18.9020   -6.5700  -20.4560 C.ar  143  TYR143     -0.0009
     59  CD2       18.1450   -8.7250  -19.7230 C.ar  143  TYR143     -0.0009
     60  CE1       18.0010   -6.6000  -21.5010 C.ar  143  TYR143      0.0417
     61  CE2       17.2080   -8.7620  -20.7480 C.ar  143  TYR143      0.0417
     62  CZ        17.1450   -7.7010  -21.6460 C.ar  143  TYR143      0.1957
     63  OH        16.2430   -7.7400  -22.6670 O.3   143  TYR143     -0.2866
     64  N         27.3590    1.8110   -9.4310 N.3   157  PHE157     -0.1241
     65  CA        27.2340    1.4760  -10.8330 C.3   157  PHE157      0.1605
     66  C         27.3470   -0.0320  -11.0160 C.2   157  PHE157      0.2264
     67  O         28.2370   -0.6640  -10.4690 O.2   157  PHE157     -0.2867
     68  CB        28.3080    2.2110  -11.6760 C.3   157  PHE157      0.0534
     69  CG        28.1980    1.9720  -13.1700 C.ar  157  PHE157     -0.0203
     70  CD1       28.6390    0.8720  -13.7320 C.ar  157  PHE157     -0.0042
     71  CD2       27.6760    2.8600  -13.9820 C.ar  157  PHE157     -0.0042
     72  CE1       28.5590    0.6600  -15.0980 C.ar  157  PHE157     -0.0003
     73  CE2       27.5740    2.6480  -15.3540 C.ar  157  PHE157     -0.0003
     74  CZ        28.0110    1.5460  -15.9030 C.ar  157  PHE157     -0.0000
     75  N         26.3220   -4.2020  -17.3160 N.3   160  MET160     -0.1245
     76  CA        25.1900   -4.8820  -17.8760 C.3   160  MET160      0.1570
     77  C         25.2420   -6.3820  -17.5390 C.2   160  MET160      0.2261
     78  O         26.2930   -7.0100  -17.6070 O.2   160  MET160     -0.2867
     79  CB        25.1270   -4.6350  -19.4040 C.3   160  MET160      0.0387
     80  CG        26.2970   -5.1390  -20.1880 C.3   160  MET160      0.0595
     81  SD        26.0930   -4.9410  -21.9700 S.3   160  MET160     -0.1393
     82  CE        27.2390   -6.2010  -22.5200 C.3   160  MET160      0.0692
     83  N         31.6600    0.1550   -8.2760 N.3   173  THR173     -0.1218
     84  CA        31.2700   -0.4110   -9.5510 C.3   173  THR173      0.1862
     85  C         31.3680   -1.9300   -9.4450 C.2   173  THR173      0.2287
     86  O         32.3730   -2.4640   -8.9790 O.2   173  THR173     -0.2866
     87  CB        32.1270    0.0890  -10.6950 C.3   173  THR173      0.1770
     88  OG1       33.4440   -0.3890  -10.5120 O.3   173  THR173     -0.2211
     89  CG2       32.1190    1.5840  -10.7910 C.3   173  THR173      0.0375
     90  N         30.3990   -5.8400  -11.4940 N.3   175  PHE175     -0.1241
     91  CA        30.2290   -6.4980  -12.7740 C.3   175  PHE175      0.1605
     92  C         30.1720   -7.9850  -12.5530 C.2   175  PHE175      0.2264
     93  O         30.7630   -8.5020  -11.6290 O.2   175  PHE175     -0.2867
     94  CB        31.3910   -6.2490  -13.7310 C.3   175  PHE175      0.0534
     95  CG        31.5710   -4.8210  -14.1170 C.ar  175  PHE175     -0.0203
     96  CD1       32.2630   -3.9460  -13.2890 C.ar  175  PHE175     -0.0042
     97  CD2       31.1200   -4.3530  -15.3390 C.ar  175  PHE175     -0.0042
     98  CE1       32.4320   -2.6160  -13.6400 C.ar  175  PHE175     -0.0003
     99  CE2       31.2880   -3.0270  -15.6840 C.ar  175  PHE175     -0.0003
    100  CZ        31.9430   -2.1650  -14.8380 C.ar  175  PHE175     -0.0000
    101  N         33.1050    4.3480   -8.9600 N.3   185  ASN185     -0.1240
    102  CA        32.4470    5.0060  -10.0230 C.3   185  ASN185      0.1653
    103  C         32.9700    6.4080  -10.2240 C.2   185  ASN185      0.2266
    104  O         32.2590    7.3900  -10.0010 O.2   185  ASN185     -0.2867
    105  CB        30.9460    4.9970   -9.7840 C.3   185  ASN185      0.1155
    106  CG        30.1640    5.5260  -10.9740 C.2   185  ASN185      0.2627
    107  OD1       30.6970    5.6230  -12.0970 O.2   185  ASN185     -0.2716
    108  ND2       28.9050    5.8920  -10.7400 N.am  185  ASN185     -0.0877
    109  N         33.7730    7.8920  -13.1320 N.3   187  GLU187     -0.1231
    110  CA        33.1050    8.5550  -14.2220 C.3   187  GLU187      0.1699
    111  C         31.9400    9.3200  -13.6580 C.2   187  GLU187      0.2592
    112  O         31.7830   10.4820  -13.9000 O.2   187  GLU187     -0.2718
    113  CB        32.6420    7.5490  -15.2780 C.3   187  GLU187      0.0402
    114  CG        31.8440    8.1150  -16.4250 C.3   187  GLU187      0.1161
    115  CD        32.6390    9.0560  -17.3060 C.2   187  GLU187      0.3649
    116  OE1       33.8350    8.8970  -17.4600 O.co2 187  GLU187     -0.2457
    117  OE2       32.0630    9.9750  -17.8280 O.co2 187  GLU187     -0.2457
    118  N         31.1400    8.6250  -12.8810 N.am  188  GLY188     -0.1957
    119  CA        30.0090    9.1900  -12.2260 C.3   188  GLY188      0.1869
    120  C         30.3880   10.4050  -11.3950 C.2   188  GLY188      0.2309
    121  O         29.7400   11.4160  -11.4620 O.2   188  GLY188     -0.2863
    122  N         31.2160   13.4400  -13.6710 N.3   191  ARG191     -0.1231
    123  CA        30.0360   14.0120  -14.2490 C.3   191  ARG191      0.1694
    124  C         29.2210   14.7960  -13.2510 C.2   191  ARG191      0.2591
    125  O         28.5390   15.7040  -13.6120 O.2   191  ARG191     -0.2718
    126  CB        29.1750   12.9260  -14.8660 C.3   191  ARG191      0.0321
    127  CG        29.7840   12.2680  -16.0670 C.3   191  ARG191      0.0489
    128  CD        28.8180   11.3040  -16.6750 C.3   191  ARG191      0.2205
    129  NE        29.4460   10.3760  -17.5810 N.pl3 191  ARG191     -0.0865
    130  CZ        28.7860    9.5190  -18.3290 C.cat 191  ARG191      0.5346
    131  NH1       27.5020    9.4830  -18.2660 N.pl3 191  ARG191      0.1354
    132  NH2       29.4180    8.7000  -19.1260 N.pl3 191  ARG191      0.1354
    133  N         29.3240   14.4400  -11.9910 N.am  192  ARG192     -0.1980
    134  CA        28.5610   15.0960  -10.9840 C.3   192  ARG192      0.1597
    135  C         29.2830   16.1850  -10.2250 C.2   192  ARG192      0.2287
    136  O         28.7970   16.6560   -9.2450 O.2   192  ARG192     -0.2864
    137  CB        27.9570   14.0820  -10.0520 C.3   192  ARG192      0.0334
    138  CG        26.8820   13.2470  -10.6770 C.3   192  ARG192      0.0492
    139  CD        26.7720   11.9140   -9.9650 C.3   192  ARG192      0.2205
    140  NE        26.4910   10.8380  -10.8870 N.pl3 192  ARG192     -0.0865
    141  CZ        26.5170    9.5470  -10.6320 C.cat 192  ARG192      0.5346
    142  NH1       26.8290    9.0670   -9.4720 N.pl3 192  ARG192      0.1354
    143  NH2       26.2060    8.7350  -11.5840 N.pl3 192  ARG192      0.1354
@<TRIPOS>BOND
     1    39    37   am
     2    63    62    1
     3    82    81    1
     4    81    80    1
     5    37    38    2
     6    37    36    1
     7    62    60   ar
     8    62    61   ar
     9    60    58   ar
    10    36    33    1
    11    61    59   ar
    12    58    57   ar
    13    80    79    1
    14    15    16    1
    15    15    14    1
    16    59    57   ar
    17    57    56    1
    18    33    32    1
    19    33    34    1
    20    30    29    1
    21    79    76    1
    22    13    14    1
    23    13    10    1
    24   132   130    1
    25    32    27   am
    26    11    10    1
    27    11    12    2
    28    34    35    2
    29    10     9    1
    30    49    50    1
    31    49    48    1
    32    56    53    1
    33   130   131    1
    34   130   129    2
    35     8     6    1
    36     7     6    1
    37    50    51    2
    38    50    52   am
    39    29    31    1
    40    29    26    1
    41    76    77    1
    42    76    75    1
    43    27    26    1
    44    27    28    2
    45   117   115   ar
    46    52    53    1
    47    78    77    2
    48   129   128    1
    49    26    25    1
    50   116   115   ar
    51     6     5    1
    52   115   114    1
    53    53    54    1
    54   128   127    1
    55   114   113    1
    56   127   126    1
    57     5     2    1
    58    54    55    2
    59    74    73   ar
    60    74    72   ar
    61    23    21    1
    62    99    97   ar
    63    99   100   ar
    64    73    71   ar
    65    97    95   ar
    66   113   110    1
    67    24    22    1
    68    72    70   ar
    69     2     3    1
    70     2     1    1
    71     3     4    2
    72   126   123    1
    73   100    98   ar
    74    21    22    1
    75    21    18    1
    76    46    44    1
    77   123   122    1
    78   123   124    1
    79   110   111    1
    80   110   109    1
    81    95    94    1
    82    95    96   ar
    83    71    69   ar
    84   112   111    2
    85    47    45    1
    86    70    69   ar
    87    94    91    1
    88   111   118   am
    89    98    96   ar
    90   125   124    2
    91    18    19    1
    92    18    17    1
    93    19    20    2
    94   124   133   am
    95    69    68    1
    96    44    45    1
    97    44    41    1
    98   118   119    1
    99    91    92    1
   100    91    90    1
   101    92    93    2
   102   119   120    1
   103    42    41    1
   104    42    43    2
   105   107   106    2
   106   133   134    1
   107    41    40    1
   108    68    65    1
   109   143   141    1
   110   121   120    2
   111    66    65    1
   112    66    67    2
   113   134   135    1
   114   134   137    1
   115   106   108   am
   116   106   105    1
   117   140   141    2
   118   140   139    1
   119    65    64    1
   120    89    87    1
   121    87    88    1
   122    87    84    1
   123   138   137    1
   124   138   139    1
   125   141   142    1
   126   135   136    2
   127   103   102    1
   128   103   104    2
   129   102   105    1
   130   102   101    1
   131    84    85    1
   132    84    83    1
   133    85    86    2
