@<TRIPOS>MOLECULE
tmp/5dg3C00.pdb
 139 138 0 0 0
SMALL
GASTEIGER

@<TRIPOS>ATOM
      1  N         -1.5690   14.0910   23.0650 N.3    66  THR66      -0.1204
      2  CA        -1.3780   12.6560   23.1930 C.3    66  THR66       0.1979
      3  C         -0.7140   12.0490   21.9300 C.2    66  THR66       0.2460
      4  O         -0.9680   12.4840   20.8220 O.2    66  THR66      -0.2732
      5  CB        -2.7000   11.9560   23.4910 C.3    66  THR66       0.1783
      6  OG1       -2.4290   10.6150   23.8870 O.3    66  THR66      -0.2211
      7  CG2       -3.5770   11.9560   22.2640 C.3    66  THR66       0.0376
      8  N          0.1810   11.0610   22.1110 N.am   67  PRO67      -0.2717
      9  CA         0.7700   10.3490   20.9950 C.3    67  PRO67       0.1535
     10  C         -0.1850    9.2830   20.4380 C.2    67  PRO67       0.2599
     11  O          0.1420    8.5620   19.4750 O.2    67  PRO67      -0.2715
     12  CB         1.9800    9.6710   21.6180 C.3    67  PRO67       0.0310
     13  CG         1.5540    9.3970   23.0130 C.3    67  PRO67       0.0237
     14  CD         0.6730   10.5460   23.4020 C.3    67  PRO67       0.0939
     15  N         -1.3470    9.1630   21.0520 N.am   68  ASP68      -0.1958
     16  CA        -2.3860    8.2760   20.5100 C.3    68  ASP68       0.1840
     17  C         -2.4800    8.4860   18.9900 C.2    68  ASP68       0.2622
     18  O         -2.7790    9.5950   18.5590 O.2    68  ASP68      -0.2715
     19  CB        -3.7100    8.5640   21.2290 C.3    68  ASP68       0.1450
     20  CG        -4.9140    7.7260   20.7060 C.2    68  ASP68       0.3671
     21  OD1       -4.7750    6.9870   19.7090 O.co2  68  ASP68      -0.2456
     22  OD2       -6.0250    7.8340   21.3110 O.co2  68  ASP68      -0.2456
     23  N         -2.2650    7.4270   18.2460 N.am   69  LEU69      -0.1963
     24  CA        -2.3170    7.4730   16.8220 C.3    69  LEU69       0.1728
     25  C         -3.6610    7.9550   16.2810 C.2    69  LEU69       0.2616
     26  O         -3.7570    8.3140   15.1400 O.2    69  LEU69      -0.2715
     27  CB        -1.9250    6.1260   16.2560 C.3    69  LEU69       0.0311
     28  CG        -0.4590    5.7750   16.3800 C.3    69  LEU69       0.0022
     29  CD1       -0.1170    4.4830   15.6980 C.3    69  LEU69       0.0001
     30  CD2        0.4500    6.8640   15.8880 C.3    69  LEU69       0.0001
     31  N         -4.6780    7.9590   17.1210 N.am   70  LYS70      -0.1977
     32  CA        -5.9860    8.4120   16.7400 C.3    70  LYS70       0.1596
     33  C         -6.0990    9.9130   16.7580 C.2    70  LYS70       0.2287
     34  O         -6.7070   10.4710   15.9030 O.2    70  LYS70      -0.2864
     35  CB        -7.0710    7.8010   17.6110 C.3    70  LYS70       0.0298
     36  CG        -7.3160    6.3340   17.3260 C.3    70  LYS70       0.0038
     37  CD        -8.1550    5.6910   18.3960 C.3    70  LYS70       0.0206
     38  CE        -7.3370    5.3140   19.6060 C.3    70  LYS70       0.1093
     39  NZ        -8.1990    5.2440   20.7860 N.3    70  LYS70      -0.1314
     40  N         -1.4360   15.2080   29.3020 N.3    93  HIS93      -0.1241
     41  CA        -1.8240   15.3220   27.9120 C.3    93  HIS93       0.1621
     42  C         -3.2470   15.7460   27.8130 C.2    93  HIS93       0.2264
     43  O         -4.0530   15.4130   28.6640 O.2    93  HIS93      -0.2867
     44  CB        -1.6330   14.0000   27.1720 C.3    93  HIS93       0.0745
     45  CG        -0.1970   13.6000   27.0020 C.ar   93  HIS93       0.0817
     46  ND1        0.1830   12.3450   26.5700 N.ar   93  HIS93      -0.2268
     47  CD2        0.9520   14.3020   27.1620 C.ar   93  HIS93       0.1154
     48  CE1        1.5010   12.2940   26.4670 C.ar   93  HIS93       0.1986
     49  NE2        1.9910   13.4620   26.8340 N.ar   93  HIS93      -0.2212
     50  N          2.3260   10.0630   34.8820 N.3   116  HIS116     -0.1241
     51  CA         1.7290   10.3940   33.5950 C.3   116  HIS116      0.1621
     52  C          0.2280   10.4250   33.7090 C.2   116  HIS116      0.2264
     53  O         -0.3620    9.5300   34.2800 O.2   116  HIS116     -0.2867
     54  CB         2.1250    9.3500   32.5700 C.3   116  HIS116      0.0745
     55  CG         1.4390    9.5150   31.2580 C.ar  116  HIS116      0.0817
     56  ND1        1.7320   10.5380   30.3850 N.ar  116  HIS116     -0.2268
     57  CD2        0.4530    8.7910   30.6830 C.ar  116  HIS116      0.1154
     58  CE1        0.9670   10.4170   29.3160 C.ar  116  HIS116      0.1986
     59  NE2        0.1760    9.3730   29.4760 N.ar  116  HIS116     -0.2212
     60  N         -2.7900   10.4750   31.2580 N.3   118  GLY118     -0.1210
     61  CA        -3.0960   10.2790   29.8500 C.3   118  GLY118      0.1956
     62  C         -4.3240   11.0180   29.3730 C.2   118  GLY118      0.2611
     63  O         -5.1940   11.3650   30.1490 O.2   118  GLY118     -0.2717
     64  N         -4.3590   11.2680   28.0730 N.am  119  HIS119     -0.1975
     65  CA        -5.5190   11.8650   27.4170 C.3   119  HIS119      0.1656
     66  C         -6.8720   11.3950   27.9510 C.2   119  HIS119      0.2291
     67  O         -7.1170   10.1870   28.1080 O.2   119  HIS119     -0.2864
     68  CB        -5.4740   11.5920   25.9070 C.3   119  HIS119      0.0771
     69  CG        -5.6000   10.1460   25.5530 C.ar  119  HIS119      0.0820
     70  ND1       -6.7930    9.5800   25.1590 N.ar  119  HIS119     -0.2267
     71  CD2       -4.6850    9.1460   25.5390 C.ar  119  HIS119      0.1154
     72  CE1       -6.6090    8.2940   24.9280 C.ar  119  HIS119      0.1986
     73  NE2       -5.3410    8.0070   25.1490 N.ar  119  HIS119     -0.2212
     74  N          1.0170    6.0190   36.4320 N.3   134  ALA134     -0.1245
     75  CA         0.6700    6.2850   35.0680 C.3   134  ALA134      0.1562
     76  C         -0.7550    5.9160   34.8310 C.2   134  ALA134      0.2260
     77  O         -1.1230    4.7720   35.0380 O.2   134  ALA134     -0.2867
     78  CB         1.5390    5.4670   34.1520 C.3   134  ALA134      0.0290
     79  N         -3.2750    5.5010   31.8220 N.3   136  ALA136     -0.1245
     80  CA        -3.1150    5.2590   30.3910 C.3   136  ALA136      0.1562
     81  C         -3.9850    6.1610   29.5040 C.2   136  ALA136      0.2260
     82  O         -3.6030    6.4920   28.3750 O.2   136  ALA136     -0.2867
     83  CB        -3.3900    3.7840   30.0800 C.3   136  ALA136      0.0290
     84  N         -8.3740    7.8800   29.4790 N.3   138  HIS138     -0.1241
     85  CA        -9.7830    7.7190   29.7970 C.3   138  HIS138      0.1621
     86  C         -9.9490    7.1810   31.1910 C.2   138  HIS138      0.2264
     87  O        -10.9310    6.5270   31.4640 O.2   138  HIS138     -0.2867
     88  CB       -10.5160    6.7740   28.8410 C.3   138  HIS138      0.0745
     89  CG       -10.1430    6.9260   27.3980 C.ar  138  HIS138      0.0817
     90  ND1      -10.6990    7.8910   26.5770 N.ar  138  HIS138     -0.2268
     91  CD2       -9.3190    6.1920   26.6110 C.ar  138  HIS138      0.1154
     92  CE1      -10.1790    7.7860   25.3630 C.ar  138  HIS138      0.1986
     93  NE2       -9.3440    6.7560   25.3520 N.ar  138  HIS138     -0.2212
     94  N          0.2850    1.4120   37.6500 N.3   152  LEU152     -0.1231
     95  CA        -0.1770    1.4940   36.2760 C.3   152  LEU152      0.1693
     96  C         -1.6860    1.2930   36.2510 C.2   152  LEU152      0.2592
     97  O         -2.2220    0.3230   36.8120 O.2   152  LEU152     -0.2718
     98  CB         0.4590    0.4020   35.4300 C.3   152  LEU152      0.0284
     99  CG         1.9530    0.2190   35.6380 C.3   152  LEU152      0.0019
    100  CD1        2.4990   -0.8280   34.6910 C.3   152  LEU152      0.0001
    101  CD2        2.7000    1.5360   35.4610 C.3   152  LEU152      0.0001
    102  N         -2.3650    2.1890   35.5500 N.am  153  VAL153     -0.1966
    103  CA        -3.8110    2.0820   35.4020 C.3   153  VAL153      0.1727
    104  C         -4.1730    2.0210   33.9410 C.2   153  VAL153      0.2616
    105  O         -3.8960    2.9600   33.1560 O.2   153  VAL153     -0.2715
    106  CB        -4.5410    3.2370   36.0670 C.3   153  VAL153      0.0290
    107  CG1       -6.0280    3.0920   35.8610 C.3   153  VAL153      0.0023
    108  CG2       -4.1780    3.2480   37.5540 C.3   153  VAL153      0.0023
    109  N         -4.7810    0.8870   33.5990 N.am  154  HIS154     -0.1959
    110  CA        -5.2270    0.5880   32.2450 C.3   154  HIS154      0.1787
    111  C         -6.3080    1.5880   31.7830 C.2   154  HIS154      0.2620
    112  O         -7.1040    2.0890   32.5810 O.2   154  HIS154     -0.2715
    113  CB        -5.7660   -0.8550   32.1850 C.3   154  HIS154      0.0785
    114  CG        -5.9080   -1.3950   30.8030 C.ar  154  HIS154      0.0821
    115  ND1       -7.0490   -1.2170   30.0510 N.ar  154  HIS154     -0.2267
    116  CD2       -5.0680   -2.1360   30.0410 C.ar  154  HIS154      0.1154
    117  CE1       -6.9010   -1.8060   28.8770 C.ar  154  HIS154      0.1986
    118  NE2       -5.7050   -2.3670   28.8440 N.ar  154  HIS154     -0.2212
    119  N         -6.3370    1.8460   30.4820 N.am  155  GLN155     -0.1963
    120  CA        -7.2580    2.7930   29.9460 C.3   155  GLN155      0.1733
    121  C         -8.6690    2.3860   30.2460 C.2   155  GLN155      0.2616
    122  O         -8.9360    1.2040   30.4060 O.2   155  GLN155     -0.2715
    123  CB        -7.0780    3.0200   28.4600 C.3   155  GLN155      0.0408
    124  CG        -7.0030    1.8230   27.5550 C.3   155  GLN155      0.0908
    125  CD        -5.6650    1.1610   27.4170 C.2   155  GLN155      0.2608
    126  OE1       -4.8490    1.1840   28.3230 O.2   155  GLN155     -0.2717
    127  NE2       -5.4390    0.5580   26.2560 N.am  155  GLN155     -0.0878
    128  N         -9.5340    3.4040   30.3820 N.am  156  TYR156     -0.1974
    129  CA       -10.9700    3.2970   30.7940 C.3   156  TYR156      0.1639
    130  C        -11.2450    2.8830   32.2130 C.2   156  TYR156      0.2290
    131  O        -12.3920    2.9100   32.5880 O.2   156  TYR156     -0.2864
    132  CB       -11.8200    2.4000   29.8540 C.3   156  TYR156      0.0560
    133  CG       -11.6460    2.7710   28.3760 C.ar  156  TYR156     -0.0198
    134  CD1      -12.2370    3.9190   27.8560 C.ar  156  TYR156     -0.0009
    135  CD2      -10.8570    2.0100   27.5510 C.ar  156  TYR156     -0.0009
    136  CE1      -12.0500    4.2860   26.5360 C.ar  156  TYR156      0.0417
    137  CE2      -10.6340    2.3750   26.2340 C.ar  156  TYR156      0.0417
    138  CZ       -11.2380    3.5030   25.7270 C.ar  156  TYR156      0.1957
    139  OH       -11.0220    3.8110   24.4060 O.3   156  TYR156     -0.2866
@<TRIPOS>BOND
     1    26    25    2
     2    29    28    1
     3    30    28    1
     4    34    33    2
     5    27    28    1
     6    27    24    1
     7    25    24    1
     8    25    31   am
     9    32    33    1
    10    32    31    1
    11    32    35    1
    12    24    23    1
    13    36    35    1
    14    36    37    1
    15    23    17   am
    16    37    38    1
    17    18    17    2
    18    17    16    1
    19    11    10    2
    20    38    39    1
    21    21    20   ar
    22    10     9    1
    23    10    15   am
    24    16    15    1
    25    16    19    1
    26    20    19    1
    27    20    22   ar
    28     4     3    2
    29     9    12    1
    30     9     8    1
    31    12    13    1
    32     3     8   am
    33     3     2    1
    34     8    14    1
    35     7     5    1
    36    13    14    1
    37     1     2    1
    38     2     5    1
    39     5     6    1
    40   139   138    1
    41    72    73   ar
    42    72    70   ar
    43    73    71   ar
    44    70    69   ar
    45    93    92   ar
    46    93    91   ar
    47    92    90   ar
    48    71    69   ar
    49    69    68    1
    50   138   137   ar
    51   138   136   ar
    52    68    65    1
    53   137   135   ar
    54   127   125   am
    55    48    46   ar
    56    48    49   ar
    57   136   134   ar
    58    46    45   ar
    59    90    89   ar
    60    91    89   ar
    61    49    47   ar
    62    45    47   ar
    63    45    44    1
    64    44    41    1
    65    89    88    1
    66   125   124    1
    67   125   126    2
    68    65    66    1
    69    65    64    1
    70   135   133   ar
    71   124   123    1
    72    42    41    1
    73    42    43    2
    74   134   133   ar
    75    41    40    1
    76    66    67    2
    77    64    62   am
    78    82    81    2
    79   133   132    1
    80   123   120    1
    81    88    85    1
    82   118   117   ar
    83   118   116   ar
    84   117   115   ar
    85    58    59   ar
    86    58    56   ar
    87    62    61    1
    88    62    63    2
    89    59    57   ar
    90    84    85    1
    91    81    80    1
    92    85    86    1
    93    61    60    1
    94   132   129    1
    95   120   121    1
    96   120   119    1
    97   116   114   ar
    98   115   114   ar
    99    83    80    1
   100   121   128   am
   101   121   122    2
   102   128   129    1
   103    56    55   ar
   104    80    79    1
   105   119   111   am
   106    57    55   ar
   107   129   130    1
   108   114   113    1
   109    86    87    2
   110    55    54    1
   111   111   110    1
   112   111   112    2
   113   113   110    1
   114   130   131    2
   115   110   109    1
   116    54    51    1
   117   105   104    2
   118    51    52    1
   119    51    50    1
   120   109   104   am
   121    52    53    2
   122   104   103    1
   123    78    75    1
   124   100    99    1
   125    76    77    2
   126    76    75    1
   127    75    74    1
   128   103   102    1
   129   103   106    1
   130    98    99    1
   131    98    95    1
   132   101    99    1
   133   102    96   am
   134   107   106    1
   135   106   108    1
   136    96    95    1
   137    96    97    2
   138    95    94    1
