@<TRIPOS>MOLECULE
tmp/5dg5A00.pdb
 239 231 0 0 0
SMALL
GASTEIGER

@<TRIPOS>ATOM
      1  N         10.4560   34.2840    9.7580 N.3    35  ILE35      -0.1245
      2  CA        10.1660   33.1780    8.8670 C.3    35  ILE35       0.1561
      3  C         10.7100   33.4880    7.4710 C.2    35  ILE35       0.2260
      4  O         11.2330   32.6050    6.8190 O.2    35  ILE35      -0.2867
      5  CB         8.6540   32.8660    8.8190 C.3    35  ILE35       0.0252
      6  CG1        8.1960   32.3340   10.1790 C.3    35  ILE35       0.0019
      7  CG2        8.3570   31.8480    7.7280 C.3    35  ILE35       0.0019
      8  CD1        6.6930   32.2080   10.3470 C.3    35  ILE35       0.0001
      9  N          8.0300   38.2880    7.2690 N.3    43  VAL43      -0.1245
     10  CA         7.0420   37.3870    7.8600 C.3    43  VAL43       0.1561
     11  C          7.6180   36.8900    9.1640 C.2    43  VAL43       0.2260
     12  O          8.7110   36.3360    9.1740 O.2    43  VAL43      -0.2867
     13  CB         6.7600   36.1510    6.9820 C.3    43  VAL43       0.0252
     14  CG1        5.5670   35.3830    7.5150 C.3    43  VAL43       0.0019
     15  CG2        6.5340   36.5500    5.5330 C.3    43  VAL43       0.0019
     16  N          7.0080   34.7280   13.0190 N.3    45  HIS45      -0.1241
     17  CA         6.1670   33.9710   13.9300 C.3    45  HIS45       0.1621
     18  C          5.4010   34.9980   14.7690 C.2    45  HIS45       0.2264
     19  O          5.8910   36.1080   15.0090 O.2    45  HIS45      -0.2867
     20  CB         6.9900   33.0810   14.8550 C.3    45  HIS45       0.0745
     21  CG         7.6800   31.9390   14.1700 C.ar   45  HIS45       0.0817
     22  ND1        7.2100   30.6460   14.2290 N.ar   45  HIS45      -0.2268
     23  CD2        8.8290   31.8870   13.4540 C.ar   45  HIS45       0.1154
     24  CE1        8.0240   29.8490   13.5630 C.ar   45  HIS45       0.1986
     25  NE2        9.0190   30.5760   13.0880 N.ar   45  HIS45      -0.2212
     26  N          1.3990   33.0900   11.6400 N.3    59  ALA59      -0.1245
     27  CA         2.4500   33.7370   10.8500 C.3    59  ALA59       0.1562
     28  C          1.9970   35.1490   10.5130 C.2    59  ALA59       0.2260
     29  O          0.8940   35.3380    9.9760 O.2    59  ALA59      -0.2867
     30  CB         2.7010   32.9630    9.5780 C.3    59  ALA59       0.0290
     31  N          2.4400   38.4940    8.4770 N.3    61  LYS61      -0.1245
     32  CA         3.0340   39.0730    7.2780 C.3    61  LYS61       0.1561
     33  C          2.9500   40.5950    7.3250 C.2    61  LYS61       0.2260
     34  O          1.8600   41.1620    7.3130 O.2    61  LYS61      -0.2867
     35  CB         2.3280   38.5340    6.0350 C.3    61  LYS61       0.0271
     36  CG         2.7320   39.2260    4.7510 C.3    61  LYS61       0.0035
     37  CD         2.1930   38.4920    3.5420 C.3    61  LYS61       0.0206
     38  CE         2.4410   39.2820    2.2720 C.3    61  LYS61       0.1093
     39  NZ         1.7240   38.6840    1.1200 N.3    61  LYS61      -0.1314
     40  N         -5.0470   41.5300   -1.4670 N.3    78  GLU78      -0.1231
     41  CA        -4.5700   40.1500   -1.3870 C.3    78  GLU78       0.1699
     42  C         -5.1050   39.4420   -0.1490 C.2    78  GLU78       0.2592
     43  O         -5.5280   38.2870   -0.2240 O.2    78  GLU78      -0.2718
     44  CB        -3.0490   40.1200   -1.3400 C.3    78  GLU78       0.0402
     45  CG        -2.3740   40.3520   -2.6760 C.3    78  GLU78       0.1161
     46  CD        -0.8910   40.6360   -2.5370 C.2    78  GLU78       0.3649
     47  OE1       -0.3660   40.6170   -1.3970 O.co2  78  GLU78      -0.2457
     48  OE2       -0.2470   40.8850   -3.5680 O.co2  78  GLU78      -0.2457
     49  N         -5.0650   40.1460    0.9840 N.am   79  GLY79      -0.1957
     50  CA        -5.6250   39.6600    2.2450 C.3    79  GLY79       0.1869
     51  C         -7.1190   39.4010    2.1740 C.2    79  GLY79       0.2309
     52  O         -7.5990   38.3740    2.6480 O.2    79  GLY79      -0.2863
     53  N         -9.0310   38.9660   -0.5690 N.3    81  ILE81      -0.1231
     54  CA        -9.3040   37.8710   -1.5010 C.3    81  ILE81       0.1692
     55  C         -9.3620   36.5270   -0.7760 C.2    81  ILE81       0.2591
     56  O        -10.2230   35.6890   -1.0480 O.2    81  ILE81      -0.2718
     57  CB        -8.2480   37.8300   -2.6300 C.3    81  ILE81       0.0266
     58  CG1       -8.5860   38.8790   -3.6860 C.3    81  ILE81       0.0019
     59  CG2       -8.1850   36.4600   -3.2940 C.3    81  ILE81       0.0020
     60  CD1       -7.4360   39.1970   -4.6190 C.3    81  ILE81       0.0001
     61  N         -8.4520   36.3320    0.1600 N.am   82  MET82      -0.1979
     62  CA        -8.3300   35.0500    0.8210 C.3    82  MET82       0.1605
     63  C         -9.2690   34.9380    2.0270 C.2    82  MET82       0.2287
     64  O         -9.4570   33.8540    2.5650 O.2    82  MET82      -0.2864
     65  CB        -6.8400   34.7870    1.1240 C.3    82  MET82       0.0413
     66  CG        -6.4040   34.6800    2.5680 C.3    82  MET82       0.0598
     67  SD        -4.6000   34.7120    2.6260 S.3    82  MET82      -0.1393
     68  CE        -4.2440   32.9820    2.9680 C.3    82  MET82       0.0692
     69  N        -12.6010   32.9160    0.7370 N.3    85  PHE85      -0.1241
     70  CA       -12.5290   31.4830    0.4430 C.3    85  PHE85       0.1605
     71  C        -12.6920   30.7340    1.7460 C.2    85  PHE85       0.2264
     72  O        -12.2510   31.2100    2.7960 O.2    85  PHE85      -0.2867
     73  CB       -11.1760   31.0740   -0.1680 C.3    85  PHE85       0.0534
     74  CG       -10.8610   31.7360   -1.4780 C.ar   85  PHE85      -0.0203
     75  CD1      -11.8610   32.0100   -2.3990 C.ar   85  PHE85      -0.0042
     76  CD2       -9.5550   32.0760   -1.7920 C.ar   85  PHE85      -0.0042
     77  CE1      -11.5670   32.6230   -3.5990 C.ar   85  PHE85      -0.0003
     78  CE2       -9.2550   32.6950   -2.9880 C.ar   85  PHE85      -0.0003
     79  CZ       -10.2570   32.9660   -3.8930 C.ar   85  PHE85      -0.0000
     80  N         -7.4520   25.1410    1.0960 N.3    90  VAL90      -0.1231
     81  CA        -7.0870   26.4970    0.7370 C.3    90  VAL90       0.1692
     82  C         -6.7220   27.2290    1.9990 C.2    90  VAL90       0.2591
     83  O         -7.4600   27.1830    2.9670 O.2    90  VAL90      -0.2718
     84  CB        -8.2410   27.2230    0.0560 C.3    90  VAL90       0.0266
     85  CG1       -7.8980   28.6810   -0.1590 C.3    90  VAL90       0.0020
     86  CG2       -8.5610   26.5400   -1.2680 C.3    90  VAL90       0.0020
     87  N         -5.5940   27.9310    1.9780 N.am   91  LEU91      -0.1980
     88  CA        -5.0970   28.6000    3.1630 C.3    91  LEU91       0.1596
     89  C         -6.0400   29.7380    3.5050 C.2    91  LEU91       0.2287
     90  O         -6.4100   30.5260    2.6380 O.2    91  LEU91      -0.2864
     91  CB        -3.6680   29.1130    2.9500 C.3    91  LEU91       0.0297
     92  CG        -3.0170   29.7240    4.1920 C.3    91  LEU91       0.0022
     93  CD1       -2.7600   28.6650    5.2500 C.3    91  LEU91       0.0001
     94  CD2       -1.7160   30.4450    3.8710 C.3    91  LEU91       0.0001
     95  N         -1.0120   41.1420    7.9380 N.3   106  VAL106     -0.1245
     96  CA        -1.9120   40.0620    7.5710 C.3   106  VAL106      0.1561
     97  C         -1.4690   38.8420    8.3570 C.2   106  VAL106      0.2260
     98  O         -0.2960   38.4800    8.3370 O.2   106  VAL106     -0.2867
     99  CB        -1.8770   39.7950    6.0620 C.3   106  VAL106      0.0252
    100  CG1       -2.5690   38.4870    5.7120 C.3   106  VAL106      0.0019
    101  CG2       -2.5410   40.9500    5.3370 C.3   106  VAL106      0.0019
    102  N         -1.8610   34.8180    9.4640 N.3   108  LEU108     -0.1231
    103  CA        -2.2070   33.5400    8.8660 C.3   108  LEU108      0.1678
    104  C         -1.9790   32.3990    9.8390 C.2   108  LEU108      0.2434
    105  O         -1.0940   32.4820   10.6890 O.2   108  LEU108     -0.2733
    106  CB        -1.3290   33.3260    7.6520 C.3   108  LEU108      0.0284
    107  CG        -1.5930   34.3760    6.5950 C.3   108  LEU108      0.0019
    108  CD1       -0.3410   34.6540    5.7960 C.3   108  LEU108      0.0001
    109  CD2       -2.7230   33.9020    5.7100 C.3   108  LEU108      0.0001
    110  N         -2.7440   31.3080    9.6980 N.am  109  PRO109     -0.2718
    111  CA        -2.4720   30.1790   10.5550 C.3   109  PRO109      0.1535
    112  C         -1.0830   29.6410   10.2740 C.2   109  PRO109      0.2599
    113  O         -0.6620   29.5710    9.1150 O.2   109  PRO109     -0.2715
    114  CB        -3.5210   29.1500   10.1570 C.3   109  PRO109      0.0310
    115  CG        -4.3710   29.7840    9.1250 C.3   109  PRO109      0.0237
    116  CD        -3.6440   30.9640    8.5980 C.3   109  PRO109      0.0939
    117  N         -0.3810   29.2730   11.3380 N.am  110  TYR110     -0.1960
    118  CA         0.9260   28.6570   11.2230 C.3   110  TYR110      0.1771
    119  C          0.7980   27.2430   10.6950 C.2   110  TYR110      0.2619
    120  O         -0.0470   26.4870   11.1640 O.2   110  TYR110     -0.2715
    121  CB         1.6090   28.6110   12.5810 C.3   110  TYR110      0.0574
    122  CG         3.0220   28.1380   12.4900 C.ar  110  TYR110     -0.0198
    123  CD1        4.0030   28.9640   11.9540 C.ar  110  TYR110     -0.0009
    124  CD2        3.3910   26.8730   12.9250 C.ar  110  TYR110     -0.0009
    125  CE1        5.3250   28.5550   11.8650 C.ar  110  TYR110      0.0417
    126  CE2        4.7130   26.4570   12.8430 C.ar  110  TYR110      0.0417
    127  CZ         5.6750   27.3030   12.3040 C.ar  110  TYR110      0.1957
    128  OH         6.9890   26.9250   12.1980 O.3   110  TYR110     -0.2866
    129  N          1.6660   26.9090    9.7430 N.am  111  MET111     -0.1963
    130  CA         1.6880   25.6140    9.0940 C.3   111  MET111      0.1736
    131  C          2.8900   24.8120    9.5730 C.2   111  MET111      0.2616
    132  O          4.0190   25.0420    9.1280 O.2   111  MET111     -0.2715
    133  CB         1.7970   25.8180    7.5970 C.3   111  MET111      0.0427
    134  CG         0.6600   26.6230    7.0060 C.3   111  MET111      0.0599
    135  SD        -0.7980   25.6080    6.7650 S.3   111  MET111     -0.1393
    136  CE        -1.8520   26.1250    8.1030 C.3   111  MET111      0.0692
    137  N          2.6470   23.8600   10.4710 N.am  112  LYS112     -0.1963
    138  CA         3.7300   23.1320   11.1330 C.3   112  LYS112      0.1728
    139  C          4.8330   22.6840   10.1850 C.2   112  LYS112      0.2616
    140  O          6.0060   22.8560   10.4890 O.2   112  LYS112     -0.2715
    141  CB         3.1810   21.9280   11.9000 C.3   112  LYS112      0.0311
    142  CG         4.2410   21.0910   12.6070 C.3   112  LYS112      0.0038
    143  CD         3.6150   20.2390   13.7030 C.3   112  LYS112      0.0206
    144  CE         4.5260   19.1040   14.1550 C.3   112  LYS112      0.1093
    145  NZ         3.7090   17.9820   14.7000 N.3   112  LYS112     -0.1314
    146  N          4.4700   22.1400    9.0280 N.am  113  HIS113     -0.1959
    147  CA         5.4670   21.5600    8.1270 C.3   113  HIS113      0.1787
    148  C          5.8690   22.4410    6.9410 C.2   113  HIS113      0.2620
    149  O          6.4730   21.9490    5.9770 O.2   113  HIS113     -0.2715
    150  CB         4.9910   20.1880    7.6650 C.3   113  HIS113      0.0785
    151  CG         4.8530   19.2010    8.7840 C.ar  113  HIS113      0.0821
    152  ND1        3.6310   18.8290    9.3060 N.ar  113  HIS113     -0.2267
    153  CD2        5.7880   18.5280    9.4980 C.ar  113  HIS113      0.1154
    154  CE1        3.8180   17.9550   10.2800 C.ar  113  HIS113      0.1986
    155  NE2        5.1170   17.7560   10.4160 N.ar  113  HIS113     -0.2212
    156  N          5.5590   23.7360    7.0080 N.am  114  GLY114     -0.1954
    157  CA         6.0600   24.6970    6.0140 C.3   114  GLY114      0.1869
    158  C          5.5130   24.4700    4.6100 C.2   114  GLY114      0.2309
    159  O          4.3680   24.0680    4.4630 O.2   114  GLY114     -0.2863
    160  N        -11.3640   26.5960   -5.8930 N.3   146  LEU146     -0.1245
    161  CA       -11.0230   27.9250   -6.3820 C.3   146  LEU146      0.1561
    162  C        -11.5370   28.1670   -7.7940 C.2   146  LEU146      0.2260
    163  O        -12.0020   29.2570   -8.1010 O.2   146  LEU146     -0.2867
    164  CB        -9.5110   28.1290   -6.3540 C.3   146  LEU146      0.0270
    165  CG        -8.8860   28.1290   -4.9650 C.3   146  LEU146      0.0019
    166  CD1       -7.3740   28.1700   -5.0720 C.3   146  LEU146      0.0001
    167  CD2       -9.3970   29.3020   -4.1520 C.3   146  LEU146      0.0001
    168  N        -11.7720   31.8510   -9.5570 N.3   151  PHE151     -0.1241
    169  CA       -10.4760   32.4170   -9.1780 C.3   151  PHE151      0.1605
    170  C         -9.3640   31.7540   -9.9650 C.2   151  PHE151      0.2264
    171  O         -9.2460   30.5360   -9.9560 O.2   151  PHE151     -0.2867
    172  CB       -10.2160   32.2050   -7.7000 C.3   151  PHE151      0.0534
    173  CG        -8.8770   32.7050   -7.2420 C.ar  151  PHE151     -0.0203
    174  CD1       -8.6880   34.0440   -6.9420 C.ar  151  PHE151     -0.0042
    175  CD2       -7.8090   31.8360   -7.0910 C.ar  151  PHE151     -0.0042
    176  CE1       -7.4590   34.5120   -6.5050 C.ar  151  PHE151     -0.0003
    177  CE2       -6.5790   32.3000   -6.6650 C.ar  151  PHE151     -0.0003
    178  CZ        -6.4040   33.6410   -6.3700 C.ar  151  PHE151     -0.0000
    179  N         -5.3850   31.2180  -10.2570 N.3   153  HIS153     -0.1241
    180  CA        -4.2690   31.2780   -9.3100 C.3   153  HIS153      0.1621
    181  C         -3.0510   31.9840   -9.8990 C.2   153  HIS153      0.2264
    182  O         -2.5000   32.8600   -9.2600 O.2   153  HIS153     -0.2867
    183  CB        -3.9030   29.8640   -8.8450 C.3   153  HIS153      0.0745
    184  CG        -2.9900   29.8240   -7.6550 C.ar  153  HIS153      0.0817
    185  ND1       -1.6690   30.2120   -7.7110 N.ar  153  HIS153     -0.2268
    186  CD2       -3.2010   29.4020   -6.3870 C.ar  153  HIS153      0.1154
    187  CE1       -1.1080   30.0510   -6.5280 C.ar  153  HIS153      0.1986
    188  NE2       -2.0160   29.5590   -5.7060 N.ar  153  HIS153     -0.2212
    189  N          1.1330   24.9770    1.3330 N.3   162  MET162     -0.1245
    190  CA         1.6130   24.7700    2.6910 C.3   162  MET162      0.1570
    191  C          1.0890   23.4360    3.1810 C.2   162  MET162      0.2261
    192  O          0.2140   22.8380    2.5400 O.2   162  MET162     -0.2867
    193  CB         1.1340   25.8750    3.6320 C.3   162  MET162      0.0387
    194  CG         1.3390   27.2990    3.1280 C.3   162  MET162      0.0595
    195  SD         3.0560   27.7460    2.7950 S.3   162  MET162     -0.1393
    196  CE         3.7760   27.6060    4.4260 C.3   162  MET162      0.0692
    197  N         -3.5480   25.0840   -0.3710 N.3   171  VAL171     -0.1231
    198  CA        -3.1070   25.8970   -1.4960 C.3   171  VAL171      0.1692
    199  C         -3.0040   27.3560   -1.0340 C.2   171  VAL171      0.2592
    200  O         -3.8340   27.8350   -0.2720 O.2   171  VAL171     -0.2718
    201  CB        -4.0370   25.7750   -2.7110 C.3   171  VAL171      0.0266
    202  CG1       -3.5830   26.6910   -3.8340 C.3   171  VAL171      0.0020
    203  CG2       -4.0540   24.3400   -3.2110 C.3   171  VAL171      0.0020
    204  N         -1.9720   28.0440   -1.4960 N.am  172  ALA172     -0.1966
    205  CA        -1.6970   29.3940   -1.0650 C.3   172  ALA172      0.1728
    206  C         -1.0560   30.2050   -2.1800 C.2   172  ALA172      0.2616
    207  O         -0.7240   29.6690   -3.2400 O.2   172  ALA172     -0.2715
    208  CB        -0.7820   29.3480    0.1370 C.3   172  ALA172      0.0334
    209  N         -0.8940   31.5040   -1.9470 N.am  173  ASP173     -0.1957
    210  CA        -0.1180   32.3500   -2.8520 C.3   173  ASP173      0.1840
    211  C          0.9620   33.0790   -2.0450 C.2   173  ASP173      0.2622
    212  O          1.0080   34.3090   -1.9770 O.2   173  ASP173     -0.2715
    213  CB        -1.0100   33.3160   -3.6280 C.3   173  ASP173      0.1450
    214  CG        -0.3260   33.8830   -4.8610 C.2   173  ASP173      0.3671
    215  OD1        0.8450   33.5330   -5.1320 O.co2 173  ASP173     -0.2456
    216  OD2       -0.9660   34.6880   -5.5730 O.co2 173  ASP173     -0.2456
    217  N          1.8520   32.2670   -1.4800 N.am  174  PHE174     -0.1974
    218  CA         2.9330   32.6880   -0.5950 C.3   174  PHE174      0.1639
    219  C          3.9640   33.5670   -1.3170 C.2   174  PHE174      0.2290
    220  O          4.4090   34.5650   -0.7730 O.2   174  PHE174     -0.2864
    221  CB         3.5940   31.4120   -0.0700 C.3   174  PHE174      0.0560
    222  CG         4.5830   31.6020    1.0390 C.ar  174  PHE174     -0.0200
    223  CD1        4.6500   32.7680    1.7900 C.ar  174  PHE174     -0.0042
    224  CD2        5.4160   30.5480    1.3760 C.ar  174  PHE174     -0.0042
    225  CE1        5.5530   32.8870    2.8390 C.ar  174  PHE174     -0.0003
    226  CE2        6.3240   30.6630    2.4150 C.ar  174  PHE174     -0.0003
    227  CZ         6.3890   31.8360    3.1520 C.ar  174  PHE174     -0.0000
    228  N         12.8820   32.0860    4.3800 N.3   185  TYR185     -0.1241
    229  CA        12.2920   32.1970    3.0560 C.3   185  TYR185      0.1605
    230  C         12.6690   33.5170    2.4020 C.2   185  TYR185      0.2264
    231  O         12.8310   34.5060    3.0890 O.2   185  TYR185     -0.2867
    232  CB        10.7690   32.1090    3.1640 C.3   185  TYR185      0.0534
    233  CG        10.2640   30.7220    3.4500 C.ar  185  TYR185     -0.0201
    234  CD1        9.8510   29.8970    2.4160 C.ar  185  TYR185     -0.0009
    235  CD2       10.2120   30.2290    4.7480 C.ar  185  TYR185     -0.0009
    236  CE1        9.3930   28.6250    2.6700 C.ar  185  TYR185      0.0417
    237  CE2        9.7510   28.9550    5.0100 C.ar  185  TYR185      0.0417
    238  CZ         9.3530   28.1620    3.9630 C.ar  185  TYR185      0.1957
    239  OH         8.9150   26.8920    4.2020 O.3   185  TYR185     -0.2866
@<TRIPOS>BOND
     1   179   180    1
     2   170   171    2
     3   170   169    1
     4   181   180    1
     5   181   182    2
     6   168   169    1
     7   180   183    1
     8   169   172    1
     9   183   184    1
    10   163   162    2
    11   162   161    1
    12   185   184   ar
    13   185   187   ar
    14   172   173    1
    15   184   186   ar
    16   173   175   ar
    17   173   174   ar
    18   175   177   ar
    19   174   176   ar
    20   177   178   ar
    21   187   188   ar
    22   176   178   ar
    23   186   188   ar
    24   161   164    1
    25   161   160    1
    26   164   165    1
    27   216   214   ar
    28   215   214   ar
    29   166   165    1
    30   165   167    1
    31   214   213    1
    32    60    58    1
    33    79    77   ar
    34    79    78   ar
    35   202   201    1
    36    58    57    1
    37   213   210    1
    38    77    75   ar
    39    48    46   ar
    40    59    57    1
    41   207   206    2
    42   203   201    1
    43    78    76   ar
    44   210   211    1
    45   210   209    1
    46   201   198    1
    47    45    46    1
    48    45    44    1
    49    57    54    1
    50    46    47   ar
    51    75    74   ar
    52   206   209   am
    53   206   205    1
    54   211   212    2
    55   211   217   am
    56    76    74   ar
    57    54    55    1
    58    54    53    1
    59   204   205    1
    60   204   199   am
    61   198   199    1
    62   198   197    1
    63   217   218    1
    64    74    73    1
    65    40    41    1
    66    41    44    1
    67    41    42    1
    68   219   220    2
    69   219   218    1
    70    86    84    1
    71   205   208    1
    72    56    55    2
    73   199   200    2
    74    55    61   am
    75   218   221    1
    76    43    42    2
    77    73    70    1
    78    85    84    1
    79    42    49   am
    80   221   222    1
    81    84    81    1
    82    61    62    1
    83    70    69    1
    84    70    71    1
    85    81    80    1
    86    81    82    1
    87    62    65    1
    88    62    63    1
    89    49    50    1
    90   222   224   ar
    91   222   223   ar
    92    39    38    1
    93    65    66    1
    94   189   190    1
    95   224   226   ar
    96    71    72    2
    97   223   225   ar
    98    87    82   am
    99    87    88    1
   100    82    83    2
   101    63    64    2
   102    51    50    1
   103    51    52    2
   104    38    37    1
   105   230   229    1
   106   230   231    2
   107   226   227   ar
   108   234   236   ar
   109   234   233   ar
   110   192   191    2
   111    66    67    1
   112    67    68    1
   113    90    89    2
   114   236   238   ar
   115   190   191    1
   116   190   193    1
   117   195   194    1
   118   195   196    1
   119   225   227   ar
   120    91    88    1
   121    91    92    1
   122   229   232    1
   123   229   228    1
   124   194   193    1
   125    88    89    1
   126   232   233    1
   127   233   235   ar
   128    37    36    1
   129    94    92    1
   130   238   239    1
   131   238   237   ar
   132    92    93    1
   133   159   158    2
   134   158   157    1
   135   235   237   ar
   136    36    35    1
   137   101    99    1
   138    15    13    1
   139   109   107    1
   140   100    99    1
   141   108   107    1
   142   149   148    2
   143   157   156    1
   144    35    32    1
   145    99    96    1
   146   107   106    1
   147   135   134    1
   148   135   136    1
   149     4     3    2
   150   148   156   am
   151   148   147    1
   152    13    14    1
   153    13    10    1
   154   134   133    1
   155     9    10    1
   156    32    33    1
   157    32    31    1
   158    34    33    2
   159     3     2    1
   160    96    95    1
   161    96    97    1
   162   133   130    1
   163   106   103    1
   164   150   147    1
   165   150   151    1
   166     7     5    1
   167    10    11    1
   168   147   146    1
   169    98    97    2
   170   116   115    1
   171   116   110    1
   172   151   152   ar
   173   151   153   ar
   174     5     2    1
   175     5     6    1
   176   103   102    1
   177   103   104    1
   178     2     1    1
   179   146   139   am
   180   130   131    1
   181   130   129    1
   182   113   112    2
   183   115   114    1
   184   132   131    2
   185    11    12    2
   186   152   154   ar
   187   153   155   ar
   188   131   137   am
   189    30    27    1
   190   110   104   am
   191   110   111    1
   192   129   119   am
   193   104   105    2
   194    29    28    2
   195   114   111    1
   196     6     8    1
   197   139   140    2
   198   139   138    1
   199   112   111    1
   200   112   117   am
   201   154   155   ar
   202   137   138    1
   203    28    27    1
   204   119   120    2
   205   119   118    1
   206    27    26    1
   207   138   141    1
   208   118   117    1
   209   118   121    1
   210   125   123   ar
   211   125   127   ar
   212   141   142    1
   213   123   122   ar
   214   128   127    1
   215   127   126   ar
   216   122   121    1
   217   122   124   ar
   218   142   143    1
   219   126   124   ar
   220    16    17    1
   221    25    23   ar
   222    25    24   ar
   223    23    21   ar
   224    24    22   ar
   225   143   144    1
   226    17    18    1
   227    17    20    1
   228   144   145    1
   229    21    22   ar
   230    21    20    1
   231    18    19    2
