@<TRIPOS>MOLECULE
tmp/5dg6A00.pdb
 151 146 0 0 0
SMALL
GASTEIGER

@<TRIPOS>ATOM
      1  N        -14.8460    7.7480    4.8430 N.3    31  HIS31      -0.1226
      2  CA       -14.0460    8.9510    5.0120 C.3    31  HIS31       0.1752
      3  C        -13.6930    9.6560    3.7030 C.2    31  HIS31       0.2595
      4  O        -13.2540   10.8110    3.7630 O.2    31  HIS31      -0.2718
      5  CB       -12.7680    8.6410    5.7970 C.3    31  HIS31       0.0759
      6  CG       -11.7300    7.8780    5.0390 C.ar   31  HIS31       0.0818
      7  ND1      -11.6770    6.4990    5.0300 N.ar   31  HIS31      -0.2268
      8  CD2      -10.6570    8.3000    4.3250 C.ar   31  HIS31       0.1154
      9  CE1      -10.6350    6.1070    4.3140 C.ar   31  HIS31       0.1986
     10  NE2       -9.9960    7.1810    3.8820 N.ar   31  HIS31      -0.2212
     11  N        -13.8710    9.0340    2.5320 N.am   32  VAL32      -0.1980
     12  CA       -13.5880    9.7660    1.2970 C.3    32  VAL32       0.1595
     13  C        -14.7930   10.5840    0.8620 C.2    32  VAL32       0.2287
     14  O        -14.6280   11.5530    0.1080 O.2    32  VAL32      -0.2864
     15  CB       -13.1250    8.8600    0.1340 C.3    32  VAL32       0.0276
     16  CG1      -12.1480    7.8160    0.6170 C.3    32  VAL32       0.0022
     17  CG2      -14.2770    8.1950   -0.6000 C.3    32  VAL32       0.0022
     18  N        -16.9120    2.4950    8.3890 N.3    55  GLU55      -0.1245
     19  CA       -16.2030    3.1020    7.2760 C.3    55  GLU55       0.1567
     20  C        -16.6970    2.6000    5.9140 C.2    55  GLU55       0.2260
     21  O        -16.1380    3.0050    4.8880 O.2    55  GLU55      -0.2867
     22  CB       -14.6810    2.9110    7.3820 C.3    55  GLU55       0.0388
     23  CG       -14.0170    3.9880    8.2340 C.3    55  GLU55       0.1160
     24  CD       -14.2270    5.3920    7.6740 C.2    55  GLU55       0.3649
     25  OE1      -14.8470    6.2130    8.3810 O.co2  55  GLU55      -0.2457
     26  OE2      -13.7910    5.6680    6.5230 O.co2  55  GLU55      -0.2457
     27  N         -9.0710   -0.6280   15.1900 N.3   109  ARG109     -0.1231
     28  CA        -8.8510    0.7900   15.4330 C.3   109  ARG109      0.1694
     29  C         -7.8940    1.3080   14.3710 C.2   109  ARG109      0.2592
     30  O         -6.8500    0.7020   14.1160 O.2   109  ARG109     -0.2718
     31  CB        -8.2890    1.0300   16.8440 C.3   109  ARG109      0.0321
     32  CG        -8.1960    2.4730   17.2470 C.3   109  ARG109      0.0489
     33  CD        -7.5620    2.5680   18.6170 C.3   109  ARG109      0.2205
     34  NE        -6.1090    2.6580   18.5140 N.pl3 109  ARG109     -0.0865
     35  CZ        -5.4530    3.7530   18.1010 C.cat 109  ARG109      0.5346
     36  NH1       -6.1050    4.8970   17.8800 N.pl3 109  ARG109      0.1354
     37  NH2       -4.1250    3.7170   17.9460 N.pl3 109  ARG109      0.1354
     38  N         -8.2730    2.3920   13.7090 N.am  110  ILE110     -0.1966
     39  CA        -7.3650    3.0290   12.7670 C.3   110  ILE110      0.1727
     40  C         -7.5620    4.5330   12.8430 C.2   110  ILE110      0.2616
     41  O         -8.5970    5.0520   12.4130 O.2   110  ILE110     -0.2715
     42  CB        -7.5850    2.5180   11.3330 C.3   110  ILE110      0.0290
     43  CG1       -7.5600    0.9810   11.2980 C.3   110  ILE110      0.0022
     44  CG2       -6.5260    3.1360   10.4120 C.3   110  ILE110      0.0023
     45  CD1       -7.7620    0.3660    9.9150 C.3   110  ILE110      0.0001
     46  N         -6.5730    5.2410   13.3820 N.am  111  GLN111     -0.1977
     47  CA        -6.6890    6.6790   13.6290 C.3   111  GLN111      0.1601
     48  C         -7.9860    7.0150   14.3620 C.2   111  GLN111      0.2287
     49  O         -8.7580    7.8810   13.9450 O.2   111  GLN111     -0.2864
     50  CB        -6.5860    7.4580   12.3190 C.3   111  GLN111      0.0394
     51  CG        -5.1660    7.6050   11.8650 C.3   111  GLN111      0.0908
     52  CD        -5.0430    7.7500   10.3810 C.2   111  GLN111      0.2608
     53  OE1       -4.1650    7.1540    9.7730 O.2   111  GLN111     -0.2717
     54  NE2       -5.9030    8.5640    9.7860 N.am  111  GLN111     -0.0878
     55  N        -10.8390    5.9570   14.4390 N.3   113  ARG113     -0.1245
     56  CA       -12.0910    5.5080   13.8410 C.3   113  ARG113      0.1563
     57  C        -12.1810    3.9850   13.8780 C.2   113  ARG113      0.2260
     58  O        -11.2020    3.2790   13.6280 O.2   113  ARG113     -0.2867
     59  CB       -12.2380    6.0060   12.3980 C.3   113  ARG113      0.0307
     60  CG       -12.7760    7.4390   12.1910 C.3   113  ARG113      0.0489
     61  CD       -11.7500    8.5050   12.5060 C.3   113  ARG113      0.2205
     62  NE       -10.4970    8.4270   11.7270 N.pl3 113  ARG113     -0.0865
     63  CZ       -10.3630    9.0580   10.5520 C.cat 113  ARG113      0.5346
     64  NH1      -11.3670    9.7840   10.0440 N.pl3 113  ARG113      0.1354
     65  NH2       -9.2070    9.0190    9.8770 N.pl3 113  ARG113      0.1354
     66  N        -13.3350    0.4970   12.3600 N.3   115  VAL115     -0.1245
     67  CA       -13.4290   -0.0090   10.9990 C.3   115  VAL115      0.1561
     68  C        -13.7840   -1.4830   11.0630 C.2   115  VAL115      0.2260
     69  O        -13.0390   -2.2810   11.6470 O.2   115  VAL115     -0.2867
     70  CB       -12.1190    0.1900   10.2250 C.3   115  VAL115      0.0252
     71  CG1      -12.2640   -0.2680    8.7660 C.3   115  VAL115      0.0019
     72  CG2      -11.6950    1.6400   10.3110 C.3   115  VAL115      0.0019
     73  N         -0.1550    0.6770   -2.6900 N.3   126  THR126     -0.1203
     74  CA        -1.2460    1.6360   -2.7350 C.3   126  THR126      0.1994
     75  C         -0.7510    3.0060   -2.3030 C.2   126  THR126      0.2618
     76  O          0.3970    3.1830   -1.8940 O.2   126  THR126     -0.2717
     77  CB        -2.4170    1.1890   -1.8520 C.3   126  THR126      0.1784
     78  OG1       -2.0240    1.1640   -0.4720 O.3   126  THR126     -0.2211
     79  CG2       -2.9010   -0.1850   -2.2700 C.3   126  THR126      0.0376
     80  N         -1.6350    3.9940   -2.3870 N.am  127  ILE127     -0.1966
     81  CA        -1.2900    5.3570   -2.0020 C.3   127  ILE127      0.1712
     82  C         -2.5050    6.0170   -1.3810 C.2   127  ILE127      0.2458
     83  O         -3.6340    5.5250   -1.5030 O.2   127  ILE127     -0.2730
     84  CB        -0.7880    6.1970   -3.1970 C.3   127  ILE127      0.0289
     85  CG1       -1.7700    6.1220   -4.3680 C.3   127  ILE127      0.0022
     86  CG2        0.6080    5.7540   -3.6140 C.3   127  ILE127      0.0023
     87  CD1       -1.5230    7.1810   -5.4270 C.3   127  ILE127      0.0001
     88  N         -2.2910    7.1410   -0.6920 N.am  128  PRO128     -0.2727
     89  CA        -3.3930    7.8020    0.0240 C.3   128  PRO128      0.1402
     90  C         -4.6240    8.0450   -0.8140 C.2   128  PRO128      0.2269
     91  O         -5.7370    7.9970   -0.2750 O.2   128  PRO128     -0.2865
     92  CB        -2.7510    9.1210    0.4690 C.3   128  PRO128      0.0296
     93  CG        -1.3420    8.7780    0.6520 C.3   128  PRO128      0.0237
     94  CD        -0.9990    7.7920   -0.4130 C.3   128  PRO128      0.0939
     95  N         -8.1710    5.1380   -1.5670 N.3   131  CYS131     -0.1235
     96  CA        -9.2950    4.7020   -0.7560 C.3   131  CYS131      0.1677
     97  C        -10.5960    4.7110   -1.5610 C.2   131  CYS131      0.2270
     98  O        -10.8520    5.6100   -2.3710 O.2   131  CYS131     -0.2867
     99  CB        -9.4090    5.5770    0.4840 C.3   131  CYS131      0.0956
    100  SG        -8.3990    4.9160    1.8520 S.3   131  CYS131     -0.0801
    101  N        -11.2750   -0.1510   -0.4420 N.3   149  HIS149     -0.1226
    102  CA        -9.9930    0.1420    0.1720 C.3   149  HIS149      0.1752
    103  C        -10.1330    1.2090    1.2410 C.2   149  HIS149      0.2596
    104  O        -10.7820    2.2330    1.0310 O.2   149  HIS149     -0.2718
    105  CB        -8.9990    0.6010   -0.8780 C.3   149  HIS149      0.0759
    106  CG        -7.6130    0.7270   -0.3550 C.ar  149  HIS149      0.0818
    107  ND1       -6.8780   -0.3640    0.0510 N.ar  149  HIS149     -0.2268
    108  CD2       -6.8390    1.8140   -0.1320 C.ar  149  HIS149      0.1154
    109  CE1       -5.7010    0.0470    0.4850 C.ar  149  HIS149      0.1986
    110  NE2       -5.6580    1.3640    0.3920 N.ar  149  HIS149     -0.2212
    111  N         -9.4820    0.9830    2.3890 N.am  150  ALA150     -0.1966
    112  CA        -9.6210    1.9110    3.5130 C.3   150  ALA150      0.1728
    113  C         -8.3270    2.2800    4.2270 C.2   150  ALA150      0.2616
    114  O         -8.2610    3.3930    4.7590 O.2   150  ALA150     -0.2715
    115  CB       -10.5970    1.3540    4.5540 C.3   150  ALA150      0.0334
    116  N         -7.3140    1.4160    4.2940 N.am  151  ALA151     -0.1963
    117  CA        -6.0970    1.7460    5.0330 C.3   151  ALA151      0.1728
    118  C         -4.9630    0.8180    4.6140 C.2   151  ALA151      0.2616
    119  O         -5.1740   -0.2160    3.9740 O.2   151  ALA151     -0.2715
    120  CB        -6.3270    1.6610    6.5490 C.3   151  ALA151      0.0334
    121  N         -3.7470    1.2090    4.9880 N.am  152  ALA152     -0.1963
    122  CA        -2.5580    0.3950    4.7830 C.3   152  ALA152      0.1728
    123  C         -1.6320    0.5370    5.9810 C.2   152  ALA152      0.2617
    124  O         -1.5990    1.5770    6.6370 O.2   152  ALA152     -0.2715
    125  CB        -1.8020    0.7910    3.5190 C.3   152  ALA152      0.0334
    126  N         -0.8640   -0.5170    6.2460 N.am  153  THR153     -0.1937
    127  CA         0.0900   -0.5010    7.3440 C.3   153  THR153      0.2028
    128  C          1.2890    0.4010    7.0470 C.2   153  THR153      0.2642
    129  O          1.5480    0.8130    5.9110 O.2   153  THR153     -0.2714
    130  CB         0.6020   -1.9090    7.6470 C.3   153  THR153      0.1808
    131  OG1        1.2360   -2.4470    6.4860 O.3   153  THR153     -0.2208
    132  CG2       -0.5350   -2.8160    8.0650 C.3   153  THR153      0.0379
    133  N          2.0100    0.7060    8.1280 N.am  154  LYS154     -0.1963
    134  CA         3.2450    1.4800    8.1150 C.3   154  LYS154      0.1728
    135  C          4.1310    1.1350    6.9250 C.2   154  LYS154      0.2617
    136  O          4.5200    2.0070    6.1420 O.2   154  LYS154     -0.2715
    137  CB         4.0160    1.2390    9.4240 C.3   154  LYS154      0.0311
    138  CG         3.1570    1.3050   10.6810 C.3   154  LYS154      0.0038
    139  CD         2.5020   -0.0750   10.9470 C.3   154  LYS154      0.0206
    140  CE         1.4100   -0.0480   12.0270 C.3   154  LYS154      0.1093
    141  NZ         0.2380    0.7900   11.6340 N.3   154  LYS154     -0.1314
    142  N          4.4860   -0.1400    6.7920 N.am  155  SER155     -0.1936
    143  CA         5.2970   -0.5580    5.6560 C.3   155  SER155      0.2055
    144  C          4.5610   -0.3370    4.3430 C.2   155  SER155      0.2643
    145  O          5.1580    0.1080    3.3580 O.2   155  SER155     -0.2714
    146  CB         5.6770   -2.0250    5.8040 C.3   155  SER155      0.2130
    147  OG         4.5780   -2.7800    6.2850 O.3   155  SER155     -0.2179
    148  N          3.2640   -0.6370    4.3160 N.am  156  GLY156     -0.1954
    149  CA         2.4810   -0.6380    3.1040 C.3   156  GLY156      0.1869
    150  C          2.2900   -2.0090    2.4900 C.2   156  GLY156      0.2309
    151  O          1.6430   -2.1140    1.4370 O.2   156  GLY156     -0.2863
@<TRIPOS>BOND
     1    87    85    1
     2    85    84    1
     3    86    84    1
     4    84    81    1
     5    74    73    1
     6    74    75    1
     7    74    77    1
     8    80    75   am
     9    80    81    1
    10    98    97    2
    11    75    76    2
    12    79    77    1
    13    81    82    1
    14    77    78    1
    15    95    96    1
    16    97    96    1
    17    83    82    2
    18    82    88   am
    19   105   106    1
    20   105   102    1
    21    90    91    2
    22    90    89    1
    23    96    99    1
    24    88    94    1
    25    88    89    1
    26    17    15    1
    27   101   102    1
    28    94    93    1
    29   106   108   ar
    30   106   107   ar
    31   108   110   ar
    32    89    92    1
    33   107   109   ar
    34    14    13    2
    35    15    16    1
    36    15    12    1
    37   102   103    1
    38   110   109   ar
    39    92    93    1
    40    99   100    1
    41    13    12    1
    42   104   103    2
    43   103   111   am
    44    12    11    1
    45   151   150    2
    46   111   112    1
    47   150   149    1
    48    11     3   am
    49   149   148    1
    50   145   144    2
    51   112   113    1
    52   112   115    1
    53   125   122    1
    54     3     4    2
    55     3     2    1
    56    10     9   ar
    57    10     8   ar
    58   119   118    2
    59   113   116   am
    60   113   114    2
    61   116   117    1
    62     9     7   ar
    63   148   144   am
    64     8     6   ar
    65   144   143    1
    66   118   121   am
    67   118   117    1
    68   122   121    1
    69   122   123    1
    70     1     2    1
    71    21    20    2
    72     2     5    1
    73     7     6   ar
    74   117   120    1
    75     6     5    1
    76   143   146    1
    77   143   142    1
    78   146   147    1
    79   129   128    2
    80    20    19    1
    81   123   126   am
    82   123   124    2
    83   136   135    2
    84   126   127    1
    85   131   130    1
    86    26    24   ar
    87   142   135   am
    88   135   134    1
    89   128   127    1
    90   128   133   am
    91    19    22    1
    92    19    18    1
    93   127   130    1
    94    22    23    1
    95   130   132    1
    96    24    23    1
    97    24    25   ar
    98   134   133    1
    99   134   137    1
   100    71    70    1
   101   137   138    1
   102    53    52    2
   103    54    52   am
   104    65    63    1
   105    45    43    1
   106    64    63    1
   107    70    72    1
   108    70    67    1
   109    52    51    1
   110    44    42    1
   111    63    62    2
   112   138   139    1
   113   139   140    1
   114    67    68    1
   115    67    66    1
   116    68    69    2
   117    43    42    1
   118    42    39    1
   119   141   140    1
   120    62    61    1
   121    51    50    1
   122    60    59    1
   123    60    61    1
   124    50    47    1
   125    59    56    1
   126    41    40    2
   127    39    40    1
   128    39    38    1
   129    40    46   am
   130    46    47    1
   131    58    57    2
   132    47    48    1
   133    38    29   am
   134    56    57    1
   135    56    55    1
   136    49    48    2
   137    30    29    2
   138    29    28    1
   139    27    28    1
   140    28    31    1
   141    31    32    1
   142    32    33    1
   143    36    35    1
   144    37    35    1
   145    35    34    2
   146    34    33    1
