@<TRIPOS>MOLECULE
tmp/5dg7A00.pdb
 150 144 0 0 0
SMALL
GASTEIGER

@<TRIPOS>ATOM
      1  N        -29.5490  222.8240    5.7240 N.3    16  ASP16      -0.1225
      2  CA       -29.5620  221.5440    6.4080 C.3    16  ASP16       0.1805
      3  C        -30.8980  221.2240    7.0890 C.2    16  ASP16       0.2598
      4  O        -31.3500  221.9630    7.9580 O.2    16  ASP16      -0.2718
      5  CB       -28.4530  221.4850    7.4490 C.3    16  ASP16       0.1424
      6  CG       -28.5450  220.2370    8.2970 C.2    16  ASP16       0.3668
      7  OD1      -28.0480  219.2010    7.8670 O.co2  16  ASP16      -0.2456
      8  OD2      -29.1570  220.2740    9.3720 O.co2  16  ASP16      -0.2456
      9  N        -31.4870  220.0840    6.7260 N.am   17  MET17      -0.1965
     10  CA       -32.7900  219.6760    7.2490 C.3    17  MET17       0.1736
     11  C        -32.7300  219.3720    8.7440 C.2    17  MET17       0.2616
     12  O        -31.8180  218.6870    9.2080 O.2    17  MET17      -0.2715
     13  CB       -33.3190  218.4450    6.4900 C.3    17  MET17       0.0427
     14  CG       -33.2330  218.5550    4.9610 C.3    17  MET17       0.0599
     15  SD       -34.1460  219.9600    4.2900 S.3    17  MET17      -0.1393
     16  CE       -35.7960  219.5910    4.8270 C.3    17  MET17       0.0692
     17  N        -33.7030  219.8970    9.4870 N.am   18  ASP18      -0.1957
     18  CA       -33.7950  219.6570   10.9230 C.3    18  ASP18       0.1840
     19  C        -34.2190  218.2240   11.1760 C.2    18  ASP18       0.2622
     20  O        -35.1490  217.7300   10.5280 O.2    18  ASP18      -0.2715
     21  CB       -34.7830  220.6360   11.5840 C.3    18  ASP18       0.1450
     22  CG       -34.3370  222.0940   11.4620 C.2    18  ASP18       0.3671
     23  OD1      -33.1200  222.3580   11.3710 O.co2  18  ASP18      -0.2456
     24  OD2      -35.2120  222.9830   11.4410 O.co2  18  ASP18      -0.2456
     25  N        -33.4530  217.5580   12.0420 N.am   19  CYS19      -0.1954
     26  CA       -33.6000  216.1470   12.4700 C.3    19  CYS19       0.1843
     27  C        -34.2970  215.3290   11.3590 C.2    19  CYS19       0.2625
     28  O        -35.4070  214.9360   11.5120 O.2    19  CYS19      -0.2714
     29  CB       -34.4020  216.1210   13.7730 C.3    19  CYS19       0.0997
     30  SG       -35.9830  216.9660   13.8300 S.3    19  CYS19      -0.0797
     31  N        -33.5990  215.1470   10.2610 N.am   20  PHE20      -0.1960
     32  CA       -34.2190  214.8240    8.9800 C.3    20  PHE20       0.1771
     33  C        -35.0190  213.5080    8.9590 C.2    20  PHE20       0.2619
     34  O        -36.1690  213.5210    8.5380 O.2    20  PHE20      -0.2715
     35  CB       -33.1580  214.8030    7.8780 C.3    20  PHE20       0.0574
     36  CG       -33.7140  214.5190    6.5150 C.ar   20  PHE20      -0.0200
     37  CD1      -34.7670  215.2670    6.0160 C.ar   20  PHE20      -0.0042
     38  CD2      -33.1910  213.5060    5.7390 C.ar   20  PHE20      -0.0042
     39  CE1      -35.3030  214.9970    4.7660 C.ar   20  PHE20      -0.0003
     40  CE2      -33.7130  213.2390    4.4700 C.ar   20  PHE20      -0.0003
     41  CZ       -34.7770  213.9870    3.9850 C.ar   20  PHE20      -0.0000
     42  N        -34.4410  212.3880    9.4090 N.am   21  PHE21      -0.1974
     43  CA       -35.1880  211.1200    9.3670 C.3    21  PHE21       0.1639
     44  C        -36.4220  211.2010   10.2820 C.2    21  PHE21       0.2290
     45  O        -37.4690  210.6370    9.9570 O.2    21  PHE21      -0.2864
     46  CB       -34.3340  209.9130    9.7690 C.3    21  PHE21       0.0560
     47  CG       -33.2640  209.5280    8.7660 C.ar   21  PHE21      -0.0200
     48  CD1      -32.8540  210.3990    7.7620 C.ar   21  PHE21      -0.0042
     49  CD2      -32.6550  208.2750    8.8470 C.ar   21  PHE21      -0.0042
     50  CE1      -31.8440  210.0350    6.8490 C.ar   21  PHE21      -0.0003
     51  CE2      -31.6530  207.8990    7.9460 C.ar   21  PHE21      -0.0003
     52  CZ       -31.2440  208.7860    6.9380 C.ar   21  PHE21      -0.0000
     53  N        -32.8180  201.9090   14.2500 N.3    41  GLN41      -0.1245
     54  CA       -32.5630  200.7860   13.3540 C.3    41  GLN41       0.1566
     55  C        -32.4290  199.5070   14.1660 C.2    41  GLN41       0.2260
     56  O        -31.6860  199.5050   15.1590 O.2    41  GLN41      -0.2867
     57  CB       -31.2880  201.0200   12.5350 C.3    41  GLN41       0.0367
     58  CG       -31.5280  201.5070   11.1160 C.3    41  GLN41       0.0905
     59  CD       -30.2430  201.7710   10.3650 C.2    41  GLN41       0.2608
     60  OE1      -29.2010  201.1950   10.6770 O.2    41  GLN41      -0.2717
     61  NE2      -30.3080  202.6420    9.3660 N.am   41  GLN41      -0.0878
     62  N        -30.7360  206.7090   15.4850 N.3    51  ILE51      -0.1231
     63  CA       -29.9440  207.4400   14.4980 C.3    51  ILE51       0.1692
     64  C        -30.4340  208.8510   14.2120 C.2    51  ILE51       0.2591
     65  O        -29.7300  209.6140   13.5410 O.2    51  ILE51      -0.2718
     66  CB       -29.8580  206.6840   13.1450 C.3    51  ILE51       0.0266
     67  CG1      -31.1990  206.6900   12.4140 C.3    51  ILE51       0.0019
     68  CG2      -29.3190  205.2610   13.3510 C.3    51  ILE51       0.0020
     69  CD1      -31.1600  205.8770   11.1240 C.3    51  ILE51       0.0001
     70  N        -31.6340  209.1970   14.6840 N.am   52  ALA52      -0.1980
     71  CA       -32.0880  210.5890   14.6270 C.3    52  ALA52       0.1597
     72  C        -33.0390  210.8780   15.7710 C.2    52  ALA52       0.2287
     73  O        -33.7680  209.9980   16.2170 O.2    52  ALA52      -0.2864
     74  CB       -32.7460  210.9090   13.2940 C.3    52  ALA52       0.0319
     75  N        -36.0630  217.3730   18.3660 N.3    55  TYR55      -0.1241
     76  CA       -35.5560  218.3620   19.3130 C.3    55  TYR55       0.1605
     77  C        -36.2650  218.2610   20.6650 C.2    55  TYR55       0.2264
     78  O        -35.6440  218.5160   21.6800 O.2    55  TYR55      -0.2867
     79  CB       -35.6670  219.7830   18.7350 C.3    55  TYR55       0.0534
     80  CG       -34.5780  220.0570   17.7230 C.ar   55  TYR55      -0.0201
     81  CD1      -34.6370  219.5110   16.4520 C.ar   55  TYR55      -0.0009
     82  CD2      -33.4770  220.8290   18.0470 C.ar   55  TYR55      -0.0009
     83  CE1      -33.6330  219.7420   15.5140 C.ar   55  TYR55       0.0417
     84  CE2      -32.4630  221.0720   17.1230 C.ar   55  TYR55       0.0417
     85  CZ       -32.5410  220.5240   15.8530 C.ar   55  TYR55       0.1957
     86  OH       -31.5270  220.7490   14.9230 O.3    55  TYR55      -0.2866
     87  N        -34.3310  215.5990   22.3960 N.3    58  ARG58      -0.1245
     88  CA       -33.0020  216.1210   22.7030 C.3    58  ARG58       0.1563
     89  C        -32.9780  216.8210   24.0730 C.2    58  ARG58       0.2260
     90  O        -31.9910  216.7190   24.8100 O.2    58  ARG58      -0.2867
     91  CB       -32.5240  217.0760   21.5990 C.3    58  ARG58       0.0307
     92  CG       -32.2380  216.3840   20.2600 C.3    58  ARG58       0.0489
     93  CD       -31.7200  217.3480   19.1890 C.3    58  ARG58       0.2205
     94  NE       -31.8800  216.7670   17.8590 N.pl3  58  ARG58      -0.0865
     95  CZ       -31.3140  217.2180   16.7440 C.cat  58  ARG58       0.5346
     96  NH1      -30.5120  218.2820   16.7610 N.pl3  58  ARG58       0.1354
     97  NH2      -31.5430  216.5780   15.6030 N.pl3  58  ARG58       0.1354
     98  N        -28.0870  210.5460   19.3200 N.3    64  ARG64      -0.1245
     99  CA       -27.6390  209.5500   18.3460 C.3    64  ARG64       0.1563
    100  C        -26.7750  208.4560   18.9630 C.2    64  ARG64       0.2260
    101  O        -26.0480  208.7070   19.9290 O.2    64  ARG64      -0.2867
    102  CB       -26.8330  210.2510   17.2520 C.3    64  ARG64       0.0307
    103  CG       -27.1440  209.8080   15.8580 C.3    64  ARG64       0.0489
    104  CD       -26.0580  210.2630   14.8790 C.3    64  ARG64       0.2205
    105  NE       -25.8330  211.7120   14.8630 N.pl3  64  ARG64      -0.0865
    106  CZ       -26.6740  212.5950   14.3230 C.cat  64  ARG64       0.5346
    107  NH1      -27.8250  212.1820   13.7730 N.pl3  64  ARG64       0.1354
    108  NH2      -26.3670  213.8900   14.3360 N.pl3  64  ARG64       0.1354
    109  N        -32.8100  202.5770    3.4520 N.3    92  LEU92      -0.1245
    110  CA       -32.9860  204.0080    3.6640 C.3    92  LEU92       0.1561
    111  C        -33.7510  204.6930    2.5470 C.2    92  LEU92       0.2260
    112  O        -33.6620  205.9120    2.4020 O.2    92  LEU92      -0.2867
    113  CB       -31.6130  204.6660    3.8230 C.3    92  LEU92       0.0270
    114  CG       -30.7280  203.9980    4.8790 C.3    92  LEU92       0.0019
    115  CD1      -29.3930  204.7280    4.9860 C.3    92  LEU92       0.0001
    116  CD2      -31.4410  203.9660    6.2220 C.3    92  LEU92       0.0001
    117  N        -27.3130  213.3740    2.4310 N.3   117  ILE117     -0.1231
    118  CA       -28.7110  213.0540    2.1700 C.3   117  ILE117      0.1692
    119  C        -29.6350  214.2330    2.5190 C.2   117  ILE117      0.2592
    120  O        -30.7060  214.3610    1.9320 O.2   117  ILE117     -0.2718
    121  CB       -29.1590  211.7890    2.9370 C.3   117  ILE117      0.0266
    122  CG1      -30.4280  211.2050    2.3130 C.3   117  ILE117      0.0019
    123  CG2      -29.3290  212.0660    4.4320 C.3   117  ILE117      0.0020
    124  CD1      -30.7010  209.8060    2.7710 C.3   117  ILE117      0.0001
    125  N        -29.2030  215.1250    3.4180 N.am  118  ASP118     -0.1960
    126  CA       -30.0670  216.2380    3.8220 C.3   118  ASP118      0.1840
    127  C        -29.3830  217.6130    3.8800 C.2   118  ASP118      0.2621
    128  O        -29.8720  218.5160    4.5500 O.2   118  ASP118     -0.2715
    129  CB       -30.6980  215.9190    5.1800 C.3   118  ASP118      0.1450
    130  CG       -29.7730  216.2210    6.3510 C.2   118  ASP118      0.3671
    131  OD1      -28.5310  216.1740    6.1840 O.co2 118  ASP118     -0.2456
    132  OD2      -30.3010  216.5170    7.4420 O.co2 118  ASP118     -0.2456
    133  N        -28.2450  217.7610    3.2020 N.am  119  GLU119     -0.1977
    134  CA       -27.5610  219.0570    3.1080 C.3   119  GLU119      0.1602
    135  C        -27.1960  219.4080    1.6720 C.2   119  GLU119      0.2287
    136  O        -26.7840  218.5350    0.9040 O.2   119  GLU119     -0.2864
    137  CB       -26.2840  219.0720    3.9420 C.3   119  GLU119      0.0415
    138  CG       -26.4510  218.5900    5.3560 C.3   119  GLU119      0.1163
    139  CD       -25.2200  218.8610    6.1890 C.2   119  GLU119      0.3649
    140  OE1      -24.1340  218.9960    5.5840 O.co2 119  GLU119     -0.2457
    141  OE2      -25.3450  218.9620    7.4300 O.co2 119  GLU119     -0.2457
    142  N        -30.4260  226.7670   15.3450 N.3   229  LYS229     -0.1245
    143  CA       -31.1790  225.6010   14.9140 C.3   229  LYS229      0.1561
    144  C        -32.2060  225.3290   15.9920 C.2   229  LYS229      0.2260
    145  O        -31.9510  225.6410   17.1520 O.2   229  LYS229     -0.2867
    146  CB       -30.2570  224.3830   14.7340 C.3   229  LYS229      0.0271
    147  CG       -29.7740  224.0740   13.3150 C.3   229  LYS229      0.0035
    148  CD       -29.1630  222.6490   13.2960 C.3   229  LYS229      0.0206
    149  CE       -28.9510  222.0740   11.8880 C.3   229  LYS229      0.1093
    150  NZ       -30.2040  221.5750   11.1880 N.3   229  LYS229     -0.1314
@<TRIPOS>BOND
     1   136   135    2
     2   135   134    1
     3   120   119    2
     4   118   117    1
     5   118   119    1
     6   118   121    1
     7   122   124    1
     8   122   121    1
     9   112   111    2
    10   119   125   am
    11   111   110    1
    12   121   123    1
    13   134   133    1
    14   134   137    1
    15   133   127   am
    16   125   126    1
    17   109   110    1
    18   110   113    1
    19   126   127    1
    20   126   129    1
    21   113   114    1
    22   127   128    2
    23   137   138    1
    24    41    40   ar
    25    41    39   ar
    26    15    16    1
    27    15    14    1
    28    40    38   ar
    29    39    37   ar
    30   114   115    1
    31   114   116    1
    32    14    13    1
    33   129   130    1
    34   138   139    1
    35   140   139   ar
    36     1     2    1
    37    38    36   ar
    38    37    36   ar
    39   131   130   ar
    40   139   141   ar
    41   130   132   ar
    42     2     3    1
    43     2     5    1
    44    13    10    1
    45    36    35    1
    46     9     3   am
    47     9    10    1
    48    50    52   ar
    49    50    48   ar
    50    52    51   ar
    51     3     4    2
    52    10    11    1
    53     5     6    1
    54    48    47   ar
    55     7     6   ar
    56    35    32    1
    57    51    49   ar
    58     6     8   ar
    59    34    33    2
    60    11    12    2
    61    11    17   am
    62    47    49   ar
    63    47    46    1
    64    33    32    1
    65    33    42   am
    66    32    31    1
    67    61    59   am
    68    43    42    1
    69    43    46    1
    70    43    44    1
    71    17    18    1
    72    45    44    2
    73    31    27   am
    74    59    60    2
    75    59    58    1
    76    20    19    2
    77    18    19    1
    78    18    21    1
    79    58    57    1
    80    69    67    1
    81    19    25   am
    82   150   149    1
    83    27    28    2
    84    27    26    1
    85    23    22   ar
    86    24    22   ar
    87    22    21    1
    88   149   148    1
    89    25    26    1
    90    67    66    1
    91    26    29    1
    92    57    54    1
    93    66    68    1
    94    66    63    1
    95    74    71    1
    96   148   147    1
    97   147   146    1
    98    54    55    1
    99    54    53    1
   100    65    64    2
   101    29    30    1
   102   107   106    1
   103    55    56    2
   104    64    63    1
   105    64    70   am
   106   106   108    1
   107   106   105    2
   108    63    62    1
   109    71    70    1
   110    71    72    1
   111   146   143    1
   112   105   104    1
   113   104   103    1
   114   143   142    1
   115   143   144    1
   116    86    85    1
   117    83    85   ar
   118    83    81   ar
   119    97    95    1
   120    72    73    2
   121    85    84   ar
   122   103   102    1
   123   144   145    2
   124    81    80   ar
   125    95    96    1
   126    95    94    2
   127    84    82   ar
   128   102    99    1
   129    80    82   ar
   130    80    79    1
   131    94    93    1
   132    99   100    1
   133    99    98    1
   134    75    76    1
   135    79    76    1
   136   100   101    2
   137    93    92    1
   138    76    77    1
   139    92    91    1
   140    77    78    2
   141    91    88    1
   142    87    88    1
   143    88    89    1
   144    89    90    2
