@<TRIPOS>MOLECULE
tmp/5dghA01.pdb
 208 197 0 0 0
SMALL
GASTEIGER

@<TRIPOS>ATOM
      1  N         -8.7300   27.3030   10.9000 N.3    11  LYS11      -0.1231
      2  CA        -7.3950   27.0350   11.4260 C.3    11  LYS11       0.1693
      3  C         -6.3800   26.9570   10.2680 C.2    11  LYS11       0.2591
      4  O         -5.2130   27.3010   10.4290 O.2    11  LYS11      -0.2718
      5  CB        -7.4160   25.7500   12.2550 C.3    11  LYS11       0.0285
      6  CG        -6.1290   25.4510   13.0140 C.3    11  LYS11       0.0035
      7  CD        -6.4060   24.6320   14.2700 C.3    11  LYS11       0.0206
      8  CE        -5.2340   23.7250   14.6300 C.3    11  LYS11       0.1093
      9  NZ        -5.3100   22.4190   13.9070 N.3    11  LYS11      -0.1314
     10  N         -6.8550   26.5330    9.1010 N.am   12  LYS12      -0.1980
     11  CA        -6.0550   26.4830    7.8890 C.3    12  LYS12       0.1596
     12  C         -6.1250   27.8000    7.0860 C.2    12  LYS12       0.2287
     13  O         -5.1020   28.2870    6.6200 O.2    12  LYS12      -0.2864
     14  CB        -6.4900   25.2860    7.0370 C.3    12  LYS12       0.0298
     15  CG        -6.6250   23.9550    7.8030 C.3    12  LYS12       0.0038
     16  CD        -5.2980   23.5360    8.4260 C.3    12  LYS12       0.0206
     17  CE        -5.3030   22.0830    8.8960 C.3    12  LYS12       0.1093
     18  NZ        -4.0650   21.7330    9.6600 N.3    12  LYS12      -0.1314
     19  N         -9.7480   22.0970    0.6170 N.3    58  PHE58      -0.1241
     20  CA        -9.0890   20.9180    1.1510 C.3    58  PHE58       0.1605
     21  C         -9.5920   20.5150    2.5430 C.2    58  PHE58       0.2264
     22  O         -9.8490   21.3610    3.4150 O.2    58  PHE58      -0.2867
     23  CB        -7.5550   21.0920    1.1430 C.3    58  PHE58       0.0534
     24  CG        -7.0750   22.2990    1.8890 C.ar   58  PHE58      -0.0203
     25  CD1       -7.0460   23.5510    1.2790 C.ar   58  PHE58      -0.0042
     26  CD2       -6.6570   22.1910    3.2120 C.ar   58  PHE58      -0.0042
     27  CE1       -6.6260   24.6750    1.9810 C.ar   58  PHE58      -0.0003
     28  CE2       -6.2170   23.3130    3.9230 C.ar   58  PHE58      -0.0003
     29  CZ        -6.2100   24.5600    3.3130 C.ar   58  PHE58      -0.0000
     30  N         -9.5390   18.9360    6.2520 N.3    60  SER60      -0.1202
     31  CA        -8.7550   18.6810    7.4590 C.3    60  SER60       0.2020
     32  C         -9.7840   18.3570    8.5180 C.2    60  SER60       0.2618
     33  O        -10.9880   18.4240    8.2420 O.2    60  SER60      -0.2717
     34  CB        -7.9100   19.8860    7.8580 C.3    60  SER60       0.2103
     35  OG        -8.7110   21.0320    8.0550 O.3    60  SER60      -0.2182
     36  N         -9.3370   17.9900    9.7180 N.am   61  LYS61      -0.1979
     37  CA       -10.2620   17.5630   10.7730 C.3    61  LYS61       0.1596
     38  C        -11.4580   18.5100   10.8950 C.2    61  LYS61       0.2287
     39  O        -11.2890   19.7080   11.0540 O.2    61  LYS61      -0.2864
     40  CB        -9.5280   17.4460   12.1210 C.3    61  LYS61       0.0298
     41  CG       -10.3520   16.7940   13.2310 C.3    61  LYS61       0.0038
     42  CD        -9.5740   16.7110   14.5450 C.3    61  LYS61       0.0206
     43  CE        -9.6030   18.0470   15.2860 C.3    61  LYS61       0.1093
     44  NZ        -8.8970   18.0170   16.6040 N.3    61  LYS61      -0.1314
     45  N         -5.6210   10.1930    9.2360 N.3   150  GLU150     -0.1245
     46  CA        -5.8480   11.2350   10.2390 C.3   150  GLU150      0.1567
     47  C         -5.4320   10.7850   11.6360 C.2   150  GLU150      0.2260
     48  O         -5.3590   11.5960   12.5650 O.2   150  GLU150     -0.2867
     49  CB        -7.3390   11.6230   10.2750 C.3   150  GLU150      0.0388
     50  CG        -7.8090   12.5100    9.1320 C.3   150  GLU150      0.1160
     51  CD        -7.0620   13.8540    9.0620 C.2   150  GLU150      0.3649
     52  OE1       -6.9760   14.5780   10.0930 O.co2 150  GLU150     -0.2457
     53  OE2       -6.5590   14.1880    7.9620 O.co2 150  GLU150     -0.2457
     54  N         -2.6260    9.7180   13.8860 N.3   152  HIS152     -0.1241
     55  CA        -1.1630    9.8190   13.9500 C.3   152  HIS152      0.1621
     56  C         -0.5120    8.9210   15.0260 C.2   152  HIS152      0.2264
     57  O          0.6820    9.0330   15.3190 O.2   152  HIS152     -0.2867
     58  CB        -0.7450   11.3080   14.0370 C.3   152  HIS152      0.0745
     59  CG        -1.3180   12.1350   12.9220 C.ar  152  HIS152      0.0817
     60  ND1       -0.9630   11.9430   11.6060 N.ar  152  HIS152     -0.2268
     61  CD2       -2.2900   13.0870   12.9150 C.ar  152  HIS152      0.1154
     62  CE1       -1.6480   12.7740   10.8360 C.ar  152  HIS152      0.1986
     63  NE2       -2.4700   13.4720   11.6040 N.ar  152  HIS152     -0.2212
     64  N          0.7480   13.2370   17.0780 N.3   171  ARG171     -0.1231
     65  CA         0.7730   14.6060   16.6290 C.3   171  ARG171      0.1694
     66  C          1.4220   15.3740   17.7780 C.2   171  ARG171      0.2591
     67  O          0.9580   15.2940   18.9170 O.2   171  ARG171     -0.2718
     68  CB        -0.6690   15.0720   16.2850 C.3   171  ARG171      0.0321
     69  CG        -0.8970   16.5510   15.9400 C.3   171  ARG171      0.0489
     70  CD        -0.1180   17.0960   14.7410 C.3   171  ARG171      0.2205
     71  NE        -0.6510   16.7030   13.4190 N.pl3 171  ARG171     -0.0865
     72  CZ        -0.0070   15.8830   12.5850 C.cat 171  ARG171      0.5346
     73  NH1        1.1690   15.3620   12.9370 N.pl3 171  ARG171      0.1354
     74  NH2       -0.5250   15.5820   11.4010 N.pl3 171  ARG171      0.1354
     75  N          2.5520   16.0130   17.4540 N.am  172  LYS172     -0.1980
     76  CA         3.3740   16.8800   18.3140 C.3   172  LYS172      0.1596
     77  C          2.6420   17.5390   19.4890 C.2   172  LYS172      0.2287
     78  O          1.6610   18.2390   19.2940 O.2   172  LYS172     -0.2864
     79  CB         3.9480   18.0020   17.4380 C.3   172  LYS172      0.0298
     80  CG         5.4280   18.2560   17.5760 C.3   172  LYS172      0.0038
     81  CD         6.0270   18.7150   16.2490 C.3   172  LYS172      0.0206
     82  CE         5.5440   20.0960   15.8500 C.3   172  LYS172      0.1093
     83  NZ         5.1110   20.1410   14.4250 N.3   172  LYS172     -0.1314
     84  N          4.0100   19.9960   22.1460 N.3   174  GLY174     -0.1225
     85  CA         5.1140   20.8260   22.6490 C.3   174  GLY174      0.1811
     86  C          6.4800   20.2190   22.4010 C.2   174  GLY174      0.2280
     87  O          6.9200   20.1260   21.2540 O.2   174  GLY174     -0.2866
     88  N         10.4890   15.9740    4.0190 N.3   206  LYS206     -0.1245
     89  CA         9.1530   16.4560    3.7930 C.3   206  LYS206      0.1561
     90  C          9.1090   17.2490    2.4850 C.2   206  LYS206      0.2260
     91  O          9.8520   18.2250    2.3140 O.2   206  LYS206     -0.2867
     92  CB         8.7350   17.3070    4.9750 C.3   206  LYS206      0.0271
     93  CG         8.7020   16.4960    6.2710 C.3   206  LYS206      0.0035
     94  CD         8.2890   17.3440    7.4530 C.3   206  LYS206      0.0206
     95  CE         6.7900   17.2610    7.7060 C.3   206  LYS206      0.1093
     96  NZ         6.3630   15.8230    7.7640 N.3   206  LYS206     -0.1314
     97  N          6.9250   19.3420   -0.5510 N.3   208  TYR208     -0.1241
     98  CA         5.7590   20.1770   -0.7390 C.3   208  TYR208      0.1605
     99  C          5.7320   20.5900   -2.2180 C.2   208  TYR208      0.2264
    100  O          6.6180   21.3110   -2.6740 O.2   208  TYR208     -0.2867
    101  CB         5.8560   21.4210    0.1430 C.3   208  TYR208      0.0534
    102  CG         5.9450   21.1610    1.6290 C.ar  208  TYR208     -0.0201
    103  CD1        7.1440   20.7610    2.2170 C.ar  208  TYR208     -0.0009
    104  CD2        4.8380   21.3510    2.4470 C.ar  208  TYR208     -0.0009
    105  CE1        7.2400   20.5500    3.5860 C.ar  208  TYR208      0.0417
    106  CE2        4.9070   21.1260    3.8220 C.ar  208  TYR208      0.0417
    107  CZ         6.1130   20.7280    4.3830 C.ar  208  TYR208      0.1957
    108  OH         6.2110   20.5070    5.7370 O.3   208  TYR208     -0.2866
    109  N         13.5330   16.8890    8.7800 N.3   220  ARG220     -0.1245
    110  CA        13.4000   17.0580   10.2280 C.3   220  ARG220      0.1563
    111  C         13.7440   15.7510   10.8700 C.2   220  ARG220      0.2260
    112  O         13.6370   14.7070   10.2390 O.2   220  ARG220     -0.2867
    113  CB        11.9820   17.4450   10.6260 C.3   220  ARG220      0.0307
    114  CG        11.5790   18.8210   10.1420 C.3   220  ARG220      0.0489
    115  CD        10.1600   19.1320   10.5430 C.3   220  ARG220      0.2205
    116  NE         9.6690   20.2980    9.8310 N.pl3 220  ARG220     -0.0865
    117  CZ         8.3850   20.6170    9.7230 C.cat 220  ARG220      0.5346
    118  NH1        7.4640   19.8540   10.2910 N.pl3 220  ARG220      0.1354
    119  NH2        8.0240   21.7050    9.0400 N.pl3 220  ARG220      0.1354
    120  N         13.6530   22.4820   18.8090 N.3   231  ARG231     -0.1245
    121  CA        13.0430   23.7790   18.5150 C.3   231  ARG231      0.1563
    122  C         14.0790   24.9120   18.5230 C.2   231  ARG231      0.2260
    123  O         15.0970   24.8240   19.2160 O.2   231  ARG231     -0.2867
    124  CB        11.8620   24.0690   19.4540 C.3   231  ARG231      0.0307
    125  CG        10.6440   23.1890   19.1830 C.3   231  ARG231      0.0489
    126  CD         9.3830   23.6580   19.8990 C.3   231  ARG231      0.2205
    127  NE         8.3110   22.6510   19.8420 N.pl3 231  ARG231     -0.0865
    128  CZ         7.3220   22.6250   18.9450 C.cat 231  ARG231      0.5346
    129  NH1        7.2350   23.5570   18.0010 N.pl3 231  ARG231      0.1354
    130  NH2        6.4050   21.6670   18.9920 N.pl3 231  ARG231      0.1354
    131  N         10.8520   28.9320   19.0370 N.3   235  GLY235     -0.1210
    132  CA         9.9270   27.8440   19.3690 C.3   235  GLY235      0.1956
    133  C          9.3800   27.0880   18.1680 C.2   235  GLY235      0.2612
    134  O          8.3690   26.3860   18.2730 O.2   235  GLY235     -0.2717
    135  N         10.0390   27.2230   17.0200 N.am  236  LYS236     -0.1965
    136  CA         9.6300   26.4700   15.8390 C.3   236  LYS236      0.1728
    137  C         10.5770   25.3030   15.5720 C.2   236  LYS236      0.2616
    138  O         11.7760   25.4010   15.8130 O.2   236  LYS236     -0.2715
    139  CB         9.4400   27.3930   14.6330 C.3   236  LYS236      0.0311
    140  CG         8.1230   28.1670   14.7180 C.3   236  LYS236      0.0038
    141  CD         8.0060   29.2760   13.6840 C.3   236  LYS236      0.0206
    142  CE         8.9700   30.4260   13.9500 C.3   236  LYS236      0.1093
    143  NZ         9.1780   31.2510   12.7260 N.3   236  LYS236     -0.1314
    144  N         10.0180   24.1880   15.1070 N.am  237  GLU237     -0.1977
    145  CA        10.7860   22.9570   14.9280 C.3   237  GLU237      0.1602
    146  C         11.9520   23.1810   13.9700 C.2   237  GLU237      0.2287
    147  O         11.7680   23.7830   12.9190 O.2   237  GLU237     -0.2864
    148  CB         9.8860   21.8300   14.4260 C.3   237  GLU237      0.0415
    149  CG        10.6090   20.5070   14.2320 C.3   237  GLU237      0.1163
    150  CD         9.6600   19.3500   14.0350 C.2   237  GLU237      0.3649
    151  OE1        8.5770   19.5550   13.4650 O.co2 237  GLU237     -0.2457
    152  OE2        9.9940   18.2290   14.4400 O.co2 237  GLU237     -0.2457
    153  N         14.4040   22.6480   11.0800 N.3   239  ARG239     -0.1245
    154  CA        14.3760   22.0510    9.7430 C.3   239  ARG239      0.1563
    155  C         15.7990   22.0580    9.1730 C.2   239  ARG239      0.2260
    156  O         16.6180   22.9140    9.5290 O.2   239  ARG239     -0.2867
    157  CB        13.4930   22.8780    8.7910 C.3   239  ARG239      0.0307
    158  CG        12.4980   23.8430    9.4240 C.3   239  ARG239      0.0489
    159  CD        11.1200   23.2210    9.6040 C.3   239  ARG239      0.2205
    160  NE        10.0430   24.1930    9.3870 N.pl3 239  ARG239     -0.0865
    161  CZ         9.2820   24.7310   10.3430 C.cat 239  ARG239      0.5346
    162  NH1        9.4470   24.4050   11.6190 N.pl3 239  ARG239      0.1354
    163  NH2        8.3430   25.6080   10.0180 N.pl3 239  ARG239      0.1354
    164  N          0.0650   13.4850    2.3350 N.3   281  ASN281     -0.1240
    165  CA        -0.8470   14.2400    3.1800 C.3   281  ASN281      0.1653
    166  C         -1.8600   15.0760    2.4180 C.2   281  ASN281      0.2266
    167  O         -2.8700   15.4580    2.9780 O.2   281  ASN281     -0.2867
    168  CB        -0.0700   15.0830    4.1970 C.3   281  ASN281      0.1155
    169  CG         0.6430   14.2150    5.2110 C.2   281  ASN281      0.2627
    170  OD1        0.0350   13.2820    5.7390 O.2   281  ASN281     -0.2716
    171  ND2        1.9240   14.4930    5.4830 N.am  281  ASN281     -0.0877
    172  N         -3.0820   18.6240    0.7520 N.3   283  PHE283     -0.1227
    173  CA        -2.8050   20.0650    0.7750 C.3   283  PHE283      0.1736
    174  C         -1.9710   20.4730    1.9850 C.2   283  PHE283      0.2596
    175  O         -2.3650   20.2360    3.1320 O.2   283  PHE283     -0.2718
    176  CB        -4.1220   20.8590    0.7590 C.3   283  PHE283      0.0547
    177  CG        -3.9490   22.3190    0.4300 C.ar  283  PHE283     -0.0202
    178  CD1       -3.4590   23.2110    1.3900 C.ar  283  PHE283     -0.0042
    179  CD2       -4.2730   22.8030   -0.8280 C.ar  283  PHE283     -0.0042
    180  CE1       -3.3000   24.5550    1.0950 C.ar  283  PHE283     -0.0003
    181  CE2       -4.1210   24.1500   -1.1220 C.ar  283  PHE283     -0.0003
    182  CZ        -3.6370   25.0270   -0.1660 C.ar  283  PHE283     -0.0000
    183  N         -0.8250   21.0870    1.7210 N.am  284  SER284     -0.1938
    184  CA         0.0380   21.5790    2.7650 C.3   284  SER284      0.2055
    185  C          0.9960   22.6210    2.2210 C.2   284  SER284      0.2643
    186  O          1.5610   22.4460    1.1520 O.2   284  SER284     -0.2714
    187  CB         0.8110   20.4260    3.4240 C.3   284  SER284      0.2130
    188  OG         1.5300   20.9020    4.5500 O.3   284  SER284     -0.2179
    189  N          1.1670   23.7050    2.9750 N.am  285  PHE285     -0.1973
    190  CA         2.1440   24.7590    2.6710 C.3   285  PHE285      0.1639
    191  C          3.4420   24.5910    3.4690 C.2   285  PHE285      0.2290
    192  O          3.4230   24.1300    4.6150 O.2   285  PHE285     -0.2864
    193  CB         1.5540   26.1480    3.0030 C.3   285  PHE285      0.0560
    194  CG         0.5000   26.6290    2.0400 C.ar  285  PHE285     -0.0200
    195  CD1        0.5740   26.3410    0.6810 C.ar  285  PHE285     -0.0042
    196  CD2       -0.5570   27.4120    2.4970 C.ar  285  PHE285     -0.0042
    197  CE1       -0.3890   26.8030   -0.2040 C.ar  285  PHE285     -0.0003
    198  CE2       -1.5200   27.8930    1.6120 C.ar  285  PHE285     -0.0003
    199  CZ        -1.4310   27.5980    0.2660 C.ar  285  PHE285     -0.0000
    200  N          6.0460   26.1110    5.8720 N.3   287  LYS287     -0.1245
    201  CA         5.9160   27.1260    6.9260 C.3   287  LYS287      0.1561
    202  C          7.2110   27.9400    7.0670 C.2   287  LYS287      0.2260
    203  O          8.3120   27.3980    7.0270 O.2   287  LYS287     -0.2867
    204  CB         5.5820   26.4750    8.2650 C.3   287  LYS287      0.0271
    205  CG         4.1770   25.8810    8.3750 C.3   287  LYS287      0.0035
    206  CD         4.0640   24.4830    7.7760 C.3   287  LYS287      0.0206
    207  CE         2.6330   23.9590    7.8880 C.3   287  LYS287      0.1093
    208  NZ         2.3760   22.8460    6.9190 N.3   287  LYS287     -0.1314
@<TRIPOS>BOND
     1   100    99    2
     2    99    98    1
     3   181   179   ar
     4   181   182   ar
     5   179   177   ar
     6    98    97    1
     7    98   101    1
     8   197   199   ar
     9   197   195   ar
    10   182   180   ar
    11   101   102    1
    12   199   198   ar
    13   177   176    1
    14   177   178   ar
    15    19    20    1
    16   195   194   ar
    17   172   173    1
    18   176   173    1
    19   173   174    1
    20   180   178   ar
    21    23    20    1
    22    23    24    1
    23    20    21    1
    24   186   185    2
    25    25    24   ar
    26    25    27   ar
    27   198   196   ar
    28   102   103   ar
    29   102   104   ar
    30   183   174   am
    31   183   184    1
    32    24    26   ar
    33    27    29   ar
    34   174   175    2
    35   194   196   ar
    36   194   193    1
    37   103   105   ar
    38   185   184    1
    39   185   189   am
    40    91    90    2
    41   164   165    1
    42   166   167    2
    43   166   165    1
    44   104   106   ar
    45    90    89    1
    46    21    22    2
    47   190   189    1
    48   190   193    1
    49   190   191    1
    50   184   187    1
    51   165   168    1
    52    26    28   ar
    53    29    28   ar
    54   187   188    1
    55   191   192    2
    56   105   107   ar
    57    89    88    1
    58    89    92    1
    59   106   107   ar
    60   168   169    1
    61   107   108    1
    62    92    93    1
    63   169   171   am
    64   169   170    2
    65   200   201    1
    66    30    31    1
    67    93    94    1
    68    13    12    2
    69   208   207    1
    70   201   202    1
    71   201   204    1
    72   203   202    2
    73    14    15    1
    74    14    11    1
    75    12    11    1
    76    94    95    1
    77    31    34    1
    78    31    32    1
    79    95    96    1
    80   206   207    1
    81   206   205    1
    82    15    16    1
    83    34    35    1
    84    11    10    1
    85    53    51   ar
    86    33    32    2
    87   204   205    1
    88    16    17    1
    89    32    36   am
    90   109   110    1
    91   157   158    1
    92   157   154    1
    93    17    18    1
    94   119   117    1
    95    51    50    1
    96    51    52   ar
    97    10     3   am
    98    50    49    1
    99   155   156    2
   100   155   154    1
   101    45    46    1
   102   160   159    1
   103   160   161    2
   104   158   159    1
   105    36    37    1
   106   117   116    2
   107   117   118    1
   108   154   153    1
   109   116   115    1
   110   163   161    1
   111   114   115    1
   112   114   113    1
   113   110   113    1
   114   110   111    1
   115    46    49    1
   116    46    47    1
   117   112   111    2
   118     3     4    2
   119     3     2    1
   120   161   162    1
   121    37    38    1
   122    37    40    1
   123    62    63   ar
   124    62    60   ar
   125    38    39    2
   126     1     2    1
   127    74    72    1
   128     2     5    1
   129    63    61   ar
   130    60    59   ar
   131    47    48    2
   132    40    41    1
   133     5     6    1
   134    72    73    1
   135    72    71    2
   136   143   142    1
   137    61    59   ar
   138   147   146    2
   139    59    58    1
   140     6     7    1
   141    41    42    1
   142    71    70    1
   143   151   150   ar
   144   141   142    1
   145   141   140    1
   146    54    55    1
   147     9     8    1
   148    55    58    1
   149    55    56    1
   150   146   145    1
   151   150   149    1
   152   150   152   ar
   153   149   148    1
   154     7     8    1
   155    83    82    1
   156   148   145    1
   157    42    43    1
   158   139   140    1
   159   139   136    1
   160    70    69    1
   161   145   144    1
   162    56    57    2
   163   144   137   am
   164    43    44    1
   165   137   138    2
   166   137   136    1
   167   136   135    1
   168    82    81    1
   169    69    68    1
   170    81    80    1
   171    68    65    1
   172    65    64    1
   173    65    66    1
   174   135   133   am
   175    79    80    1
   176    79    76    1
   177    75    66   am
   178    75    76    1
   179    66    67    2
   180   129   128    1
   181   133   134    2
   182   133   132    1
   183    76    77    1
   184   121   122    1
   185   121   120    1
   186   121   124    1
   187   122   123    2
   188   128   130    1
   189   128   127    2
   190   131   132    1
   191   125   124    1
   192   125   126    1
   193    78    77    2
   194   127   126    1
   195    87    86    2
   196    84    85    1
   197    86    85    1
