@<TRIPOS>MOLECULE
tmp/5dgiA01.pdb
 179 173 0 0 0
SMALL
GASTEIGER

@<TRIPOS>ATOM
      1  N         -9.1360   27.6220   10.9140 N.3    12  LYS12      -0.1231
      2  CA        -7.7760   27.3410   11.3950 C.3    12  LYS12       0.1693
      3  C         -6.7850   27.2710   10.2340 C.2    12  LYS12       0.2591
      4  O         -5.6270   27.6840   10.3610 O.2    12  LYS12      -0.2718
      5  CB        -7.7560   26.0250   12.1750 C.3    12  LYS12       0.0285
      6  CG        -6.5000   25.7900   12.9970 C.3    12  LYS12       0.0035
      7  CD        -6.7190   24.6650   13.9950 C.3    12  LYS12       0.0206
      8  CE        -5.4050   24.0800   14.4920 C.3    12  LYS12       0.1093
      9  NZ        -4.5650   25.0420   15.2590 N.3    12  LYS12      -0.1314
     10  N         -7.2550   26.7430    9.1080 N.am   13  LYS13      -0.1980
     11  CA        -6.4400   26.6340    7.9030 C.3    13  LYS13       0.1596
     12  C         -6.4900   27.9050    7.0520 C.2    13  LYS13       0.2287
     13  O         -5.4520   28.3640    6.5720 O.2    13  LYS13      -0.2864
     14  CB        -6.8440   25.4060    7.0730 C.3    13  LYS13       0.0298
     15  CG        -6.7950   24.0740    7.8270 C.3    13  LYS13       0.0038
     16  CD        -5.3790   23.6970    8.2490 C.3    13  LYS13       0.0206
     17  CE        -5.3560   22.3530    8.9560 C.3    13  LYS13       0.1093
     18  NZ        -4.0430   22.0570    9.6000 N.3    13  LYS13      -0.1314
     19  N        -10.0110   22.0210    0.7940 N.3    59  PHE59      -0.1227
     20  CA        -9.3380   20.8530    1.3390 C.3    59  PHE59       0.1736
     21  C         -9.8290   20.5100    2.7300 C.2    59  PHE59       0.2595
     22  O        -10.2420   21.3880    3.4980 O.2    59  PHE59      -0.2718
     23  CB        -7.8150   21.0400    1.3360 C.3    59  PHE59       0.0547
     24  CG        -7.3520   22.2760    2.0580 C.ar   59  PHE59      -0.0202
     25  CD1       -7.3730   23.5160    1.4240 C.ar   59  PHE59      -0.0042
     26  CD2       -6.8930   22.2010    3.3690 C.ar   59  PHE59      -0.0042
     27  CE1       -6.9500   24.6620    2.0870 C.ar   59  PHE59      -0.0003
     28  CE2       -6.4650   23.3470    4.0390 C.ar   59  PHE59      -0.0003
     29  CZ        -6.4900   24.5750    3.3930 C.ar   59  PHE59      -0.0000
     30  N         -9.7620   19.2200    3.0390 N.am   60  HIS60      -0.1961
     31  CA       -10.2420   18.6850    4.2930 C.3    60  HIS60       0.1787
     32  C         -9.2160   18.8530    5.4110 C.2    60  HIS60       0.2621
     33  O         -8.0050   18.7520    5.1910 O.2    60  HIS60      -0.2715
     34  CB       -10.6030   17.2070    4.1170 C.3    60  HIS60       0.0785
     35  CG       -11.0050   16.5270    5.3860 C.ar   60  HIS60       0.0821
     36  ND1      -10.1010   15.8780    6.2000 N.ar   60  HIS60      -0.2267
     37  CD2      -12.2100   16.4090    5.9920 C.ar   60  HIS60       0.1154
     38  CE1      -10.7340   15.3790    7.2460 C.ar   60  HIS60       0.1986
     39  NE2      -12.0140   15.6900    7.1460 N.ar   60  HIS60      -0.2212
     40  N         -9.7320   19.1510    6.5990 N.am   61  SER61      -0.1936
     41  CA        -9.0100   19.0240    7.8560 C.3    61  SER61       0.2055
     42  C        -10.0660   18.6460    8.8910 C.2    61  SER61       0.2642
     43  O        -11.2480   18.5490    8.5480 O.2    61  SER61      -0.2714
     44  CB        -8.2930   20.3260    8.2210 C.3    61  SER61       0.2130
     45  OG        -9.2010   21.3930    8.3910 O.3    61  SER61      -0.2179
     46  N         -9.6560   18.4220   10.1380 N.am   62  LYS62      -0.1977
     47  CA       -10.5860   17.9990   11.1910 C.3    62  LYS62       0.1596
     48  C        -11.8210   18.9000   11.2420 C.2    62  LYS62       0.2287
     49  O        -11.7020   20.1210   11.3420 O.2    62  LYS62      -0.2864
     50  CB        -9.8910   17.9650   12.5590 C.3    62  LYS62       0.0298
     51  CG       -10.7090   17.2940   13.6600 C.3    62  LYS62       0.0038
     52  CD        -9.9190   17.1300   14.9530 C.3    62  LYS62       0.0206
     53  CE        -9.8480   18.4250   15.7520 C.3    62  LYS62       0.1093
     54  NZ        -9.2520   18.2050   17.1000 N.3    62  LYS62      -0.1314
     55  N         -5.8730    9.9310    9.5680 N.3   151  GLU151     -0.1245
     56  CA        -6.1430   11.0060   10.5200 C.3   151  GLU151      0.1567
     57  C         -5.6700   10.6300   11.9280 C.2   151  GLU151      0.2260
     58  O         -5.6240   11.4820   12.8250 O.2   151  GLU151     -0.2867
     59  CB        -7.6480   11.3100   10.5520 C.3   151  GLU151      0.0388
     60  CG        -8.2110   11.9340    9.2840 C.3   151  GLU151      0.1160
     61  CD        -8.0670   13.4400    9.2660 C.2   151  GLU151      0.3649
     62  OE1       -6.9770   13.9350    8.9030 O.co2 151  GLU151     -0.2457
     63  OE2       -9.0480   14.1320    9.6140 O.co2 151  GLU151     -0.2457
     64  N         -2.6940    9.5260   14.1690 N.3   153  HIS153     -0.1241
     65  CA        -1.2330    9.6530   14.1350 C.3   153  HIS153      0.1621
     66  C         -0.5210    8.8360   15.2220 C.2   153  HIS153      0.2264
     67  O          0.6790    9.0020   15.4720 O.2   153  HIS153     -0.2867
     68  CB        -0.8570   11.1360   14.1770 C.3   153  HIS153      0.0745
     69  CG        -1.5000   11.9270   13.0810 C.ar  153  HIS153      0.0817
     70  ND1       -1.0960   11.8340   11.7690 N.ar  153  HIS153     -0.2268
     71  CD2       -2.5550   12.7760   13.0910 C.ar  153  HIS153      0.1154
     72  CE1       -1.8540   12.6130   11.0190 C.ar  153  HIS153      0.1986
     73  NE2       -2.7480   13.1960   11.7970 N.ar  153  HIS153     -0.2212
     74  N          0.5120   13.0060   17.4790 N.3   172  ARG172     -0.1231
     75  CA         0.4920   14.4150   17.0800 C.3   172  ARG172      0.1694
     76  C          1.3430   15.1900   18.0790 C.2   172  ARG172      0.2591
     77  O          1.1080   15.1010   19.2830 O.2   172  ARG172     -0.2718
     78  CB        -0.9440   14.9470   17.0660 C.3   172  ARG172      0.0321
     79  CG        -1.0520   16.4610   16.9550 C.3   172  ARG172      0.0489
     80  CD        -2.4650   16.9120   16.6130 C.3   172  ARG172      0.2205
     81  NE        -2.9690   16.2600   15.4050 N.pl3 172  ARG172     -0.0865
     82  CZ        -2.6680   16.6250   14.1610 C.cat 172  ARG172      0.5346
     83  NH1       -1.8560   17.6510   13.9310 N.pl3 172  ARG172      0.1354
     84  NH2       -3.1810   15.9540   13.1410 N.pl3 172  ARG172      0.1354
     85  N          2.3470   15.9150   17.5890 N.am  173  LYS173     -0.1980
     86  CA         3.2950   16.5640   18.4930 C.3   173  LYS173      0.1596
     87  C          2.6020   17.5870   19.3800 C.2   173  LYS173      0.2287
     88  O          1.7600   18.3650   18.9180 O.2   173  LYS173     -0.2864
     89  CB         4.5110   17.1580   17.7520 C.3   173  LYS173      0.0298
     90  CG         4.2740   18.4370   16.9610 C.3   173  LYS173      0.0038
     91  CD         5.5690   18.9030   16.3050 C.3   173  LYS173      0.0206
     92  CE         5.4040   20.2320   15.5800 C.3   173  LYS173      0.1093
     93  NZ         4.5250   20.1320   14.3810 N.3   173  LYS173     -0.1314
     94  N         10.3760   16.0500    4.1870 N.3   207  LYS207     -0.1245
     95  CA         9.0160   16.5510    3.9900 C.3   207  LYS207      0.1561
     96  C          8.9450   17.2840    2.6610 C.2   207  LYS207      0.2260
     97  O          9.6720   18.2590    2.4540 O.2   207  LYS207     -0.2867
     98  CB         8.6240   17.5180    5.1160 C.3   207  LYS207      0.0271
     99  CG         8.8850   17.0090    6.5290 C.3   207  LYS207      0.0035
    100  CD         7.9340   15.8870    6.8630 C.3   207  LYS207      0.0206
    101  CE         8.0180   15.4770    8.3200 C.3   207  LYS207      0.1093
    102  NZ         6.8940   14.5600    8.6370 N.3   207  LYS207     -0.1314
    103  N          6.6710   19.2660   -0.4140 N.3   209  TYR209     -0.1241
    104  CA         5.5030   20.1060   -0.6190 C.3   209  TYR209      0.1605
    105  C          5.4290   20.5110   -2.0870 C.2   209  TYR209      0.2264
    106  O          6.2500   21.3070   -2.5590 O.2   209  TYR209     -0.2867
    107  CB         5.6090   21.3690    0.2400 C.3   209  TYR209      0.0534
    108  CG         5.7010   21.1410    1.7320 C.ar  209  TYR209     -0.0201
    109  CD1        6.9050   20.7620    2.3310 C.ar  209  TYR209     -0.0009
    110  CD2        4.5890   21.3450    2.5550 C.ar  209  TYR209     -0.0009
    111  CE1        6.9970   20.5750    3.7030 C.ar  209  TYR209      0.0417
    112  CE2        4.6730   21.1610    3.9290 C.ar  209  TYR209      0.0417
    113  CZ         5.8740   20.7720    4.4940 C.ar  209  TYR209      0.1957
    114  OH         5.9620   20.5960    5.8560 O.3   209  TYR209     -0.2866
    115  N         13.2860   17.0870    8.8710 N.3   221  ARG221     -0.1245
    116  CA        13.0940   17.2630   10.3090 C.3   221  ARG221      0.1563
    117  C         13.4920   15.9780   11.0170 C.2   221  ARG221      0.2260
    118  O         13.4050   14.8990   10.4320 O.2   221  ARG221     -0.2867
    119  CB        11.6360   17.6240   10.6340 C.3   221  ARG221      0.0307
    120  CG        11.2020   18.9750   10.0770 C.3   221  ARG221      0.0489
    121  CD         9.8200   19.3890   10.5610 C.3   221  ARG221      0.2205
    122  NE         9.2870   20.4980    9.7710 N.pl3 221  ARG221     -0.0865
    123  CZ         8.1810   21.1780   10.0710 C.cat 221  ARG221      0.5346
    124  NH1        7.4750   20.8730   11.1550 N.pl3 221  ARG221      0.1354
    125  NH2        7.7810   22.1750    9.2890 N.pl3 221  ARG221      0.1354
    126  N          9.8730   24.4800   15.0920 N.3   238  GLU238     -0.1245
    127  CA        10.5920   23.2110   14.9510 C.3   238  GLU238      0.1567
    128  C         11.7620   23.3530   13.9850 C.2   238  GLU238      0.2260
    129  O         11.6160   23.9240   12.9040 O.2   238  GLU238     -0.2867
    130  CB         9.6700   22.0780   14.4940 C.3   238  GLU238      0.0388
    131  CG        10.3460   20.7110   14.5090 C.3   238  GLU238      0.1160
    132  CD         9.4070   19.5680   14.1720 C.2   238  GLU238      0.3649
    133  OE1        8.2650   19.8240   13.7390 O.co2 238  GLU238     -0.2457
    134  OE2        9.8170   18.4040   14.3440 O.co2 238  GLU238     -0.2457
    135  N         -0.3040   13.4280    2.5110 N.3   282  ASN282     -0.1240
    136  CA        -1.1900   14.2180    3.3580 C.3   282  ASN282      0.1653
    137  C         -2.1650   15.1330    2.6470 C.2   282  ASN282      0.2266
    138  O         -3.0830   15.6700    3.2770 O.2   282  ASN282     -0.2867
    139  CB        -0.3520   15.0210    4.3610 C.3   282  ASN282      0.1155
    140  CG         0.3780   14.1210    5.3170 C.2   282  ASN282      0.2627
    141  OD1       -0.2030   13.1580    5.7940 O.2   282  ASN282     -0.2716
    142  ND2        1.6580   14.3920    5.5670 N.am  282  ASN282     -0.0877
    143  N         -3.3460   18.6080    0.8760 N.3   284  PHE284     -0.1227
    144  CA        -3.0740   20.0510    0.9270 C.3   284  PHE284      0.1736
    145  C         -2.2500   20.4450    2.1450 C.2   284  PHE284      0.2596
    146  O         -2.6550   20.2080    3.2900 O.2   284  PHE284     -0.2718
    147  CB        -4.3790   20.8370    0.9220 C.3   284  PHE284      0.0547
    148  CG        -4.2160   22.2920    0.5700 C.ar  284  PHE284     -0.0202
    149  CD1       -3.7400   23.2100    1.5110 C.ar  284  PHE284     -0.0042
    150  CD2       -4.5450   22.7450   -0.7010 C.ar  284  PHE284     -0.0042
    151  CE1       -3.6020   24.5550    1.1810 C.ar  284  PHE284     -0.0003
    152  CE2       -4.4060   24.0890   -1.0370 C.ar  284  PHE284     -0.0003
    153  CZ        -3.9360   24.9910   -0.0970 C.ar  284  PHE284     -0.0000
    154  N         -1.0960   21.0480    1.8860 N.am  285  SER285     -0.1938
    155  CA        -0.2130   21.5240    2.9400 C.3   285  SER285      0.2055
    156  C          0.7600   22.5450    2.3680 C.2   285  SER285      0.2643
    157  O          1.3470   22.3220    1.3070 O.2   285  SER285     -0.2714
    158  CB         0.5670   20.3610    3.5590 C.3   285  SER285      0.2130
    159  OG         1.2270   20.7710    4.7390 O.3   285  SER285     -0.2179
    160  N          0.9140   23.6600    3.0800 N.am  286  PHE286     -0.1973
    161  CA         1.8510   24.7160    2.7100 C.3   286  PHE286      0.1639
    162  C          3.1190   24.5750    3.5410 C.2   286  PHE286      0.2290
    163  O          3.0640   24.1070    4.6740 O.2   286  PHE286     -0.2864
    164  CB         1.2600   26.1000    3.0010 C.3   286  PHE286      0.0560
    165  CG         0.2050   26.5550    2.0270 C.ar  286  PHE286     -0.0200
    166  CD1        0.2650   26.2170    0.6750 C.ar  286  PHE286     -0.0042
    167  CD2       -0.8300   27.3770    2.4620 C.ar  286  PHE286     -0.0042
    168  CE1       -0.7040   26.6700   -0.2120 C.ar  286  PHE286     -0.0003
    169  CE2       -1.8000   27.8340    1.5790 C.ar  286  PHE286     -0.0003
    170  CZ        -1.7350   27.4850    0.2410 C.ar  286  PHE286     -0.0000
    171  N          5.7910   26.1480    5.9560 N.3   288  LYS288     -0.1245
    172  CA         5.6500   27.1630    6.9920 C.3   288  LYS288      0.1561
    173  C          6.9380   27.9710    7.0910 C.2   288  LYS288      0.2260
    174  O          8.0300   27.4240    6.9550 O.2   288  LYS288     -0.2867
    175  CB         5.3230   26.5220    8.3480 C.3   288  LYS288      0.0271
    176  CG         3.9190   25.9350    8.4740 C.3   288  LYS288      0.0035
    177  CD         3.8160   24.5470    7.8630 C.3   288  LYS288      0.0206
    178  CE         2.3910   24.0140    7.9040 C.3   288  LYS288      0.1093
    179  NZ         2.2380   22.7970    7.0530 N.3   288  LYS288     -0.1314
@<TRIPOS>BOND
     1   106   105    2
     2   105   104    1
     3   152   150   ar
     4   152   153   ar
     5   150   148   ar
     6   104   103    1
     7   104   107    1
     8   168   170   ar
     9   168   166   ar
    10   153   151   ar
    11   107   108    1
    12   170   169   ar
    13   148   147    1
    14   148   149   ar
    15   166   165   ar
    16    19    20    1
    17   143   144    1
    18   147   144    1
    19   144   145    1
    20   151   149   ar
    21   157   156    2
    22    23    20    1
    23    23    24    1
    24    20    21    1
    25    25    24   ar
    26    25    27   ar
    27   169   167   ar
    28   108   109   ar
    29   108   110   ar
    30   154   145   am
    31   154   155    1
    32   165   167   ar
    33   165   164    1
    34    24    26   ar
    35    27    29   ar
    36   145   146    2
    37   109   111   ar
    38   156   155    1
    39   156   160   am
    40    97    96    2
    41   135   136    1
    42   110   112   ar
    43   137   138    2
    44   137   136    1
    45    96    95    1
    46   161   164    1
    47   161   160    1
    48   161   162    1
    49    21    30   am
    50    21    22    2
    51   155   158    1
    52    30    31    1
    53   136   139    1
    54    26    28   ar
    55    29    28   ar
    56   162   163    2
    57   158   159    1
    58   111   113   ar
    59   112   113   ar
    60    95    94    1
    61    95    98    1
    62    34    31    1
    63    34    35    1
    64    31    32    1
    65   139   140    1
    66   113   114    1
    67    98    99    1
    68    33    32    2
    69   140   142   am
    70   140   141    2
    71    35    37   ar
    72    35    36   ar
    73    32    40   am
    74   171   172    1
    75    37    39   ar
    76    36    38   ar
    77    99   100    1
    78    13    12    2
    79    40    41    1
    80   100   101    1
    81   174   173    2
    82   172   173    1
    83   172   175    1
    84    12    11    1
    85   179   178    1
    86    14    15    1
    87    14    11    1
    88    39    38   ar
    89    15    16    1
    90    41    44    1
    91    41    42    1
    92   177   178    1
    93   177   176    1
    94    11    10    1
    95    44    45    1
    96    16    17    1
    97   101   102    1
    98   175   176    1
    99    43    42    2
   100   115   116    1
   101    42    46   am
   102    62    61   ar
   103    17    18    1
   104    10     3   am
   105    61    60    1
   106    61    63   ar
   107    60    59    1
   108   125   123    1
   109    55    56    1
   110   122   123    2
   111   122   121    1
   112   123   124    1
   113   120   121    1
   114   120   119    1
   115    46    47    1
   116     3     4    2
   117     3     2    1
   118   116   119    1
   119   116   117    1
   120   118   117    2
   121    56    59    1
   122    56    57    1
   123     1     2    1
   124    72    70   ar
   125    72    73   ar
   126    47    48    1
   127    47    50    1
   128    48    49    2
   129     2     5    1
   130    70    69   ar
   131    73    71   ar
   132    57    58    2
   133     5     6    1
   134    50    51    1
   135   129   128    2
   136     6     7    1
   137    69    71   ar
   138    69    68    1
   139    84    82    1
   140    51    52    1
   141   133   132   ar
   142    83    82    1
   143   128   127    1
   144     7     8    1
   145    65    64    1
   146    65    68    1
   147    65    66    1
   148    82    81    2
   149   132   134   ar
   150   132   131    1
   151    93    92    1
   152     8     9    1
   153   130   131    1
   154   130   127    1
   155   127   126    1
   156    52    53    1
   157    66    67    2
   158    81    80    1
   159    92    91    1
   160    53    54    1
   161    91    90    1
   162    80    79    1
   163    79    78    1
   164    90    89    1
   165    78    75    1
   166    75    74    1
   167    75    76    1
   168    85    76   am
   169    85    86    1
   170    89    86    1
   171    76    77    2
   172    86    87    1
   173    88    87    2
