@<TRIPOS>MOLECULE
tmp/5dgkA00.pdb
 142 135 0 0 0
SMALL
GASTEIGER

@<TRIPOS>ATOM
      1  N         32.4130   57.7530  200.7530 N.3   198  SER198     -0.1202
      2  CA        32.8750   58.4820  199.5820 C.3   198  SER198      0.2020
      3  C         34.3980   58.4420  199.4630 C.2   198  SER198      0.2619
      4  O         35.1110   58.5380  200.4630 O.2   198  SER198     -0.2717
      5  CB        32.3900   59.9340  199.6400 C.3   198  SER198      0.2103
      6  OG        32.8380   60.6810  198.5200 O.3   198  SER198     -0.2182
      7  N         34.8730   58.2520  198.2350 N.am  199  SER199     -0.1937
      8  CA        36.2950   58.3510  197.9030 C.3   199  SER199      0.2055
      9  C         37.0530   57.1360  198.4190 C.2   199  SER199      0.2644
     10  O         37.9760   57.2540  199.2300 O.2   199  SER199     -0.2714
     11  CB        36.8940   59.6470  198.4550 C.3   199  SER199      0.2130
     12  OG        36.0550   60.7430  198.1380 O.3   199  SER199     -0.2179
     13  N         36.6620   55.9700  197.9180 N.am  200  THR200     -0.1936
     14  CA        37.1920   54.6990  198.3890 C.3   200  THR200      0.2028
     15  C         37.3820   53.7180  197.2300 C.2   200  THR200      0.2643
     16  O         37.5980   52.5260  197.4470 O.2   200  THR200     -0.2714
     17  CB        36.2620   54.0800  199.4490 C.3   200  THR200      0.1808
     18  OG1       34.9100   54.1060  198.9740 O.3   200  THR200     -0.2208
     19  CG2       36.3430   54.8600  200.7530 C.3   200  THR200      0.0379
     20  N         37.2920   54.2220  196.0010 N.am  201  GLY201     -0.1939
     21  CA        37.6160   53.4350  194.8220 C.3   201  GLY201      0.2014
     22  C         36.4600   52.6680  194.2000 C.2   201  GLY201      0.2639
     23  O         36.6750   51.7880  193.3660 O.2   201  GLY201     -0.2714
     24  N         35.2350   52.9890  194.6050 N.am  202  LYS202     -0.1963
     25  CA        34.0510   52.3060  194.0890 C.3   202  LYS202      0.1728
     26  C         33.8540   52.5140  192.5840 C.2   202  LYS202      0.2617
     27  O         33.8780   51.5540  191.8080 O.2   202  LYS202     -0.2715
     28  CB        32.8150   52.7640  194.8580 C.3   202  LYS202      0.0311
     29  CG        32.9390   52.5310  196.3570 C.3   202  LYS202      0.0038
     30  CD        31.6110   52.6780  197.0740 C.3   202  LYS202      0.0206
     31  CE        31.1160   54.1120  197.0940 C.3   202  LYS202      0.1093
     32  NZ        31.7700   54.8940  198.1750 N.3   202  LYS202     -0.1314
     33  N         33.6620   53.7630  192.1710 N.am  203  SER203     -0.1936
     34  CA        33.5320   54.0870  190.7500 C.3   203  SER203      0.2055
     35  C         34.8000   53.7290  189.9750 C.2   203  SER203      0.2643
     36  O         34.8100   53.7420  188.7450 O.2   203  SER203     -0.2714
     37  CB        33.2150   55.5740  190.5560 C.3   203  SER203      0.2130
     38  OG        32.0890   55.9720  191.3200 O.3   203  SER203     -0.2179
     39  N         35.8650   53.4070  190.7050 N.am  204  THR204     -0.1950
     40  CA        37.1410   53.0420  190.1050 C.3   204  THR204      0.1897
     41  C         37.1410   51.5470  189.8180 C.2   204  THR204      0.2313
     42  O         37.3740   51.1220  188.6820 O.2   204  THR204     -0.2863
     43  CB        38.3200   53.4220  191.0320 C.3   204  THR204      0.1794
     44  OG1       38.4540   54.8500  191.0710 O.3   204  THR204     -0.2208
     45  CG2       39.6270   52.8050  190.5540 C.3   204  THR204      0.0378
     46  N         26.2410   54.1610  188.1200 N.3   249  ASP249     -0.1225
     47  CA        27.0440   54.9080  189.0790 C.3   249  ASP249      0.1805
     48  C         26.2020   55.8970  189.8850 C.2   249  ASP249      0.2597
     49  O         25.4730   56.7110  189.3210 O.2   249  ASP249     -0.2718
     50  CB        28.1730   55.6440  188.3540 C.3   249  ASP249      0.1424
     51  CG        29.2880   56.0820  189.2910 C.2   249  ASP249      0.3668
     52  OD1       29.6980   55.2720  190.1510 O.co2 249  ASP249     -0.2456
     53  OD2       29.7600   57.2350  189.1640 O.co2 249  ASP249     -0.2456
     54  N         26.3070   55.7940  191.2070 N.am  250  GLU250     -0.1979
     55  CA        25.7080   56.7470  192.1440 C.3   250  GLU250      0.1602
     56  C         24.1810   56.7270  192.1670 C.2   250  GLU250      0.2287
     57  O         23.5190   57.3520  191.3340 O.2   250  GLU250     -0.2864
     58  CB        26.1810   58.1680  191.8340 C.3   250  GLU250      0.0415
     59  CG        25.9380   59.1370  192.9750 C.3   250  GLU250      0.1163
     60  CD        26.8960   58.9330  194.1300 C.2   250  GLU250      0.3649
     61  OE1       28.1040   59.2030  193.9540 O.co2 250  GLU250     -0.2457
     62  OE2       26.4420   58.4990  195.2100 O.co2 250  GLU250     -0.2457
     63  N         26.9260   51.5740  192.2720 N.3   282  THR282     -0.1203
     64  CA        27.8790   52.3240  193.0700 C.3   282  THR282      0.1994
     65  C         27.0960   53.3620  193.8550 C.2   282  THR282      0.2619
     66  O         26.2600   54.0640  193.2880 O.2   282  THR282     -0.2717
     67  CB        28.9510   52.9790  192.1790 C.3   282  THR282      0.1784
     68  OG1       29.8560   51.9730  191.7040 O.3   282  THR282     -0.2211
     69  CG2       29.7310   54.0400  192.9380 C.3   282  THR282      0.0376
     70  N         27.3450   53.4500  195.1580 N.am  283  SER283     -0.1937
     71  CA        26.5780   54.3650  195.9980 C.3   283  SER283      0.2055
     72  C         27.1580   54.5610  197.3940 C.2   283  SER283      0.2642
     73  O         27.7820   53.6630  197.9560 O.2   283  SER283     -0.2714
     74  CB        25.1390   53.8660  196.1250 C.3   283  SER283      0.2130
     75  OG        25.0980   52.5370  196.6220 O.3   283  SER283     -0.2179
     76  N         26.9230   55.7460  197.9470 N.am  284  GLU284     -0.1976
     77  CA        27.3380   56.0650  199.3080 C.3   284  GLU284      0.1602
     78  C         26.4000   55.4730  200.3520 C.2   284  GLU284      0.2287
     79  O         26.6560   55.5880  201.5490 O.2   284  GLU284     -0.2864
     80  CB        27.4050   57.5770  199.5080 C.3   284  GLU284      0.0415
     81  CG        28.4360   58.2770  198.6570 C.3   284  GLU284      0.1163
     82  CD        28.6200   59.7150  199.0710 C.2   284  GLU284      0.3649
     83  OE1       29.0290   59.9540  200.2280 O.co2 284  GLU284     -0.2457
     84  OE2       28.3350   60.6070  198.2480 O.co2 284  GLU284     -0.2457
     85  N         36.5450   49.1260  201.2410 N.3   307  GLN307     -0.1245
     86  CA        37.3850   49.9510  200.3900 C.3   307  GLN307      0.1566
     87  C         38.0870   49.0740  199.3590 C.2   307  GLN307      0.2260
     88  O         38.6530   48.0390  199.7050 O.2   307  GLN307     -0.2867
     89  CB        38.4060   50.7150  201.2370 C.3   307  GLN307      0.0367
     90  CG        39.2930   51.6650  200.4580 C.3   307  GLN307      0.0905
     91  CD        40.3500   52.3130  201.3330 C.2   307  GLN307      0.2608
     92  OE1       41.4850   51.8410  201.4140 O.2   307  GLN307     -0.2717
     93  NE2       39.9790   53.3980  201.9980 N.am  307  GLN307     -0.0878
     94  N         40.3650   50.4260  196.6630 N.3   309  THR309     -0.1203
     95  CA        41.7130   50.9240  196.3870 C.3   309  THR309      0.1994
     96  C         42.4690   51.2700  197.6670 C.2   309  THR309      0.2619
     97  O         41.8870   51.7450  198.6400 O.2   309  THR309     -0.2717
     98  CB        41.6860   52.1660  195.4780 C.3   309  THR309      0.1784
     99  OG1       40.9830   53.2310  196.1280 O.3   309  THR309     -0.2211
    100  CG2       41.0100   51.8420  194.1550 C.3   309  THR309      0.0376
    101  N         43.7760   51.0400  197.6450 N.am  310  THR310     -0.1938
    102  CA        44.6120   51.1810  198.8310 C.3   310  THR310      0.2028
    103  C         44.9070   52.6440  199.1660 C.2   310  THR310      0.2642
    104  O         44.8780   53.0380  200.3330 O.2   310  THR310     -0.2714
    105  CB        45.9440   50.4070  198.6490 C.3   310  THR310      0.1808
    106  OG1       46.6650   50.3890  199.8870 O.3   310  THR310     -0.2208
    107  CG2       46.8170   51.0300  197.5510 C.3   310  THR310      0.0379
    108  N         45.1960   53.4390  198.1430 N.am  311  ASN311     -0.1957
    109  CA        45.4930   54.8570  198.3160 C.3   311  ASN311      0.1819
    110  C         44.8710   55.6840  197.1920 C.2   311  ASN311      0.2621
    111  O         44.2670   55.1350  196.2690 O.2   311  ASN311     -0.2715
    112  CB        47.0110   55.0710  198.4020 C.3   311  ASN311      0.1195
    113  CG        47.7390   54.6840  197.1280 C.2   311  ASN311      0.2630
    114  OD1       47.2920   54.9820  196.0230 O.2   311  ASN311     -0.2716
    115  ND2       48.8730   54.0100  197.2830 N.am  311  ASN311     -0.0877
    116  N         45.0120   57.0040  197.2750 N.am  312  ALA312     -0.1977
    117  CA        44.3690   57.9000  196.3170 C.3   312  ALA312      0.1597
    118  C         44.9740   57.8000  194.9130 C.2   312  ALA312      0.2287
    119  O         44.3010   58.0910  193.9230 O.2   312  ALA312     -0.2864
    120  CB        44.4490   59.3290  196.8160 C.3   312  ALA312      0.0319
    121  N         43.8170   54.5160  192.8020 N.3   315  ALA315     -0.1231
    122  CA        42.5840   54.7710  192.0670 C.3   315  ALA315      0.1694
    123  C         42.8160   55.5420  190.7550 C.2   315  ALA315      0.2592
    124  O         42.3760   55.1220  189.6680 O.2   315  ALA315     -0.2718
    125  CB        41.6120   55.5360  192.9570 C.3   315  ALA315      0.0304
    126  N         43.5040   56.6760  190.8750 N.am  316  ASP316     -0.1974
    127  CA        43.7560   57.5720  189.7480 C.3   316  ASP316      0.1709
    128  C         44.5520   56.9140  188.6250 C.2   316  ASP316      0.2293
    129  O         44.3780   57.2520  187.4550 O.2   316  ASP316     -0.2864
    130  CB        44.4940   58.8230  190.2320 C.3   316  ASP316      0.1436
    131  CG        43.5590   59.8840  190.7830 C.2   316  ASP316      0.3671
    132  OD1       42.3510   59.6050  190.9230 O.co2 316  ASP316     -0.2456
    133  OD2       44.0360   61.0020  191.0800 O.co2 316  ASP316     -0.2456
    134  N         41.8550   54.4180  186.8740 N.3   319  LYS319     -0.1245
    135  CA        40.9050   55.1470  186.0300 C.3   319  LYS319      0.1561
    136  C         41.5650   55.5120  184.7000 C.2   319  LYS319      0.2260
    137  O         40.9970   55.2910  183.6180 O.2   319  LYS319     -0.2867
    138  CB        40.4070   56.4160  186.7290 C.3   319  LYS319      0.0271
    139  CG        39.2090   56.2180  187.6590 C.3   319  LYS319      0.0035
    140  CD        38.6380   57.5630  188.1000 C.3   319  LYS319      0.0206
    141  CE        37.5780   57.4200  189.1820 C.3   319  LYS319      0.1093
    142  NZ        36.9830   58.7410  189.5590 N.3   319  LYS319     -0.1314
@<TRIPOS>BOND
     1   137   136    2
     2   136   135    1
     3   135   138    1
     4   135   134    1
     5   138   139    1
     6   129   128    2
     7   139   140    1
     8   140   141    1
     9    46    47    1
    10    50    47    1
    11    50    51    1
    12   128   127    1
    13    42    41    2
    14    36    35    2
    15    47    48    1
    16    53    51   ar
    17   141   142    1
    18    51    52   ar
    19    49    48    2
    20   124   123    2
    21   127   130    1
    22   127   126    1
    23    41    40    1
    24    48    54   am
    25    35    39   am
    26    35    34    1
    27    40    39    1
    28    40    43    1
    29   130   131    1
    30    45    43    1
    31    37    34    1
    32    37    38    1
    33    34    33    1
    34   123   126   am
    35   123   122    1
    36   131   132   ar
    37   131   133   ar
    38    43    44    1
    39    54    55    1
    40    57    56    2
    41    68    67    1
    42    27    26    2
    43    58    55    1
    44    58    59    1
    45   122   121    1
    46   122   125    1
    47    55    56    1
    48    33    26   am
    49    67    69    1
    50    67    64    1
    51    63    64    1
    52    26    25    1
    53    59    60    1
    54    64    65    1
    55    66    65    2
    56    23    22    2
    57    65    70   am
    58   119   118    2
    59    61    60   ar
    60    25    24    1
    61    25    28    1
    62    60    62   ar
    63   100    98    1
    64    22    24   am
    65    22    21    1
    66    21    20    1
    67    28    29    1
    68   118   117    1
    69    70    71    1
    70    98    99    1
    71    98    95    1
    72    71    74    1
    73    71    72    1
    74    20    15   am
    75   114   113    2
    76    74    75    1
    77   111   110    2
    78   117   120    1
    79   117   116    1
    80    29    30    1
    81    95    94    1
    82    95    96    1
    83    30    31    1
    84    31    32    1
    85   113   115   am
    86   113   112    1
    87   110   116   am
    88   110   109    1
    89    15    16    2
    90    15    14    1
    91    72    76   am
    92    72    73    2
    93   107   105    1
    94   101    96   am
    95   101   102    1
    96    96    97    2
    97     8     7    1
    98     8     9    1
    99     8    11    1
   100    13    14    1
   101    13     9   am
   102    76    77    1
   103    12    11    1
   104   108   109    1
   105   108   103   am
   106     7     3   am
   107    84    82   ar
   108   109   112    1
   109    14    17    1
   110     9    10    2
   111     6     5    1
   112   105   102    1
   113   105   106    1
   114    81    82    1
   115    81    80    1
   116   102   103    1
   117    18    17    1
   118    82    83   ar
   119   103   104    2
   120    77    80    1
   121    77    78    1
   122    87    88    2
   123    87    86    1
   124    17    19    1
   125     3     2    1
   126     3     4    2
   127     2     5    1
   128     2     1    1
   129    78    79    2
   130    86    89    1
   131    86    85    1
   132    90    89    1
   133    90    91    1
   134    91    92    2
   135    91    93   am
