@<TRIPOS>MOLECULE
tmp/5dgmA00.pdb
 133 124 0 0 0
SMALL
GASTEIGER

@<TRIPOS>ATOM
      1  N         -6.1610   75.2720   22.4100 N.3     3  TYR3       -0.1241
      2  CA        -4.8000   75.0120   21.9790 C.3     3  TYR3        0.1605
      3  C         -4.7670   73.9750   20.8510 C.2     3  TYR3        0.2264
      4  O         -4.3460   74.3110   19.7350 O.2     3  TYR3       -0.2867
      5  CB        -3.9390   74.5510   23.1790 C.3     3  TYR3        0.0534
      6  CG        -3.3370   75.6890   23.9740 C.ar    3  TYR3       -0.0201
      7  CD1       -4.1070   76.4190   24.8770 C.ar    3  TYR3       -0.0009
      8  CD2       -1.9950   76.0290   23.8360 C.ar    3  TYR3       -0.0009
      9  CE1       -3.5570   77.4680   25.6150 C.ar    3  TYR3        0.0417
     10  CE2       -1.4320   77.0660   24.5780 C.ar    3  TYR3        0.0417
     11  CZ        -2.2180   77.7820   25.4670 C.ar    3  TYR3        0.1957
     12  OH        -1.6830   78.8020   26.2120 O.3     3  TYR3       -0.2866
     13  N          6.4880   72.7020   20.4400 N.3    50  LYS50      -0.1245
     14  CA         5.0730   72.6270   20.8140 C.3    50  LYS50       0.1561
     15  C          4.2180   73.8970   20.4950 C.2    50  LYS50       0.2260
     16  O          2.9960   73.8040   20.4450 O.2    50  LYS50      -0.2867
     17  CB         4.9010   72.1090   22.2660 C.3    50  LYS50       0.0271
     18  CG         5.1450   70.5890   22.4340 C.3    50  LYS50       0.0035
     19  CD         5.2770   70.1230   23.8970 C.3    50  LYS50       0.0206
     20  CE         6.5640   70.5980   24.5600 C.3    50  LYS50       0.1093
     21  NZ         6.6390   70.2090   25.9960 N.3    50  LYS50      -0.1314
     22  N          3.4350   76.4460   22.1830 N.3    52  ASN52      -0.1225
     23  CA         2.5820   76.8280   23.2970 C.3    52  ASN52       0.1785
     24  C          2.6700   78.2660   23.7080 C.2    52  ASN52       0.2597
     25  O          1.6360   78.8800   23.9480 O.2    52  ASN52      -0.2718
     26  CB         2.7610   75.8820   24.4520 C.3    52  ASN52       0.1169
     27  CG         2.2700   74.4960   24.1450 C.2    52  ASN52       0.2627
     28  OD1        1.2160   74.2850   23.5170 O.2    52  ASN52      -0.2716
     29  ND2        3.0300   73.5220   24.5820 N.am   52  ASN52      -0.0877
     30  N          3.8680   78.8300   23.7310 N.am   53  ARG53      -0.1979
     31  CA         4.0180   80.2540   24.0370 C.3    53  ARG53       0.1597
     32  C          3.3430   81.0830   22.9460 C.2    53  ARG53       0.2287
     33  O          2.5670   81.9700   23.2790 O.2    53  ARG53      -0.2864
     34  CB         5.4860   80.6450   24.1770 C.3    53  ARG53       0.0334
     35  CG         6.1310   80.1120   25.4290 C.3    53  ARG53       0.0492
     36  CD         7.6390   80.2170   25.3110 C.3    53  ARG53       0.2205
     37  NE         8.3180   79.6110   26.4490 N.pl3  53  ARG53      -0.0865
     38  CZ         8.5010   78.3040   26.6060 C.cat  53  ARG53       0.5346
     39  NH1        8.0750   77.4470   25.6790 N.pl3  53  ARG53       0.1354
     40  NH2        9.1070   77.8410   27.6900 N.pl3  53  ARG53       0.1354
     41  N         -0.4460   80.7870   23.1570 N.3    56  THR56      -0.1218
     42  CA        -0.9800   81.5530   24.2980 C.3    56  THR56       0.1862
     43  C         -1.4310   82.9390   23.8560 C.2    56  THR56       0.2287
     44  O         -2.5050   83.3880   24.2680 O.2    56  THR56      -0.2866
     45  CB         0.0220   81.6490   25.4650 C.3    56  THR56       0.1770
     46  OG1        0.5050   80.3590   25.8200 O.3    56  THR56      -0.2211
     47  CG2       -0.5780   82.2740   26.6900 C.3    56  THR56       0.0375
     48  N          8.3830   83.3160   28.8640 N.3   198  SER198     -0.1202
     49  CA         7.4340   82.2060   28.6470 C.3   198  SER198      0.2020
     50  C          5.9790   82.4630   29.0670 C.2   198  SER198      0.2618
     51  O          5.0750   81.9390   28.4180 O.2   198  SER198     -0.2717
     52  CB         7.9260   80.9130   29.2870 C.3   198  SER198      0.2103
     53  OG         9.2530   80.6010   28.9140 O.3   198  SER198     -0.2182
     54  N          5.7570   83.2310   30.1540 N.am  199  PHE199     -0.1975
     55  CA         4.4200   83.4590   30.7000 C.3   199  PHE199      0.1639
     56  C          3.9720   84.9030   30.6750 C.2   199  PHE199      0.2290
     57  O          2.8360   85.1900   30.2930 O.2   199  PHE199     -0.2864
     58  CB         4.2830   82.8130   32.1040 C.3   199  PHE199      0.0560
     59  CG         4.4280   81.3050   32.0770 C.ar  199  PHE199     -0.0200
     60  CD1        5.6790   80.7090   32.1600 C.ar  199  PHE199     -0.0042
     61  CD2        3.3230   80.4880   31.8750 C.ar  199  PHE199     -0.0042
     62  CE1        5.8220   79.3170   32.0730 C.ar  199  PHE199     -0.0003
     63  CE2        3.4710   79.0990   31.7570 C.ar  199  PHE199     -0.0003
     64  CZ         4.7190   78.5230   31.8580 C.ar  199  PHE199     -0.0000
     65  N          6.5660   76.0720   36.5220 N.3   232  PHE232     -0.1241
     66  CA         6.8430   75.4340   35.2490 C.3   232  PHE232      0.1605
     67  C          8.2500   74.8510   35.2130 C.2   232  PHE232      0.2264
     68  O          8.4190   73.6640   34.9290 O.2   232  PHE232     -0.2867
     69  CB         6.6580   76.4490   34.1320 C.3   232  PHE232      0.0534
     70  CG         7.1140   75.9700   32.7820 C.ar  232  PHE232     -0.0203
     71  CD1        6.3740   75.0310   32.0730 C.ar  232  PHE232     -0.0042
     72  CD2        8.2820   76.4610   32.2130 C.ar  232  PHE232     -0.0042
     73  CE1        6.7810   74.6100   30.8100 C.ar  232  PHE232     -0.0003
     74  CE2        8.6940   76.0310   30.9510 C.ar  232  PHE232     -0.0003
     75  CZ         7.9350   75.1170   30.2560 C.ar  232  PHE232     -0.0000
     76  N          9.7090   71.1410   35.5010 N.3   236  ASP236     -0.1239
     77  CA        10.6050   70.7670   34.4070 C.3   236  ASP236      0.1674
     78  C         11.8850   70.0600   34.9100 C.2   236  ASP236      0.2266
     79  O         12.3560   69.0890   34.2960 O.2   236  ASP236     -0.2867
     80  CB        10.9730   71.9950   33.5810 C.3   236  ASP236      0.1410
     81  CG        11.3670   71.6130   32.1830 C.2   236  ASP236      0.3668
     82  OD1       10.4860   71.6640   31.2850 O.co2 236  ASP236     -0.2456
     83  OD2       12.5460   71.1900   31.9880 O.co2 236  ASP236     -0.2456
     84  N          6.1080   59.5340   28.3530 N.3   247  VAL247     -0.1245
     85  CA         5.1880   60.6740   28.4100 C.3   247  VAL247      0.1561
     86  C          5.9540   62.0000   28.2580 C.2   247  VAL247      0.2260
     87  O          5.4940   62.8830   27.5230 O.2   247  VAL247     -0.2867
     88  CB         4.2910   60.6420   29.6840 C.3   247  VAL247      0.0252
     89  CG1        3.1960   61.7080   29.6270 C.3   247  VAL247      0.0019
     90  CG2        3.6700   59.2610   29.8920 C.3   247  VAL247      0.0019
     91  N         11.6680   62.8810   26.7010 N.3   250  LYS250     -0.1245
     92  CA        13.0420   63.3080   27.0090 C.3   250  LYS250      0.1561
     93  C         13.6460   62.4960   28.1740 C.2   250  LYS250      0.2260
     94  O         12.9120   62.0380   29.0560 O.2   250  LYS250     -0.2867
     95  CB        13.1370   64.8360   27.2630 C.3   250  LYS250      0.0271
     96  CG        11.9870   65.4680   28.0700 C.3   250  LYS250      0.0035
     97  CD        12.0910   67.0070   28.0890 C.3   250  LYS250      0.0206
     98  CE        10.7770   67.7260   28.3470 C.3   250  LYS250      0.1093
     99  NZ        10.9350   69.2110   28.3130 N.3   250  LYS250     -0.1314
    100  N         -4.2490   78.5880   31.2180 N.3   337  LEU337     -0.1245
    101  CA        -2.8060   78.4150   31.2720 C.3   337  LEU337      0.1561
    102  C         -2.3920   77.4910   32.3980 C.2   337  LEU337      0.2260
    103  O         -1.6040   76.5900   32.1570 O.2   337  LEU337     -0.2867
    104  CB        -2.1390   79.7730   31.4750 C.3   337  LEU337      0.0270
    105  CG        -1.2420   80.2680   30.3640 C.3   337  LEU337      0.0019
    106  CD1       -0.4090   81.4120   30.8510 C.3   337  LEU337      0.0001
    107  CD2       -0.3650   79.1620   29.8250 C.3   337  LEU337      0.0001
    108  N         -3.0210   73.7080   31.8180 N.3   340  LYS340     -0.1231
    109  CA        -2.0600   73.1670   30.8680 C.3   340  LYS340      0.1693
    110  C         -0.6940   72.9110   31.5310 C.2   340  LYS340      0.2591
    111  O          0.0320   71.9810   31.1390 O.2   340  LYS340     -0.2718
    112  CB        -1.9120   74.1180   29.6660 C.3   340  LYS340      0.0285
    113  CG        -3.1620   74.2840   28.8000 C.3   340  LYS340      0.0035
    114  CD        -3.2610   73.2800   27.6470 C.3   340  LYS340      0.0206
    115  CE        -4.5560   73.4720   26.8740 C.3   340  LYS340      0.1093
    116  NZ        -4.9080   72.3020   26.0150 N.3   340  LYS340     -0.1314
    117  N         -0.3440   73.7340   32.5260 N.am  341  ILE341     -0.1980
    118  CA         0.9350   73.6190   33.2360 C.3   341  ILE341      0.1595
    119  C          0.8820   72.5860   34.3540 C.2   341  ILE341      0.2287
    120  O          1.7830   71.7630   34.4390 O.2   341  ILE341     -0.2864
    121  CB         1.5010   75.0150   33.6820 C.3   341  ILE341      0.0276
    122  CG1        1.7090   75.9770   32.4770 C.3   341  ILE341      0.0022
    123  CG2        2.7720   74.9120   34.5690 C.3   341  ILE341      0.0022
    124  CD1        2.5760   75.4440   31.2760 C.3   341  ILE341      0.0001
    125  N          0.0880   69.2880   36.1520 N.3   343  LYS343     -0.1245
    126  CA        -0.1490   67.8560   35.8730 C.3   343  LYS343      0.1561
    127  C         -0.8300   67.5460   34.5200 C.2   343  LYS343      0.2260
    128  O         -0.5470   68.1750   33.5020 O.2   343  LYS343     -0.2867
    129  CB        -0.9100   67.1890   37.0410 C.3   343  LYS343      0.0271
    130  CG        -0.6650   65.6880   37.1850 C.3   343  LYS343      0.0035
    131  CD        -1.8240   64.8720   36.6430 C.3   343  LYS343      0.0206
    132  CE        -1.6650   63.4120   36.9590 C.3   343  LYS343      0.1093
    133  NZ        -2.9020   62.6480   36.6500 N.3   343  LYS343     -0.1314
@<TRIPOS>BOND
     1     4     3    2
     2    13    14    1
     3    16    15    2
     4    15    14    1
     5    14    17    1
     6     3     2    1
     7     2     1    1
     8     2     5    1
     9    22    23    1
    10    17    18    1
    11    18    19    1
    12    32    33    2
    13    32    31    1
    14    41    42    1
    15     5     6    1
    16    23    24    1
    17    23    26    1
    18    28    27    2
    19    24    30   am
    20    24    25    2
    21    30    31    1
    22     8     6   ar
    23     8    10   ar
    24    43    44    2
    25    43    42    1
    26    19    20    1
    27     6     7   ar
    28    31    34    1
    29    27    26    1
    30    27    29   am
    31    34    35    1
    32    42    45    1
    33    20    21    1
    34    10    11   ar
    35     7     9   ar
    36    36    35    1
    37    36    37    1
    38    45    46    1
    39    45    47    1
    40    11     9   ar
    41    11    12    1
    42    39    38    1
    43   116   115    1
    44    37    38    2
    45    38    40    1
    46    91    92    1
    47   115   114    1
    48    92    95    1
    49    92    93    1
    50    95    96    1
    51    87    86    2
    52   114   113    1
    53    96    97    1
    54    97    98    1
    55    93    94    2
    56    86    85    1
    57    99    98    1
    58    84    85    1
    59    85    88    1
    60    51    50    2
    61    49    48    1
    62    49    50    1
    63    49    52    1
    64   113   112    1
    65    53    52    1
    66    50    54   am
    67    89    88    1
    68   112   109    1
    69    88    90    1
    70   107   105    1
    71    54    55    1
    72    75    73   ar
    73    75    74   ar
    74    57    56    2
    75   105   106    1
    76   105   104    1
    77    56    55    1
    78    55    58    1
    79    73    71   ar
    80   109   110    1
    81   109   108    1
    82    74    72   ar
    83   111   110    2
    84   100   101    1
    85   101   104    1
    86   101   102    1
    87   124   122    1
    88    82    81   ar
    89   110   117   am
    90    63    64   ar
    91    63    61   ar
    92    64    62   ar
    93    61    59   ar
    94    83    81   ar
    95    62    60   ar
    96    71    70   ar
    97    59    58    1
    98    59    60   ar
    99   103   102    2
   100    81    80    1
   101    72    70   ar
   102   122   121    1
   103   117   118    1
   104    70    69    1
   105   118   121    1
   106   118   119    1
   107   128   127    2
   108    80    77    1
   109   121   123    1
   110    69    66    1
   111    79    78    2
   112   119   120    2
   113    77    78    1
   114    77    76    1
   115   127   126    1
   116    68    67    2
   117    67    66    1
   118    66    65    1
   119   126   125    1
   120   126   129    1
   121   131   132    1
   122   131   130    1
   123   133   132    1
   124   129   130    1
