@<TRIPOS>MOLECULE
tmp/5dgnA00.pdb
 152 145 0 0 0
SMALL
GASTEIGER

@<TRIPOS>ATOM
      1  N         -6.4200   75.4500   22.7060 N.3     3  TYR3       -0.1241
      2  CA        -5.1350   75.2500   22.0540 C.3     3  TYR3        0.1605
      3  C         -5.1710   74.2700   20.8770 C.2     3  TYR3        0.2264
      4  O         -4.8650   74.6780   19.7520 O.2     3  TYR3       -0.2867
      5  CB        -4.0690   74.8070   23.0800 C.3     3  TYR3        0.0534
      6  CG        -3.5540   75.9040   23.9880 C.ar    3  TYR3       -0.0201
      7  CD1       -4.3320   76.3930   25.0360 C.ar    3  TYR3       -0.0009
      8  CD2       -2.2520   76.3870   23.8630 C.ar    3  TYR3       -0.0009
      9  CE1       -3.8630   77.4000   25.8760 C.ar    3  TYR3        0.0417
     10  CE2       -1.7660   77.3830   24.7080 C.ar    3  TYR3        0.0417
     11  CZ        -2.5770   77.8890   25.7110 C.ar    3  TYR3        0.1957
     12  OH        -2.1010   78.8440   26.5690 O.3     3  TYR3       -0.2866
     13  N          8.6470   72.4290   17.5520 N.3    49  GLY49      -0.1210
     14  CA         8.3420   72.5740   18.9720 C.3    49  GLY49       0.1956
     15  C          6.8580   72.3680   19.1910 C.2    49  GLY49       0.2612
     16  O          6.1590   71.8770   18.2980 O.2    49  GLY49      -0.2717
     17  N          6.3500   72.7360   20.3660 N.am   50  LYS50      -0.1965
     18  CA         4.9190   72.5430   20.6560 C.3    50  LYS50       0.1728
     19  C          4.0370   73.7750   20.3830 C.2    50  LYS50       0.2616
     20  O          2.8210   73.6640   20.3820 O.2    50  LYS50      -0.2715
     21  CB         4.7320   71.9620   22.0650 C.3    50  LYS50       0.0311
     22  CG         5.3410   70.5680   22.2150 C.3    50  LYS50       0.0038
     23  CD         5.1090   69.9850   23.5900 C.3    50  LYS50       0.0206
     24  CE         5.5260   68.5290   23.6460 C.3    50  LYS50       0.1093
     25  NZ         5.2690   67.9260   24.9820 N.3    50  LYS50      -0.1314
     26  N          4.6660   74.9580   20.1250 N.am   51  TYR51      -0.1960
     27  CA         4.0160   76.2420   19.7950 C.3    51  TYR51       0.1771
     28  C          3.1240   76.8040   20.8610 C.2    51  TYR51       0.2620
     29  O          2.4030   77.7380   20.5710 O.2    51  TYR51      -0.2715
     30  CB         3.2630   76.2250   18.4430 C.3    51  TYR51       0.0574
     31  CG         3.9890   75.4560   17.3700 C.ar   51  TYR51      -0.0198
     32  CD1        5.1290   75.9760   16.7660 C.ar   51  TYR51      -0.0009
     33  CD2        3.6010   74.1620   17.0320 C.ar   51  TYR51      -0.0009
     34  CE1        5.8510   75.2400   15.8320 C.ar   51  TYR51       0.0417
     35  CE2        4.3110   73.4200   16.0900 C.ar   51  TYR51       0.0417
     36  CZ         5.4380   73.9650   15.4930 C.ar   51  TYR51       0.1957
     37  OH         6.1430   73.2550   14.5600 O.3    51  TYR51      -0.2866
     38  N          3.2340   76.3240   22.1000 N.am   52  ASN52      -0.1958
     39  CA         2.3660   76.7320   23.2040 C.3    52  ASN52       0.1819
     40  C          2.4330   78.1770   23.6010 C.2    52  ASN52       0.2621
     41  O          1.3950   78.7850   23.8660 O.2    52  ASN52      -0.2715
     42  CB         2.5500   75.8250   24.3820 C.3    52  ASN52       0.1195
     43  CG         2.0780   74.4210   24.1240 C.2    52  ASN52       0.2630
     44  OD1        1.0390   74.1750   23.4870 O.2    52  ASN52      -0.2716
     45  ND2        2.8800   73.4830   24.5730 N.am   52  ASN52      -0.0877
     46  N          3.6260   78.7350   23.5970 N.am   53  ARG53      -0.1977
     47  CA         3.8630   80.1530   23.9030 C.3    53  ARG53       0.1597
     48  C          3.2250   81.0600   22.8640 C.2    53  ARG53       0.2287
     49  O          2.5340   82.0080   23.2350 O.2    53  ARG53      -0.2864
     50  CB         5.3440   80.4500   24.0240 C.3    53  ARG53       0.0334
     51  CG         5.9620   79.8440   25.2570 C.3    53  ARG53       0.0492
     52  CD         7.4810   79.9380   25.1900 C.3    53  ARG53       0.2205
     53  NE         8.1170   79.2730   26.3300 N.pl3  53  ARG53      -0.0865
     54  CZ         8.3170   77.9650   26.4240 C.cat  53  ARG53       0.5346
     55  NH1        7.9110   77.1500   25.4540 N.pl3  53  ARG53       0.1354
     56  NH2        8.8850   77.4540   27.5070 N.pl3  53  ARG53       0.1354
     57  N         -0.4490   80.7540   23.1460 N.3    56  THR56      -0.1218
     58  CA        -1.0270   81.4720   24.3000 C.3    56  THR56       0.1862
     59  C         -1.4450   82.8800   23.8970 C.2    56  THR56       0.2287
     60  O         -2.4520   83.3940   24.3840 O.2    56  THR56      -0.2866
     61  CB        -0.0510   81.4390   25.4970 C.3    56  THR56       0.1770
     62  OG1        0.2040   80.0730   25.8510 O.3    56  THR56      -0.2211
     63  CG2       -0.5920   82.1650   26.7170 C.3    56  THR56       0.0375
     64  N          7.3800   82.8460   19.2730 N.3    86  GLU86      -0.1245
     65  CA         8.0820   81.6310   18.8410 C.3    86  GLU86       0.1567
     66  C          9.4320   82.0100   18.2280 C.2    86  GLU86       0.2260
     67  O         10.4120   81.3250   18.5040 O.2    86  GLU86      -0.2867
     68  CB         7.2210   80.7960   17.8700 C.3    86  GLU86       0.0388
     69  CG         6.0000   80.1610   18.5440 C.3    86  GLU86       0.1160
     70  CD         6.3280   79.1660   19.6490 C.2    86  GLU86       0.3649
     71  OE1        7.3270   78.4280   19.4980 O.co2  86  GLU86      -0.2457
     72  OE2        5.6330   79.1640   20.6890 O.co2  86  GLU86      -0.2457
     73  N         11.7900   82.8810   20.9550 N.3    89  GLN89      -0.1245
     74  CA        12.1930   81.6120   21.5160 C.3    89  GLN89       0.1566
     75  C         13.2220   80.9130   20.6200 C.2    89  GLN89       0.2260
     76  O         14.2000   80.3630   21.1200 O.2    89  GLN89      -0.2867
     77  CB        10.9300   80.7710   21.6740 C.3    89  GLN89       0.0367
     78  CG        11.2410   79.2930   21.7880 C.3    89  GLN89       0.0905
     79  CD        11.0110   78.8430   23.1680 C.2    89  GLN89       0.2608
     80  OE1       11.7690   79.0800   24.0720 O.2    89  GLN89      -0.2717
     81  NE2        9.9490   78.2330   23.3490 N.am   89  GLN89      -0.0878
     82  N          8.2290   83.2690   28.6500 N.3   198  SER198     -0.1202
     83  CA         7.3940   82.1020   28.4720 C.3   198  SER198      0.2020
     84  C          5.9890   82.3100   28.9390 C.2   198  SER198      0.2618
     85  O          5.0720   81.7530   28.3560 O.2   198  SER198     -0.2717
     86  CB         7.9860   80.8940   29.1900 C.3   198  SER198      0.2103
     87  OG         9.2120   80.5150   28.6000 O.3   198  SER198     -0.2182
     88  N          5.8230   83.0710   30.0060 N.am  199  PHE199     -0.1975
     89  CA         4.5330   83.2620   30.6100 C.3   199  PHE199      0.1639
     90  C          4.0470   84.6890   30.5880 C.2   199  PHE199      0.2290
     91  O          2.9200   84.9560   30.1620 O.2   199  PHE199     -0.2864
     92  CB         4.5440   82.6490   32.0150 C.3   199  PHE199      0.0560
     93  CG         4.6580   81.1480   31.9570 C.ar  199  PHE199     -0.0200
     94  CD1        3.5330   80.3600   31.7440 C.ar  199  PHE199     -0.0042
     95  CD2        5.9000   80.5220   32.0430 C.ar  199  PHE199     -0.0042
     96  CE1        3.6460   78.9720   31.6320 C.ar  199  PHE199     -0.0003
     97  CE2        6.0090   79.1320   31.9390 C.ar  199  PHE199     -0.0003
     98  CZ         4.8800   78.3720   31.7320 C.ar  199  PHE199     -0.0000
     99  N          6.3120   75.9960   36.5950 N.3   232  PHE232     -0.1241
    100  CA         6.6230   75.2680   35.3580 C.3   232  PHE232      0.1605
    101  C          8.0710   74.7580   35.3160 C.2   232  PHE232      0.2264
    102  O          8.2930   73.6090   34.9400 O.2   232  PHE232     -0.2867
    103  CB         6.3250   76.1440   34.1360 C.3   232  PHE232      0.0534
    104  CG         6.5420   75.4720   32.8020 C.ar  232  PHE232     -0.0203
    105  CD1        5.7140   74.4440   32.3810 C.ar  232  PHE232     -0.0042
    106  CD2        7.5950   75.8540   31.9780 C.ar  232  PHE232     -0.0042
    107  CE1        5.8990   73.8410   31.1370 C.ar  232  PHE232     -0.0003
    108  CE2        7.7790   75.2520   30.7290 C.ar  232  PHE232     -0.0003
    109  CZ         6.9190   74.2630   30.3130 C.ar  232  PHE232     -0.0000
    110  N          8.6450   72.1430   38.1210 N.3   235  GLN235     -0.1245
    111  CA         8.0360   70.8850   37.6760 C.3   235  GLN235      0.1566
    112  C          8.9000   70.1910   36.6050 C.2   235  GLN235      0.2260
    113  O          9.0870   68.9670   36.6620 O.2   235  GLN235     -0.2867
    114  CB         6.6050   71.1040   37.1700 C.3   235  GLN235      0.0367
    115  CG         6.0030   69.8220   36.6010 C.3   235  GLN235      0.0905
    116  CD         4.5810   69.9740   36.1480 C.2   235  GLN235      0.2608
    117  OE1        3.6840   69.2750   36.6310 O.2   235  GLN235     -0.2717
    118  NE2        4.3700   70.8150   35.1480 N.am  235  GLN235     -0.0878
    119  N         11.2660   63.0670   27.1130 N.3   250  LYS250     -0.1245
    120  CA        12.6470   63.4800   27.3500 C.3   250  LYS250      0.1561
    121  C         13.3390   62.6590   28.4430 C.2   250  LYS250      0.2260
    122  O         12.7100   62.2490   29.4270 O.2   250  LYS250     -0.2867
    123  CB        12.7620   65.0040   27.6120 C.3   250  LYS250      0.0271
    124  CG        12.1590   65.5120   28.9220 C.3   250  LYS250      0.0035
    125  CD        12.2300   67.0500   29.0170 C.3   250  LYS250      0.0206
    126  CE        10.9160   67.7300   28.6460 C.3   250  LYS250      0.1093
    127  NZ        10.9980   69.2200   28.7090 N.3   250  LYS250     -0.1314
    128  N         -4.3880   78.4600   30.9920 N.3   337  LEU337     -0.1245
    129  CA        -2.9600   78.3280   30.9460 C.3   337  LEU337      0.1561
    130  C         -2.4880   77.4960   32.1390 C.2   337  LEU337      0.2260
    131  O         -1.7290   76.5530   31.9260 O.2   337  LEU337     -0.2867
    132  CB        -2.3290   79.7260   30.8980 C.3   337  LEU337      0.0270
    133  CG        -0.8370   79.8270   30.6940 C.3   337  LEU337      0.0019
    134  CD1       -0.3430   78.9420   29.5610 C.3   337  LEU337      0.0001
    135  CD2       -0.4480   81.2540   30.4710 C.3   337  LEU337      0.0001
    136  N         -3.0250   73.8030   31.6160 N.3   340  LYS340     -0.1231
    137  CA        -2.0460   73.2600   30.6900 C.3   340  LYS340      0.1693
    138  C         -0.6740   73.0240   31.3600 C.2   340  LYS340      0.2591
    139  O          0.0310   72.0630   31.0200 O.2   340  LYS340     -0.2718
    140  CB        -1.9250   74.1870   29.4840 C.3   340  LYS340      0.0285
    141  CG        -3.0890   74.0410   28.5150 C.3   340  LYS340      0.0035
    142  CD        -2.6010   73.3740   27.2500 C.3   340  LYS340      0.0206
    143  CE        -3.7240   72.9780   26.3430 C.3   340  LYS340      0.1093
    144  NZ        -3.2230   72.2320   25.1590 N.3   340  LYS340     -0.1314
    145  N         -0.3510   73.8460   32.3670 N.am  341  ILE341     -0.1980
    146  CA         0.9160   73.8220   33.1170 C.3   341  ILE341      0.1595
    147  C          0.8710   72.8480   34.3070 C.2   341  ILE341      0.2287
    148  O          1.7170   71.9780   34.3970 O.2   341  ILE341     -0.2864
    149  CB         1.3370   75.2980   33.4980 C.3   341  ILE341      0.0276
    150  CG1        2.0640   76.0110   32.3420 C.3   341  ILE341      0.0022
    151  CG2        2.2340   75.3670   34.7410 C.3   341  ILE341      0.0022
    152  CD1        1.4170   76.0420   30.9920 C.3   341  ILE341      0.0001
@<TRIPOS>BOND
     1    37    36    1
     2    36    34   ar
     3    36    35   ar
     4    34    32   ar
     5    35    33   ar
     6    32    31   ar
     7    33    31   ar
     8    31    30    1
     9    13    14    1
    10    68    69    1
    11    68    65    1
    12    66    67    2
    13    66    65    1
    14    16    15    2
    15    30    27    1
    16    69    70    1
    17    65    64    1
    18    14    15    1
    19    15    17   am
    20    71    70   ar
    21    70    72   ar
    22     4     3    2
    23    27    26    1
    24    27    28    1
    25    26    19   am
    26    17    18    1
    27    20    19    2
    28    19    18    1
    29    29    28    2
    30    75    76    2
    31    75    74    1
    32    18    21    1
    33    28    38   am
    34     3     2    1
    35    73    74    1
    36    74    77    1
    37    77    78    1
    38    78    79    1
    39     2     1    1
    40     2     5    1
    41    21    22    1
    42    38    39    1
    43    22    23    1
    44    48    49    2
    45    48    47    1
    46     5     6    1
    47    57    58    1
    48    79    81   am
    49    79    80    2
    50    39    40    1
    51    39    42    1
    52    44    43    2
    53    23    24    1
    54    46    40   am
    55    46    47    1
    56    40    41    2
    57    24    25    1
    58     8     6   ar
    59     8    10   ar
    60    59    58    1
    61    59    60    2
    62    47    50    1
    63     6     7   ar
    64    50    51    1
    65    43    42    1
    66    43    45   am
    67    58    61    1
    68    10    11   ar
    69     7     9   ar
    70   144   143    1
    71    52    51    1
    72    52    53    1
    73    55    54    1
    74    61    62    1
    75    61    63    1
    76    11     9   ar
    77    11    12    1
    78    53    54    2
    79   143   142    1
    80    54    56    1
    81   119   120    1
    82   142   141    1
    83   120   123    1
    84   120   121    1
    85   123   124    1
    86    85    84    2
    87   121   122    2
    88    83    82    1
    89    83    84    1
    90    83    86    1
    91   141   140    1
    92    87    86    1
    93   126   127    1
    94   126   125    1
    95   124   125    1
    96    84    88   am
    97   140   137    1
    98   134   133    1
    99    88    89    1
   100    91    90    2
   101   109   108   ar
   102   109   107   ar
   103   135   133    1
   104    90    89    1
   105    89    92    1
   106   137   138    1
   107   137   136    1
   108   133   132    1
   109   108   106   ar
   110   132   129    1
   111   129   128    1
   112   129   130    1
   113   152   150    1
   114   139   138    2
   115   107   105   ar
   116   138   145   am
   117    96    98   ar
   118    96    94   ar
   119    98    97   ar
   120    94    93   ar
   121   131   130    2
   122    97    95   ar
   123    93    92    1
   124    93    95   ar
   125   106   104   ar
   126   150   149    1
   127   145   146    1
   128   105   104   ar
   129   104   103    1
   130   146   149    1
   131   146   147    1
   132   149   151    1
   133   103   100    1
   134   147   148    2
   135   102   101    2
   136   118   116   am
   137   101   100    1
   138   100    99    1
   139   116   115    1
   140   116   117    2
   141   115   114    1
   142   112   113    2
   143   112   111    1
   144   114   111    1
   145   111   110    1
