@<TRIPOS>MOLECULE
tmp/5dgrA00.pdb
 148 148 0 0 0
SMALL
GASTEIGER

@<TRIPOS>ATOM
      1  N         26.0600    4.2120    9.8740 N.3   134  ASP134     -0.1225
      2  CA        25.3490    3.2560    9.0970 C.3   134  ASP134      0.1805
      3  C         24.4230    2.4020    9.8950 C.2   134  ASP134      0.2597
      4  O         23.3550    2.0270    9.3490 O.2   134  ASP134     -0.2718
      5  CB        26.3900    2.3580    8.3550 C.3   134  ASP134      0.1424
      6  CG        25.7850    1.6510    7.1280 C.2   134  ASP134      0.3668
      7  OD1       25.2270    2.3210    6.2510 O.co2 134  ASP134     -0.2456
      8  OD2       25.8870    0.3930    7.0760 O.co2 134  ASP134     -0.2456
      9  N         24.7520    2.0940   11.1750 N.am  135  ALA135     -0.1979
     10  CA        24.0110    1.0300   11.8370 C.3   135  ALA135      0.1597
     11  C         24.1010    1.2310   13.3220 C.2   135  ALA135      0.2287
     12  O         25.0230    1.9700   13.7430 O.2   135  ALA135     -0.2864
     13  CB        24.5820   -0.3550   11.4400 C.3   135  ALA135      0.0319
     14  N         27.5730    0.3300   14.0910 N.3   138  ASP138     -0.1239
     15  CA        28.6050    0.6870   13.1110 C.3   138  ASP138      0.1674
     16  C         28.6160    2.2120   12.8550 C.2   138  ASP138      0.2266
     17  O         27.6560    2.7770   12.3440 O.2   138  ASP138     -0.2867
     18  CB        28.4420   -0.1440   11.8290 C.3   138  ASP138      0.1410
     19  CG        29.5960    0.0460   10.8410 C.2   138  ASP138      0.3668
     20  OD1       30.6310    0.6700   11.2120 O.co2 138  ASP138     -0.2456
     21  OD2       29.5010   -0.4500    9.7010 O.co2 138  ASP138     -0.2456
     22  N         28.6200    4.8890    4.4980 N.3   142  TYR142     -0.1241
     23  CA        28.7420    4.1220    3.2640 C.3   142  TYR142      0.1605
     24  C         27.9390    4.7030    2.1760 C.2   142  TYR142      0.2264
     25  O         26.7390    5.0210    2.3740 O.2   142  TYR142     -0.2867
     26  CB        28.1160    2.6840    3.4760 C.3   142  TYR142      0.0534
     27  CG        28.7440    1.8130    4.4890 C.ar  142  TYR142     -0.0201
     28  CD1       29.4780    0.6880    4.0840 C.ar  142  TYR142     -0.0009
     29  CD2       28.6420    2.0740    5.9130 C.ar  142  TYR142     -0.0009
     30  CE1       30.0540   -0.1730    5.0290 C.ar  142  TYR142      0.0417
     31  CE2       29.1370    1.1990    6.8480 C.ar  142  TYR142      0.0417
     32  CZ        29.9230    0.1060    6.4010 C.ar  142  TYR142      0.1957
     33  OH        30.4760   -0.7120    7.3850 O.3   142  TYR142     -0.2866
     34  N         28.5480   -1.2220    0.0320 N.3   145  HIS145     -0.1241
     35  CA        29.6290   -2.1780    0.2810 C.3   145  HIS145      0.1621
     36  C         29.2330   -3.5270   -0.3900 C.2   145  HIS145      0.2264
     37  O         28.3100   -3.5740   -1.2320 O.2   145  HIS145     -0.2867
     38  CB        29.9430   -2.3090    1.8000 C.3   145  HIS145      0.0745
     39  CG        28.8720   -3.0210    2.5840 C.ar  145  HIS145      0.0817
     40  ND1       27.5530   -2.5730    2.6460 N.ar  145  HIS145     -0.2268
     41  CD2       28.9520   -4.0820    3.4310 C.ar  145  HIS145      0.1154
     42  CE1       26.8740   -3.3680    3.4700 C.ar  145  HIS145      0.1986
     43  NE2       27.6890   -4.3040    3.9370 N.ar  145  HIS145     -0.2212
     44  N         34.6990   -1.8000   11.8090 N.3   214  TRP214     -0.1241
     45  CA        33.7710   -2.0530   12.9150 C.3   214  TRP214      0.1605
     46  C         34.3980   -1.8000   14.2840 C.2   214  TRP214      0.2264
     47  O         33.8500   -2.1660   15.2950 O.2   214  TRP214     -0.2867
     48  CB        33.0790   -3.4210   12.7970 C.3   214  TRP214      0.0550
     49  CG        32.4750   -3.6620   11.4020 C.ar  214  TRP214      0.0003
     50  CD1       31.2800   -3.1560   10.9030 C.ar  214  TRP214      0.0946
     51  CD2       32.9950   -4.5290   10.3870 C.ar  214  TRP214      0.0152
     52  NE1       31.0490   -3.6470    9.6450 N.ar  214  TRP214     -0.2442
     53  CE2       32.0910   -4.4920    9.2960 C.ar  214  TRP214      0.0810
     54  CE3       34.1470   -5.3780   10.3130 C.ar  214  TRP214      0.0012
     55  CZ2       32.2950   -5.2240    8.1310 C.ar  214  TRP214      0.0191
     56  CZ3       34.3910   -6.0590    9.1380 C.ar  214  TRP214      0.0001
     57  CH2       33.4670   -6.0180    8.0650 C.ar  214  TRP214      0.0015
     58  N         36.1320   -2.4910    1.0130 N.3   226  PHE226     -0.1241
     59  CA        36.5920   -3.6360    1.7810 C.3   226  PHE226      0.1605
     60  C         35.8380   -4.8660    1.3520 C.2   226  PHE226      0.2264
     61  O         34.7670   -4.7680    0.7600 O.2   226  PHE226     -0.2867
     62  CB        36.4270   -3.4550    3.2920 C.3   226  PHE226      0.0534
     63  CG        34.9820   -3.2550    3.7390 C.ar  226  PHE226     -0.0203
     64  CD1       34.2040   -4.3610    4.1920 C.ar  226  PHE226     -0.0042
     65  CD2       34.4260   -1.9630    3.8250 C.ar  226  PHE226     -0.0042
     66  CE1       32.8600   -4.1720    4.6260 C.ar  226  PHE226     -0.0003
     67  CE2       33.1120   -1.7930    4.3020 C.ar  226  PHE226     -0.0003
     68  CZ        32.3480   -2.8810    4.6740 C.ar  226  PHE226     -0.0000
     69  N         29.3420  -14.8110    2.9510 N.3   440  TYR440     -0.1227
     70  CA        28.9610  -14.7110    4.3760 C.3   440  TYR440      0.1736
     71  C         27.6570  -13.9180    4.6190 C.2   440  TYR440      0.2595
     72  O         27.0520  -14.1450    5.6290 O.2   440  TYR440     -0.2718
     73  CB        30.0200  -14.0640    5.3220 C.3   440  TYR440      0.0548
     74  CG        30.0650  -12.5410    5.2480 C.ar  440  TYR440     -0.0200
     75  CD1       29.4150  -11.7290    6.2440 C.ar  440  TYR440     -0.0009
     76  CD2       30.6990  -11.9120    4.1910 C.ar  440  TYR440     -0.0009
     77  CE1       29.4210  -10.2990    6.1740 C.ar  440  TYR440      0.0417
     78  CE2       30.7080  -10.5300    4.1120 C.ar  440  TYR440      0.0417
     79  CZ        30.0660   -9.7270    5.1050 C.ar  440  TYR440      0.1957
     80  OH        30.1800   -8.3680    4.9610 O.3   440  TYR440     -0.2866
     81  N         27.3550  -12.9440    3.7580 N.am  441  TRP441     -0.1976
     82  CA        26.3860  -11.8850    4.1530 C.3   441  TRP441      0.1640
     83  C         24.9520  -12.3120    3.8460 C.2   441  TRP441      0.2290
     84  O         24.6560  -12.7280    2.7420 O.2   441  TRP441     -0.2864
     85  CB        26.7180  -10.6400    3.4100 C.3   441  TRP441      0.0576
     86  CG        25.9200   -9.3470    3.8540 C.ar  441  TRP441      0.0006
     87  CD1       26.2920   -8.4510    4.7980 C.ar  441  TRP441      0.0946
     88  CD2       24.7080   -8.8750    3.3030 C.ar  441  TRP441      0.0152
     89  NE1       25.4060   -7.3840    4.8520 N.ar  441  TRP441     -0.2442
     90  CE2       24.3930   -7.6370    3.9710 C.ar  441  TRP441      0.0810
     91  CE3       23.8210   -9.3690    2.3240 C.ar  441  TRP441      0.0012
     92  CZ2       23.2330   -6.9330    3.7190 C.ar  441  TRP441      0.0191
     93  CZ3       22.6330   -8.6590    2.0890 C.ar  441  TRP441      0.0001
     94  CH2       22.3750   -7.4430    2.7350 C.ar  441  TRP441      0.0015
     95  N         20.8320  -11.1710    5.8430 N.3   443  GLN443     -0.1245
     96  CA        20.2800  -10.6060    7.0330 C.3   443  GLN443      0.1566
     97  C         18.7610  -10.4130    6.7900 C.2   443  GLN443      0.2260
     98  O         18.2800  -10.6180    5.6690 O.2   443  GLN443     -0.2867
     99  CB        20.9500   -9.2180    7.3690 C.3   443  GLN443      0.0367
    100  CG        20.8410   -8.2330    6.2310 C.3   443  GLN443      0.0905
    101  CD        21.5770   -6.9460    6.5250 C.2   443  GLN443      0.2608
    102  OE1       22.5780   -6.9320    7.2660 O.2   443  GLN443     -0.2717
    103  NE2       21.0570   -5.8280    5.9830 N.am  443  GLN443     -0.0878
    104  N         17.1890   -5.0550   10.9210 N.3   519  ASN519     -0.1240
    105  CA        17.2860   -5.9070    9.7050 C.3   519  ASN519      0.1653
    106  C         16.0240   -6.7760    9.6130 C.2   519  ASN519      0.2266
    107  O         15.3670   -6.7860    8.5700 O.2   519  ASN519     -0.2867
    108  CB        18.5450   -6.8050    9.7460 C.3   519  ASN519      0.1155
    109  CG        19.8490   -5.9880    9.6520 C.2   519  ASN519      0.2627
    110  OD1       19.9350   -4.9520    8.9680 O.2   519  ASN519     -0.2716
    111  ND2       20.8960   -6.5490   10.2110 N.am  519  ASN519     -0.0877
    112  N         24.1980   -9.9430   14.4850 N.3   546  TRP546     -0.1241
    113  CA        23.8910   -8.7160   13.7650 C.3   546  TRP546      0.1605
    114  C         22.8570   -8.9270   12.6130 C.2   546  TRP546      0.2264
    115  O         22.2250   -7.9730   12.1660 O.2   546  TRP546     -0.2867
    116  CB        25.1930   -8.1860   13.1620 C.3   546  TRP546      0.0550
    117  CG        25.8650   -9.1810   12.1510 C.ar  546  TRP546      0.0003
    118  CD1       26.7790  -10.1540   12.4640 C.ar  546  TRP546      0.0946
    119  CD2       25.6370   -9.2810   10.7410 C.ar  546  TRP546      0.0152
    120  NE1       27.1250  -10.8570   11.3320 N.ar  546  TRP546     -0.2442
    121  CE2       26.4820  -10.3180   10.2490 C.ar  546  TRP546      0.0810
    122  CE3       24.8770   -8.5550    9.8360 C.ar  546  TRP546      0.0012
    123  CZ2       26.5070  -10.7240    8.8760 C.ar  546  TRP546      0.0191
    124  CZ3       24.9090   -8.9260    8.4520 C.ar  546  TRP546      0.0001
    125  CH2       25.7690  -10.0120    7.9920 C.ar  546  TRP546      0.0015
    126  N         20.2200   -5.8750   14.5830 N.3   550  GLU550     -0.1245
    127  CA        20.9250   -4.6360   14.3370 C.3   550  GLU550      0.1567
    128  C         20.0390   -3.7010   13.4770 C.2   550  GLU550      0.2260
    129  O         19.4040   -4.1710   12.4880 O.2   550  GLU550     -0.2867
    130  CB        22.2840   -4.8640   13.6700 C.3   550  GLU550      0.0388
    131  CG        23.1730   -3.5900   13.6850 C.3   550  GLU550      0.1160
    132  CD        24.5880   -3.8040   13.1410 C.2   550  GLU550      0.3649
    133  OE1       24.8430   -4.8190   12.4220 O.co2 550  GLU550     -0.2457
    134  OE2       25.4330   -2.8990   13.3810 O.co2 550  GLU550     -0.2457
    135  N         19.8830   -0.5430   10.6420 N.3   552  TRP552     -0.1241
    136  CA        20.6820   -0.1830    9.4720 C.3   552  TRP552      0.1605
    137  C         19.8840    0.8830    8.7380 C.2   552  TRP552      0.2264
    138  O         18.6510    0.7040    8.4830 O.2   552  TRP552     -0.2867
    139  CB        20.8280   -1.4620    8.5890 C.3   552  TRP552      0.0550
    140  CG        21.8130   -1.3620    7.4830 C.ar  552  TRP552      0.0003
    141  CD1       23.0800   -0.7560    7.5120 C.ar  552  TRP552      0.0946
    142  CD2       21.6520   -1.9260    6.1720 C.ar  552  TRP552      0.0152
    143  NE1       23.6770   -0.9070    6.2430 N.ar  552  TRP552     -0.2442
    144  CE2       22.8230   -1.6210    5.4250 C.ar  552  TRP552      0.0810
    145  CE3       20.5950   -2.6180    5.5370 C.ar  552  TRP552      0.0012
    146  CZ2       22.9710   -1.9940    4.0460 C.ar  552  TRP552      0.0191
    147  CZ3       20.7730   -3.0240    4.1820 C.ar  552  TRP552      0.0001
    148  CH2       21.9700   -2.7240    3.4710 C.ar  552  TRP552      0.0015
@<TRIPOS>BOND
     1    37    36    2
     2    36    35    1
     3    34    35    1
     4    35    38    1
     5    61    60    2
     6    58    59    1
     7    60    59    1
     8    59    62    1
     9    38    39    1
    10    93    91   ar
    11    93    94   ar
    12    24    25    2
    13    24    23    1
    14    91    88   ar
    15    39    40   ar
    16    39    41   ar
    17    40    42   ar
    18    94    92   ar
    19    84    83    2
    20    69    70    1
    21    23    26    1
    22    23    22    1
    23    62    63    1
    24    88    86   ar
    25    88    90   ar
    26    85    86    1
    27    85    82    1
    28    41    43   ar
    29    42    43   ar
    30   148   146   ar
    31   148   147   ar
    32    26    27    1
    33    92    90   ar
    34    63    65   ar
    35    63    64   ar
    36    81    82    1
    37    81    71   am
    38    65    67   ar
    39    83    82    1
    40    86    87   ar
    41    90    89   ar
    42   146   144   ar
    43    28    27   ar
    44    28    30   ar
    45    78    76   ar
    46    78    79   ar
    47   147   145   ar
    48    76    74   ar
    49    64    66   ar
    50    67    68   ar
    51    70    71    1
    52    70    73    1
    53    27    29   ar
    54    71    72    2
    55    66    68   ar
    56    87    89   ar
    57    80    79    1
    58    30    32   ar
    59    79    77   ar
    60    74    73    1
    61    74    75   ar
    62   144   142   ar
    63   144   143   ar
    64   145   142   ar
    65    98    97    2
    66    95    96    1
    67    29    31   ar
    68   103   101   am
    69   142   140   ar
    70    77    75   ar
    71   100   101    1
    72   100    99    1
    73   143   141   ar
    74     7     6   ar
    75    32    31   ar
    76    32    33    1
    77   101   102    2
    78    97    96    1
    79    96    99    1
    80     8     6   ar
    81     6     5    1
    82   140   141   ar
    83   140   139    1
    84   125   124   ar
    85   125   123   ar
    86    57    55   ar
    87    57    56   ar
    88    55    53   ar
    89     5     2    1
    90   124   122   ar
    91   138   137    2
    92   107   106    2
    93   139   136    1
    94   137   136    1
    95   123   121   ar
    96   110   109    2
    97     2     1    1
    98     2     3    1
    99    56    54   ar
   100    53    52   ar
   101    53    51   ar
   102     4     3    2
   103   136   135    1
   104   106   105    1
   105    52    50   ar
   106   109   108    1
   107   109   111   am
   108    21    19   ar
   109   105   108    1
   110   105   104    1
   111   122   119   ar
   112     3     9   am
   113   121   119   ar
   114   121   120   ar
   115    54    51   ar
   116    51    49   ar
   117   119   117   ar
   118    19    20   ar
   119    19    18    1
   120    50    49   ar
   121     9    10    1
   122   120   118   ar
   123    49    48    1
   124    13    10    1
   125    44    45    1
   126    18    15    1
   127    10    11    1
   128   117   118   ar
   129   117   116    1
   130   115   114    2
   131    17    16    2
   132   133   132   ar
   133   129   128    2
   134   114   113    1
   135    48    45    1
   136    16    15    1
   137    45    46    1
   138    15    14    1
   139   132   134   ar
   140   132   131    1
   141   116   113    1
   142    11    12    2
   143   128   127    1
   144   130   131    1
   145   130   127    1
   146   113   112    1
   147    46    47    2
   148   127   126    1
