@<TRIPOS>MOLECULE
tmp/5dgsA00.pdb
 188 178 0 0 0
SMALL
GASTEIGER

@<TRIPOS>ATOM
      1  N         -6.3800   75.7140   21.7200 N.3     3  TYR3       -0.1241
      2  CA        -5.0630   75.5970   21.1030 C.3     3  TYR3        0.1605
      3  C         -5.0600   74.6890   19.8730 C.2     3  TYR3        0.2264
      4  O         -4.7600   75.1590   18.7690 O.2     3  TYR3       -0.2867
      5  CB        -4.0190   75.1140   22.1210 C.3     3  TYR3        0.0534
      6  CG        -3.4180   76.1860   23.0040 C.ar    3  TYR3       -0.0201
      7  CD1       -4.0740   76.6160   24.1520 C.ar    3  TYR3       -0.0009
      8  CD2       -2.1390   76.6790   22.7610 C.ar    3  TYR3       -0.0009
      9  CE1       -3.5010   77.5590   25.0020 C.ar    3  TYR3        0.0417
     10  CE2       -1.5510   77.6100   23.6140 C.ar    3  TYR3        0.0417
     11  CZ        -2.2390   78.0440   24.7330 C.ar    3  TYR3        0.1957
     12  OH        -1.6960   78.9410   25.6050 O.3     3  TYR3       -0.2866
     13  N          8.5980   72.9300   16.3920 N.3    49  GLY49      -0.1210
     14  CA         8.1790   72.8680   17.7870 C.3    49  GLY49       0.1956
     15  C          6.6770   72.7720   17.9050 C.2    49  GLY49       0.2612
     16  O          5.9970   72.6130   16.8920 O.2    49  GLY49      -0.2717
     17  N          6.1460   72.8830   19.1340 N.am   50  LYS50      -0.1965
     18  CA         4.6990   72.8140   19.3950 C.3    50  LYS50       0.1728
     19  C          4.0050   74.1540   19.1180 C.2    50  LYS50       0.2616
     20  O          2.7890   74.1710   18.9610 O.2    50  LYS50      -0.2715
     21  CB         4.3970   72.3210   20.8280 C.3    50  LYS50       0.0311
     22  CG         4.9880   70.9640   21.1820 C.3    50  LYS50       0.0038
     23  CD         4.6340   70.5310   22.6130 C.3    50  LYS50       0.0206
     24  CE         4.1190   69.1010   22.6890 C.3    50  LYS50       0.1093
     25  NZ         3.3070   68.8550   23.9210 N.3    50  LYS50      -0.1314
     26  N          4.7710   75.2660   19.0450 N.am   51  TYR51      -0.1960
     27  CA         4.2740   76.6410   18.7750 C.3    51  TYR51       0.1771
     28  C          3.3830   77.2100   19.9210 C.2    51  TYR51       0.2620
     29  O          2.6050   78.1490   19.7150 O.2    51  TYR51      -0.2715
     30  CB         3.5810   76.7690   17.3740 C.3    51  TYR51       0.0574
     31  CG         4.2870   76.0600   16.2310 C.ar   51  TYR51      -0.0198
     32  CD1        5.5300   76.4950   15.7730 C.ar   51  TYR51      -0.0009
     33  CD2        3.7180   74.9500   15.6140 C.ar   51  TYR51      -0.0009
     34  CE1        6.1970   75.8310   14.7440 C.ar   51  TYR51       0.0417
     35  CE2        4.3680   74.2910   14.5680 C.ar   51  TYR51       0.0417
     36  CZ         5.6120   74.7330   14.1420 C.ar   51  TYR51       0.1957
     37  OH         6.2610   74.0990   13.1110 O.3    51  TYR51      -0.2866
     38  N          3.5250   76.6410   21.1250 N.am   52  ASN52      -0.1958
     39  CA         2.7420   76.9660   22.3200 C.3    52  ASN52       0.1819
     40  C          2.7480   78.4120   22.7430 C.2    52  ASN52       0.2621
     41  O          1.6710   78.9470   23.0420 O.2    52  ASN52      -0.2715
     42  CB         3.1130   76.0510   23.4550 C.3    52  ASN52       0.1195
     43  CG         2.5920   74.6520   23.2690 C.2    52  ASN52       0.2630
     44  OD1        1.4440   74.4240   22.8430 O.2    52  ASN52      -0.2716
     45  ND2        3.4230   73.6850   23.6280 N.am   52  ASN52      -0.0877
     46  N          3.9360   79.0720   22.7060 N.am   53  ARG53      -0.1977
     47  CA         4.0310   80.5090   23.0340 C.3    53  ARG53       0.1597
     48  C          3.3740   81.3410   21.9670 C.2    53  ARG53       0.2287
     49  O          2.5660   82.1910   22.3040 O.2    53  ARG53      -0.2864
     50  CB         5.4590   80.9680   23.2550 C.3    53  ARG53       0.0334
     51  CG         6.1140   80.3100   24.4100 C.3    53  ARG53       0.0492
     52  CD         7.5850   80.5110   24.2620 C.3    53  ARG53       0.2205
     53  NE         8.3170   79.9240   25.3730 N.pl3  53  ARG53      -0.0865
     54  CZ         8.4900   78.6190   25.5480 C.cat  53  ARG53       0.5346
     55  NH1        7.9780   77.7500   24.6780 N.pl3  53  ARG53       0.1354
     56  NH2        9.1770   78.1720   26.5890 N.pl3  53  ARG53       0.1354
     57  N         -0.3920   81.0600   22.2230 N.3    56  THR56      -0.1218
     58  CA        -0.9390   81.8030   23.3680 C.3    56  THR56       0.1862
     59  C         -1.3250   83.2010   22.9350 C.2    56  THR56       0.2287
     60  O         -2.3950   83.6800   23.3160 O.2    56  THR56      -0.2866
     61  CB        -0.0250   81.7790   24.5840 C.3    56  THR56       0.1770
     62  OG1        0.3110   80.4190   24.8530 O.3    56  THR56      -0.2211
     63  CG2       -0.7060   82.3430   25.8030 C.3    56  THR56       0.0375
     64  N          7.5560   83.1310   18.3640 N.3    86  GLU86      -0.1245
     65  CA         8.2680   81.9280   17.9130 C.3    86  GLU86       0.1567
     66  C          9.6220   82.3180   17.3630 C.2    86  GLU86       0.2260
     67  O         10.6220   81.6320   17.6110 O.2    86  GLU86      -0.2867
     68  CB         7.4240   81.1710   16.8860 C.3    86  GLU86       0.0388
     69  CG         6.2240   80.4740   17.5160 C.3    86  GLU86       0.1160
     70  CD         6.5150   79.4450   18.5980 C.2    86  GLU86       0.3649
     71  OE1        7.3720   78.5590   18.3710 O.co2  86  GLU86      -0.2457
     72  OE2        5.8360   79.4840   19.6490 O.co2  86  GLU86      -0.2457
     73  N         11.8790   83.1420   20.2970 N.3    89  GLN89      -0.1245
     74  CA        12.3750   81.8880   20.8410 C.3    89  GLN89       0.1566
     75  C         13.4210   81.1960   19.9540 C.2    89  GLN89       0.2260
     76  O         14.4690   80.7800   20.4530 O.2    89  GLN89      -0.2867
     77  CB        11.2130   80.9600   21.1580 C.3    89  GLN89       0.0367
     78  CG        11.7080   79.8040   21.9370 C.3    89  GLN89       0.0905
     79  CD        10.6640   78.8320   22.2620 C.2    89  GLN89       0.2608
     80  OE1       10.5780   78.3810   23.4050 O.2    89  GLN89      -0.2717
     81  NE2        9.9040   78.4430   21.2460 N.am   89  GLN89      -0.0878
     82  N         14.8540   69.5560   19.5120 N.3   106  ARG106     -0.1245
     83  CA        13.5870   68.9700   19.0010 C.3   106  ARG106      0.1563
     84  C         13.9060   67.6910   18.2250 C.2   106  ARG106      0.2260
     85  O         13.2650   67.4100   17.2010 O.2   106  ARG106     -0.2867
     86  CB        12.7750   69.9730   18.1040 C.3   106  ARG106      0.0307
     87  CG        11.7690   70.8630   18.8160 C.3   106  ARG106      0.0489
     88  CD        12.1070   72.3570   18.7150 C.3   106  ARG106      0.2205
     89  NE        12.0070   72.9950   20.0320 N.pl3 106  ARG106     -0.0865
     90  CZ        11.5570   74.2250   20.2570 C.cat 106  ARG106      0.5346
     91  NH1       11.1850   75.0040   19.2430 N.pl3 106  ARG106      0.1354
     92  NH2       11.4820   74.6930   21.4980 N.pl3 106  ARG106      0.1354
     93  N          8.2540   83.3910   27.9530 N.3   198  SER198     -0.1202
     94  CA         7.3700   82.2530   27.7990 C.3   198  SER198      0.2020
     95  C          5.9710   82.5430   28.2470 C.2   198  SER198      0.2618
     96  O          5.0270   82.1430   27.5750 O.2   198  SER198     -0.2717
     97  CB         7.9350   81.0340   28.5100 C.3   198  SER198      0.2103
     98  OG         9.2710   80.7780   28.1040 O.3   198  SER198     -0.2182
     99  N          5.8220   83.2760   29.3480 N.am  199  PHE199     -0.1975
    100  CA         4.5230   83.5360   29.9300 C.3   199  PHE199      0.1639
    101  C          4.0000   84.9460   29.8770 C.2   199  PHE199      0.2290
    102  O          2.8210   85.1490   29.5500 O.2   199  PHE199     -0.2864
    103  CB         4.4580   82.9390   31.3300 C.3   199  PHE199      0.0560
    104  CG         4.5110   81.4250   31.2860 C.ar  199  PHE199     -0.0200
    105  CD1        5.7330   80.7550   31.2260 C.ar  199  PHE199     -0.0042
    106  CD2        3.3410   80.6720   31.2610 C.ar  199  PHE199     -0.0042
    107  CE1        5.7870   79.3660   31.1210 C.ar  199  PHE199     -0.0003
    108  CE2        3.3950   79.2790   31.1590 C.ar  199  PHE199     -0.0003
    109  CZ         4.6190   78.6370   31.1090 C.ar  199  PHE199     -0.0000
    110  N          6.2700   76.2380   35.6510 N.3   232  PHE232     -0.1241
    111  CA         6.6110   75.5560   34.4090 C.3   232  PHE232      0.1605
    112  C          8.0240   75.0420   34.3720 C.2   232  PHE232      0.2264
    113  O          8.2430   73.8830   34.0020 O.2   232  PHE232     -0.2867
    114  CB         6.3470   76.4230   33.1950 C.3   232  PHE232      0.0534
    115  CG         6.4730   75.6530   31.9060 C.ar  232  PHE232     -0.0203
    116  CD1        5.5960   74.6160   31.6080 C.ar  232  PHE232     -0.0042
    117  CD2        7.4900   75.9400   31.0040 C.ar  232  PHE232     -0.0042
    118  CE1        5.7300   73.8880   30.4240 C.ar  232  PHE232     -0.0003
    119  CE2        7.5980   75.2370   29.8030 C.ar  232  PHE232     -0.0003
    120  CZ         6.7320   74.2010   29.5290 C.ar  232  PHE232     -0.0000
    121  N          8.5920   72.1730   36.8870 N.3   235  GLN235     -0.1231
    122  CA         7.9760   70.9720   36.3140 C.3   235  GLN235      0.1698
    123  C          8.8740   70.3840   35.2190 C.2   235  GLN235      0.2592
    124  O          8.9980   69.1660   35.1560 O.2   235  GLN235     -0.2718
    125  CB         6.5720   71.2600   35.7410 C.3   235  GLN235      0.0381
    126  CG         5.7700   69.9730   35.5630 C.3   235  GLN235      0.0905
    127  CD         4.3510   70.1310   35.1000 C.2   235  GLN235      0.2608
    128  OE1        3.4200   69.6250   35.7290 O.2   235  GLN235     -0.2717
    129  NE2        4.1550   70.7100   33.9350 N.am  235  GLN235     -0.0878
    130  N          9.5000   71.2440   34.3770 N.am  236  ASP236     -0.1974
    131  CA        10.3880   70.8580   33.2690 C.3   236  ASP236      0.1709
    132  C         11.6410   70.1380   33.7600 C.2   236  ASP236      0.2293
    133  O         12.1170   69.2040   33.1070 O.2   236  ASP236     -0.2864
    134  CB        10.7900   72.0770   32.4360 C.3   236  ASP236      0.1436
    135  CG        11.4150   71.6880   31.1220 C.2   236  ASP236      0.3671
    136  OD1       10.6590   71.3680   30.1790 O.co2 236  ASP236     -0.2456
    137  OD2       12.6650   71.6690   31.0430 O.co2 236  ASP236     -0.2456
    138  N         10.2330   66.6620   35.1510 N.3   239  LEU239     -0.1245
    139  CA         9.9580   65.8050   33.9920 C.3   239  LEU239      0.1561
    140  C         11.2350   65.3720   33.2370 C.2   239  LEU239      0.2260
    141  O         11.2420   64.2930   32.6290 O.2   239  LEU239     -0.2867
    142  CB         8.9280   66.4330   33.0350 C.3   239  LEU239      0.0270
    143  CG         7.5160   66.6690   33.5860 C.3   239  LEU239      0.0019
    144  CD1        6.7690   67.6510   32.7220 C.3   239  LEU239      0.0001
    145  CD2        6.7280   65.3790   33.7060 C.3   239  LEU239      0.0001
    146  N         11.5180   63.5880   25.7120 N.3   250  LYS250     -0.1245
    147  CA        12.8580   64.0330   26.1250 C.3   250  LYS250      0.1561
    148  C         13.4870   62.9950   27.0700 C.2   250  LYS250      0.2260
    149  O         12.7610   62.3140   27.7950 O.2   250  LYS250     -0.2867
    150  CB        12.7680   65.4020   26.8470 C.3   250  LYS250      0.0271
    151  CG        12.2340   66.5570   25.9900 C.3   250  LYS250      0.0035
    152  CD        11.2880   67.4980   26.7580 C.3   250  LYS250      0.0206
    153  CE        10.5870   68.4900   25.8490 C.3   250  LYS250      0.1093
    154  NZ        10.0610   69.6730   26.5890 N.3   250  LYS250     -0.1314
    155  N         -4.3760   78.6210   29.9120 N.3   337  LEU337     -0.1245
    156  CA        -2.9450   78.3810   30.0100 C.3   337  LEU337      0.1561
    157  C         -2.6120   77.5220   31.2080 C.2   337  LEU337      0.2260
    158  O         -1.8380   76.5810   31.0580 O.2   337  LEU337     -0.2867
    159  CB        -2.2210   79.7190   30.1510 C.3   337  LEU337      0.0270
    160  CG        -1.0270   80.0080   29.2520 C.3   337  LEU337      0.0019
    161  CD1       -0.1400   81.0280   29.8890 C.3   337  LEU337      0.0001
    162  CD2       -0.2530   78.7430   28.8640 C.3   337  LEU337      0.0001
    163  N         -3.0790   73.9010   30.6190 N.3   340  LYS340     -0.1231
    164  CA        -1.9660   73.3680   29.8360 C.3   340  LYS340      0.1693
    165  C         -0.7090   73.0850   30.6780 C.2   340  LYS340      0.2591
    166  O         -0.0560   72.0700   30.4670 O.2   340  LYS340     -0.2718
    167  CB        -1.6100   74.3150   28.6630 C.3   340  LYS340      0.0285
    168  CG        -2.7930   74.6810   27.7420 C.3   340  LYS340      0.0035
    169  CD        -3.3660   73.4770   27.0130 C.3   340  LYS340      0.0206
    170  CE        -2.9500   73.4250   25.5610 C.3   340  LYS340      0.1093
    171  NZ        -3.6820   72.3430   24.8340 N.3   340  LYS340     -0.1314
    172  N         -0.3940   73.9670   31.6210 N.am  341  ILE341     -0.1980
    173  CA         0.7840   73.8860   32.4710 C.3   341  ILE341      0.1595
    174  C          0.7030   72.8200   33.5670 C.2   341  ILE341      0.2287
    175  O          1.7030   72.1300   33.8150 O.2   341  ILE341     -0.2864
    176  CB         1.1440   75.3040   33.0190 C.3   341  ILE341      0.0276
    177  CG1        1.3480   76.3610   31.8900 C.3   341  ILE341      0.0022
    178  CG2        2.3040   75.3010   34.0000 C.3   341  ILE341      0.0022
    179  CD1        2.2440   75.9740   30.6480 C.3   341  ILE341      0.0001
    180  N         -0.5400   69.3870   34.8330 N.3   343  LYS343     -0.1245
    181  CA        -1.0090   68.0620   34.3640 C.3   343  LYS343      0.1561
    182  C         -1.7630   68.0520   33.0050 C.2   343  LYS343      0.2260
    183  O         -2.0140   69.0940   32.3750 O.2   343  LYS343     -0.2867
    184  CB        -1.7960   67.3140   35.4530 C.3   343  LYS343      0.0271
    185  CG        -1.7540   65.7870   35.3080 C.3   343  LYS343      0.0035
    186  CD        -2.6710   65.0600   36.3140 C.3   343  LYS343      0.0206
    187  CE        -4.1280   65.0050   35.8790 C.3   343  LYS343      0.1093
    188  NZ        -5.0240   64.4570   36.9370 N.3   343  LYS343     -0.1314
@<TRIPOS>BOND
     1    37    36    1
     2    36    35   ar
     3    36    34   ar
     4    35    33   ar
     5    34    32   ar
     6    33    31   ar
     7    32    31   ar
     8    31    30    1
     9    13    14    1
    10    68    69    1
    11    68    65    1
    12    16    15    2
    13    85    84    2
    14    66    67    2
    15    66    65    1
    16    30    27    1
    17    69    70    1
    18    14    15    1
    19    15    17   am
    20    65    64    1
    21    86    87    1
    22    86    83    1
    23    84    83    1
    24    71    70   ar
    25    70    72   ar
    26    88    87    1
    27    88    89    1
    28     4     3    2
    29    27    26    1
    30    27    28    1
    31    20    19    2
    32    83    82    1
    33    26    19   am
    34    19    18    1
    35    17    18    1
    36    91    90    1
    37    18    21    1
    38    29    28    2
    39     3     2    1
    40    28    38   am
    41    75    76    2
    42    75    74    1
    43    89    90    2
    44    90    92    1
    45    73    74    1
    46    21    22    1
    47    74    77    1
    48     2     1    1
    49     2     5    1
    50    38    39    1
    51    77    78    1
    52    22    23    1
    53    81    79   am
    54    78    79    1
    55    48    49    2
    56    48    47    1
    57     5     6    1
    58    57    58    1
    59    79    80    2
    60    39    40    1
    61    39    42    1
    62    23    24    1
    63    24    25    1
    64    46    40   am
    65    46    47    1
    66    40    41    2
    67     8     6   ar
    68     8    10   ar
    69    44    43    2
    70    59    60    2
    71    59    58    1
    72     6     7   ar
    73    47    50    1
    74    50    51    1
    75    43    42    1
    76    43    45   am
    77    58    61    1
    78    10    11   ar
    79     7     9   ar
    80    52    51    1
    81    52    53    1
    82    61    62    1
    83    61    63    1
    84    55    54    1
    85    11     9   ar
    86    11    12    1
    87   171   170    1
    88    53    54    2
    89    54    56    1
    90   170   169    1
    91   146   147    1
    92   153   154    1
    93   153   152    1
    94   151   152    1
    95   151   150    1
    96   147   150    1
    97   147   148    1
    98   169   168    1
    99   148   149    2
   100    96    95    2
   101   168   167    1
   102    94    93    1
   103    94    95    1
   104    94    97    1
   105    98    97    1
   106    95    99   am
   107   167   164    1
   108   162   160    1
   109   160   161    1
   110   160   159    1
   111    99   100    1
   112   120   119   ar
   113   120   118   ar
   114   102   101    2
   115   119   117   ar
   116   164   163    1
   117   164   165    1
   118   101   100    1
   119   155   156    1
   120   100   103    1
   121   156   159    1
   122   156   157    1
   123   136   135   ar
   124   118   116   ar
   125   166   165    2
   126   179   177    1
   127   165   172   am
   128   117   115   ar
   129   137   135   ar
   130   158   157    2
   131   109   107   ar
   132   109   108   ar
   133   107   105   ar
   134   135   134    1
   135   108   106   ar
   136   105   104   ar
   137   106   104   ar
   138   104   103    1
   139   116   115   ar
   140   172   173    1
   141   177   176    1
   142   115   114    1
   143   183   182    2
   144   134   131    1
   145   173   176    1
   146   173   174    1
   147   141   140    2
   148   144   143    1
   149   182   181    1
   150   176   178    1
   151   142   143    1
   152   142   139    1
   153   133   132    2
   154   114   111    1
   155   140   139    1
   156   131   132    1
   157   131   130    1
   158   174   175    2
   159   143   145    1
   160   129   127   am
   161   139   138    1
   162   113   112    2
   163   181   180    1
   164   181   184    1
   165   112   111    1
   166   130   123   am
   167   111   110    1
   168   127   126    1
   169   127   128    2
   170   124   123    2
   171   123   122    1
   172   185   184    1
   173   185   186    1
   174   126   125    1
   175   125   122    1
   176   187   186    1
   177   187   188    1
   178   122   121    1
