@<TRIPOS>MOLECULE
tmp/5dgxA00.pdb
 91 88 0 0 0
SMALL
GASTEIGER

@<TRIPOS>ATOM
      1  N          9.2550   49.2700   52.6870 N.3    24  PHE24      -0.1241
      2  CA         8.2380   50.2250   52.2660 C.3    24  PHE24       0.1605
      3  C          8.0540   51.0940   53.5140 C.2    24  PHE24       0.2264
      4  O          7.4650   50.6470   54.5140 O.2    24  PHE24      -0.2867
      5  CB         6.9410   49.5570   51.8660 C.3    24  PHE24       0.0534
      6  CG         6.9840   48.8760   50.5210 C.ar   24  PHE24      -0.0203
      7  CD1        6.9000   49.6300   49.3610 C.ar   24  PHE24      -0.0042
      8  CD2        6.9980   47.4740   50.4420 C.ar   24  PHE24      -0.0042
      9  CE1        6.8890   48.9990   48.1320 C.ar   24  PHE24      -0.0003
     10  CE2        6.9990   46.8290   49.2180 C.ar   24  PHE24      -0.0003
     11  CZ         6.9420   47.6070   48.0550 C.ar   24  PHE24      -0.0000
     12  N          8.2210   49.6470   57.1110 N.3    27  HIS27      -0.1241
     13  CA         7.9250   48.2090   57.0160 C.3    27  HIS27       0.1621
     14  C          9.0240   47.5160   56.2450 C.2    27  HIS27       0.2264
     15  O          9.0650   47.6080   55.0360 O.2    27  HIS27      -0.2867
     16  CB         6.5430   47.9450   56.3940 C.3    27  HIS27       0.0745
     17  CG         6.1330   46.4950   56.3590 C.ar   27  HIS27       0.0817
     18  ND1        6.4650   45.5890   57.3560 N.ar   27  HIS27      -0.2268
     19  CD2        5.3320   45.8180   55.5000 C.ar   27  HIS27       0.1154
     20  CE1        5.9550   44.4020   57.0640 C.ar   27  HIS27       0.1986
     21  NE2        5.2410   44.5190   55.9560 N.ar   27  HIS27      -0.2212
     22  N         10.4820   44.6550   54.5070 N.3    29  VAL29      -0.1245
     23  CA         9.8790   43.4840   53.8740 C.3    29  VAL29       0.1561
     24  C         10.8770   42.4300   53.3590 C.2    29  VAL29       0.2260
     25  O         10.4790   41.3090   53.0470 O.2    29  VAL29      -0.2867
     26  CB         8.9070   43.9030   52.7560 C.3    29  VAL29       0.0252
     27  CG1        7.7610   44.7200   53.3810 C.3    29  VAL29       0.0019
     28  CG2        9.6210   44.6900   51.6650 C.3    29  VAL29       0.0019
     29  N          1.9070   34.3940   52.1990 N.3    49  SER49      -0.1202
     30  CA         1.6300   35.6850   51.5760 C.3    49  SER49       0.2020
     31  C          2.2650   36.7490   52.4540 C.2    49  SER49       0.2619
     32  O          2.2210   36.6470   53.6970 O.2    49  SER49      -0.2717
     33  CB         0.1200   35.9480   51.5120 C.3    49  SER49       0.2103
     34  OG        -0.1180   37.2390   50.9590 O.3    49  SER49      -0.2182
     35  N          2.8580   37.7580   51.8280 N.am   50  GLY50      -0.1942
     36  CA         3.5370   38.8490   52.5500 C.3    50  GLY50       0.2014
     37  C          4.9800   38.6200   52.9870 C.2    50  GLY50       0.2640
     38  O          5.5610   39.4700   53.6250 O.2    50  GLY50      -0.2714
     39  N          5.5490   37.4630   52.6410 N.am   51  SER51      -0.1935
     40  CA         6.9180   37.1180   53.0130 C.3    51  SER51       0.2055
     41  C          7.9900   37.8850   52.2160 C.2    51  SER51       0.2644
     42  O          9.1800   37.7710   52.5240 O.2    51  SER51      -0.2714
     43  CB         7.1490   35.6170   52.8080 C.3    51  SER51       0.2130
     44  OG         6.3500   34.8330   53.6800 O.3    51  SER51      -0.2179
     45  N          7.5820   38.6170   51.1770 N.am   52  GLY52      -0.1939
     46  CA         8.5070   39.4240   50.3640 C.3    52  GLY52       0.2014
     47  C          8.8980   38.8490   49.0190 C.2    52  GLY52       0.2639
     48  O          9.7680   39.4010   48.3090 O.2    52  GLY52      -0.2714
     49  N          8.2260   37.7830   48.6120 N.am   53  LYS53      -0.1963
     50  CA         8.5860   37.0430   47.3870 C.3    53  LYS53       0.1728
     51  C          8.4380   37.8810   46.0970 C.2    53  LYS53       0.2617
     52  O          9.3520   37.9320   45.2750 O.2    53  LYS53      -0.2715
     53  CB         7.7610   35.7360   47.2820 C.3    53  LYS53       0.0311
     54  CG         7.8800   34.8460   48.5100 C.3    53  LYS53       0.0038
     55  CD         7.1910   33.4950   48.4620 C.3    53  LYS53       0.0206
     56  CE         5.7120   33.5200   48.1160 C.3    53  LYS53       0.1093
     57  NZ         4.9020   34.2870   49.0790 N.3    53  LYS53      -0.1314
     58  N          7.2830   38.5090   45.9290 N.am   54  THR54      -0.1937
     59  CA         7.0050   39.3310   44.7610 C.3    54  THR54       0.2028
     60  C          7.9680   40.5190   44.7240 C.2    54  THR54       0.2642
     61  O          8.5490   40.8610   43.6680 O.2    54  THR54      -0.2714
     62  CB         5.5380   39.8070   44.7780 C.3    54  THR54       0.1808
     63  OG1        4.6720   38.6610   44.8070 O.3    54  THR54      -0.2208
     64  CG2        5.1930   40.6670   43.5630 C.3    54  THR54       0.0379
     65  N          8.1580   41.1370   45.8760 N.am   55  THR55      -0.1950
     66  CA         9.0120   42.3090   45.9850 C.3    55  THR55       0.1897
     67  C         10.4350   41.9380   45.6170 C.2    55  THR55       0.2313
     68  O         11.0670   42.6700   44.8490 O.2    55  THR55      -0.2863
     69  CB         8.9190   42.9050   47.3980 C.3    55  THR55       0.1794
     70  OG1        7.5860   43.3760   47.5830 O.3    55  THR55      -0.2208
     71  CG2        9.8910   44.0450   47.6060 C.3    55  THR55       0.0378
     72  N         11.9180   48.0670   41.6250 N.3    64  TYR64      -0.1241
     73  CA        12.2000   48.7010   42.9350 C.3    64  TYR64       0.1605
     74  C         13.6980   48.5600   43.1380 C.2    64  TYR64       0.2264
     75  O         14.3380   47.6770   42.5220 O.2    64  TYR64      -0.2867
     76  CB        11.5150   48.0020   44.1250 C.3    64  TYR64       0.0534
     77  CG        10.0420   48.1730   44.1900 C.ar   64  TYR64      -0.0201
     78  CD1        9.5060   49.3940   44.5110 C.ar   64  TYR64      -0.0009
     79  CD2        9.1700   47.1060   43.9980 C.ar   64  TYR64      -0.0009
     80  CE1        8.1470   49.6000   44.5760 C.ar   64  TYR64       0.0417
     81  CE2        7.7910   47.2990   44.0660 C.ar   64  TYR64       0.0417
     82  CZ         7.2970   48.5640   44.3550 C.ar   64  TYR64       0.1957
     83  OH         5.9520   48.8200   44.4760 O.3    64  TYR64      -0.2866
     84  N          8.2390   31.6980   41.9570 N.3   187  ILE187     -0.1245
     85  CA         7.4620   31.9100   43.1480 C.3   187  ILE187      0.1561
     86  C          6.4580   30.7740   43.0310 C.2   187  ILE187      0.2260
     87  O          5.4930   30.8300   42.2010 O.2   187  ILE187     -0.2867
     88  CB         6.7620   33.2550   43.1350 C.3   187  ILE187      0.0252
     89  CG1        7.7860   34.3910   43.0030 C.3   187  ILE187      0.0019
     90  CG2        5.9020   33.3920   44.3850 C.3   187  ILE187      0.0019
     91  CD1        7.1320   35.7550   43.0320 C.3   187  ILE187      0.0001
@<TRIPOS>BOND
     1    72    73    1
     2    84    85    1
     3    87    86    2
     4    75    74    2
     5    73    74    1
     6    73    76    1
     7    89    91    1
     8    89    88    1
     9    86    85    1
    10    88    85    1
    11    88    90    1
    12    64    62    1
    13    61    60    2
    14    79    81   ar
    15    79    77   ar
    16    81    82   ar
    17    76    77    1
    18    77    78   ar
    19    82    83    1
    20    82    80   ar
    21    78    80   ar
    22    60    59    1
    23    60    65   am
    24    59    62    1
    25    59    58    1
    26    62    63    1
    27    68    67    2
    28    52    51    2
    29    67    66    1
    30    65    66    1
    31    58    51   am
    32    66    69    1
    33    51    50    1
    34    53    50    1
    35    53    54    1
    36    50    49    1
    37    69    70    1
    38    69    71    1
    39    11     9   ar
    40    11    10   ar
    41    56    55    1
    42    56    57    1
    43     9     7   ar
    44    48    47    2
    45    55    54    1
    46    49    47   am
    47    47    46    1
    48    10     8   ar
    49     7     6   ar
    50    46    45    1
    51     8     6   ar
    52     6     5    1
    53    34    33    1
    54    45    41   am
    55    33    30    1
    56    30    29    1
    57    30    31    1
    58    28    26    1
    59    35    31   am
    60    35    36    1
    61     5     2    1
    62    41    42    2
    63    41    40    1
    64     2     1    1
    65     2     3    1
    66    31    32    2
    67    36    37    1
    68    39    37   am
    69    39    40    1
    70    26    27    1
    71    26    23    1
    72    43    40    1
    73    43    44    1
    74    37    38    2
    75    25    24    2
    76    24    23    1
    77     3     4    2
    78    23    22    1
    79    15    14    2
    80    19    21   ar
    81    19    17   ar
    82    21    20   ar
    83    14    13    1
    84    17    16    1
    85    17    18   ar
    86    16    13    1
    87    13    12    1
    88    20    18   ar
