@<TRIPOS>MOLECULE
tmp/5dgzA00.pdb
 169 156 0 0 0
SMALL
GASTEIGER

@<TRIPOS>ATOM
      1  N         41.8740    4.9390   -4.5920 N.3    12  LEU12      -0.1231
      2  CA        42.3980    3.6650   -5.0730 C.3    12  LEU12       0.1693
      3  C         41.3330    2.8640   -5.8130 C.2    12  LEU12       0.2592
      4  O         41.6220    2.1950   -6.8030 O.2    12  LEU12      -0.2718
      5  CB        42.9590    2.8440   -3.9120 C.3    12  LEU12       0.0284
      6  CG        44.1720    3.4470   -3.2000 C.3    12  LEU12       0.0019
      7  CD1       44.6980    2.5010   -2.1290 C.3    12  LEU12       0.0001
      8  CD2       45.2680    3.8000   -4.2010 C.3    12  LEU12       0.0001
      9  N         40.0990    2.9370   -5.3290 N.am   13  GLY13      -0.1957
     10  CA        39.0000    2.2280   -5.9530 C.3    13  GLY13       0.1869
     11  C         37.6700    2.5340   -5.2970 C.2    13  GLY13       0.2309
     12  O         37.6190    3.0160   -4.1640 O.2    13  GLY13      -0.2863
     13  N         31.4180   -1.7190   -2.2630 N.3    17  PHE17      -0.1241
     14  CA        32.0510   -1.6460   -0.9520 C.3    17  PHE17       0.1605
     15  C         32.1410   -0.2110   -0.4370 C.2    17  PHE17       0.2264
     16  O         32.3110    0.0180    0.7610 O.2    17  PHE17      -0.2867
     17  CB        33.4490   -2.2680   -1.0080 C.3    17  PHE17       0.0534
     18  CG        34.3120   -1.7220   -2.1100 C.ar   17  PHE17      -0.0203
     19  CD1       35.1240   -0.6190   -1.8930 C.ar   17  PHE17      -0.0042
     20  CD2       34.3110   -2.3130   -3.3640 C.ar   17  PHE17      -0.0042
     21  CE1       35.9180   -0.1170   -2.9070 C.ar   17  PHE17      -0.0003
     22  CE2       35.1010   -1.8140   -4.3820 C.ar   17  PHE17      -0.0003
     23  CZ        35.9070   -0.7160   -4.1520 C.ar   17  PHE17      -0.0000
     24  N         37.5510    3.7840   -1.4320 N.3    20  VAL20      -0.1245
     25  CA        38.7970    3.5480   -0.7120 C.3    20  VAL20       0.1561
     26  C         39.9010    4.4610   -1.2220 C.2    20  VAL20       0.2260
     27  O         40.2900    4.3860   -2.3860 O.2    20  VAL20      -0.2867
     28  CB        39.2600    2.0810   -0.8410 C.3    20  VAL20       0.0252
     29  CG1       40.5740    1.8710   -0.1070 C.3    20  VAL20       0.0019
     30  CG2       38.1890    1.1330   -0.3190 C.3    20  VAL20       0.0019
     31  N         44.8570    2.9180    4.4600 N.3    33  ALA33      -0.1245
     32  CA        43.7780    2.9730    3.4910 C.3    33  ALA33       0.1562
     33  C         42.5550    3.5620    4.1740 C.2    33  ALA33       0.2260
     34  O         42.2030    3.1660    5.2850 O.2    33  ALA33      -0.2867
     35  CB        43.4780    1.5910    2.9250 C.3    33  ALA33       0.0290
     36  N         38.6120    4.0850    4.0200 N.3    35  LYS35      -0.1245
     37  CA        37.4190    3.5250    3.3970 C.3    35  LYS35       0.1561
     38  C         36.1550    4.2510    3.8380 C.2    35  LYS35       0.2260
     39  O         35.8410    4.3140    5.0250 O.2    35  LYS35      -0.2867
     40  CB        37.3070    2.0330    3.7220 C.3    35  LYS35       0.0271
     41  CG        36.1490    1.3250    3.0400 C.3    35  LYS35       0.0035
     42  CD        36.1170   -0.1500    3.4130 C.3    35  LYS35       0.0206
     43  CE        34.9020   -0.8420    2.8230 C.3    35  LYS35       0.1093
     44  NZ        34.8710   -2.2910    3.1550 N.3    35  LYS35      -0.1314
     45  N         31.4200   -4.9320    9.2980 N.3    57  GLU57      -0.1245
     46  CA        32.8460   -5.0840    9.0230 C.3    57  GLU57       0.1567
     47  C         33.6900   -4.5780   10.1870 C.2    57  GLU57       0.2260
     48  O         34.7260   -5.1590   10.5050 O.2    57  GLU57      -0.2867
     49  CB        33.2410   -4.3570    7.7330 C.3    57  GLU57       0.0388
     50  CG        34.7070   -4.5620    7.3570 C.3    57  GLU57       0.1160
     51  CD        35.0780   -3.9780    6.0050 C.2    57  GLU57       0.3649
     52  OE1       34.3530   -3.0840    5.5110 O.co2  57  GLU57      -0.2457
     53  OE2       36.1020   -4.4210    5.4370 O.co2  57  GLU57      -0.2457
     54  N         44.0330   -8.0680    7.1440 N.3    72  ILE72      -0.1245
     55  CA        44.2550   -6.6470    7.1600 C.3    72  ILE72       0.1561
     56  C         43.7940   -6.0200    8.4610 C.2    72  ILE72       0.2260
     57  O         42.7750   -6.3760    8.9470 O.2    72  ILE72      -0.2867
     58  CB        43.5300   -6.0060    5.9770 C.3    72  ILE72       0.0252
     59  CG1       44.2120   -4.7220    5.5710 C.3    72  ILE72       0.0019
     60  CG2       42.0290   -5.8540    6.2320 C.3    72  ILE72       0.0019
     61  CD1       45.5020   -4.9830    4.8570 C.3    72  ILE72       0.0001
     62  N         42.5500    1.6460    7.6470 N.3    88  LEU88      -0.1231
     63  CA        43.1280    0.3420    7.5640 C.3    88  LEU88       0.1693
     64  C         44.5790    0.3780    7.1920 C.2    88  LEU88       0.2592
     65  O         45.0620    1.3250    6.6440 O.2    88  LEU88      -0.2718
     66  CB        42.3710   -0.4970    6.5500 C.3    88  LEU88       0.0284
     67  CG        40.9270   -0.7790    6.8670 C.3    88  LEU88       0.0019
     68  CD1       40.0490   -0.5200    5.6850 C.3    88  LEU88       0.0001
     69  CD2       40.7700   -2.2120    7.2750 C.3    88  LEU88       0.0001
     70  N         45.2470   -0.7080    7.5230 N.am   89  GLU89      -0.1966
     71  CA        46.5780   -1.0390    7.0940 C.3    89  GLU89       0.1733
     72  C         46.6800   -0.9170    5.6100 C.2    89  GLU89       0.2616
     73  O         45.7880   -1.2940    4.9200 O.2    89  GLU89      -0.2715
     74  CB        46.7880   -2.4990    7.3780 C.3    89  GLU89       0.0429
     75  CG        47.8090   -2.8790    8.4050 C.3    89  GLU89       0.1163
     76  CD        48.2760   -4.3080    8.2190 C.2    89  GLU89       0.3649
     77  OE1       49.4860   -4.5410    8.0630 O.co2  89  GLU89      -0.2457
     78  OE2       47.4290   -5.2080    8.2170 O.co2  89  GLU89      -0.2457
     79  N         47.8050   -0.4540    5.1200 N.am   90  ARG90      -0.1964
     80  CA        48.0660   -0.4930    3.7070 C.3    90  ARG90       0.1714
     81  C         49.4720   -0.9430    3.4260 C.2    90  ARG90       0.2458
     82  O         50.3860   -0.2290    3.6990 O.2    90  ARG90      -0.2730
     83  CB        47.8220    0.8620    3.0530 C.3    90  ARG90       0.0347
     84  CG        48.0490    0.8470    1.5700 C.3    90  ARG90       0.0492
     85  CD        47.6370    2.1040    0.8420 C.3    90  ARG90       0.2205
     86  NE        48.1650    3.3170    1.4180 N.pl3  90  ARG90      -0.0865
     87  CZ        49.2600    3.9230    1.0070 C.cat  90  ARG90       0.5346
     88  NH1       49.6490    5.0190    1.5990 N.pl3  90  ARG90       0.1354
     89  NH2       49.9670    3.4220    0.0290 N.pl3  90  ARG90       0.1354
     90  N         49.6540   -2.1250    2.8590 N.am   91  PRO91      -0.2727
     91  CA        51.0210   -2.4630    2.4420 C.3    91  PRO91       0.1402
     92  C         51.5310   -1.6690    1.2370 C.2    91  PRO91       0.2269
     93  O         50.7620   -1.1780    0.4690 O.2    91  PRO91      -0.2865
     94  CB        50.9310   -3.9350    2.0730 C.3    91  PRO91       0.0296
     95  CG        49.7310   -4.4440    2.7040 C.3    91  PRO91       0.0237
     96  CD        48.7920   -3.3520    2.5100 C.3    91  PRO91       0.0939
     97  N         52.1740   -2.8450   -3.0000 N.3    94  VAL94      -0.1245
     98  CA        51.1330   -3.8460   -2.9400 C.3    94  VAL94       0.1561
     99  C         50.4720   -4.1440   -4.2710 C.2    94  VAL94       0.2260
    100  O         50.4760   -3.3450   -5.1440 O.2    94  VAL94      -0.2867
    101  CB        50.0680   -3.4550   -1.9130 C.3    94  VAL94       0.0252
    102  CG1       49.1710   -2.3720   -2.4520 C.3    94  VAL94       0.0019
    103  CG2       49.2580   -4.6560   -1.4900 C.3    94  VAL94       0.0019
    104  N         46.9310   -6.6880   -5.6210 N.3    96  ASP96      -0.1239
    105  CA        46.0180   -7.7450   -5.2160 C.3    96  ASP96       0.1674
    106  C         46.2410   -8.9790   -6.0850 C.2    96  ASP96       0.2266
    107  O         46.9150   -8.9150   -7.1180 O.2    96  ASP96      -0.2867
    108  CB        44.5460   -7.2810   -5.2420 C.3    96  ASP96       0.1410
    109  CG        44.0210   -6.9650   -6.6410 C.2    96  ASP96       0.3668
    110  OD1       43.0760   -6.1520   -6.7280 O.co2  96  ASP96      -0.2456
    111  OD2       44.5050   -7.5280   -7.6450 O.co2  96  ASP96      -0.2456
    112  N         45.1060   -8.8240   -9.9390 N.3    99  ASP99      -0.1239
    113  CA        46.0200   -8.1430  -10.8460 C.3    99  ASP99       0.1674
    114  C         47.2980   -8.9450  -11.0510 C.2    99  ASP99       0.2266
    115  O         47.8610   -8.9630  -12.1430 O.2    99  ASP99      -0.2867
    116  CB        46.3580   -6.7480  -10.3200 C.3    99  ASP99       0.1410
    117  CG        45.1710   -5.8160  -10.3490 C.2    99  ASP99       0.3668
    118  OD1       44.2830   -6.0140  -11.2040 O.co2  99  ASP99      -0.2456
    119  OD2       45.1260   -4.8870   -9.5180 O.co2  99  ASP99      -0.2456
    120  N         38.1970  -14.4050   -2.5430 N.3   137  LYS137     -0.1245
    121  CA        38.5580  -14.4000   -3.9550 C.3   137  LYS137      0.1561
    122  C         39.8320  -13.5850   -4.1470 C.2   137  LYS137      0.2260
    123  O         40.2280  -12.8340   -3.2540 O.2   137  LYS137     -0.2867
    124  CB        37.4250  -13.8330   -4.8130 C.3   137  LYS137      0.0271
    125  CG        36.9710  -12.4360   -4.4330 C.3   137  LYS137      0.0035
    126  CD        35.8810  -11.9630   -5.3740 C.3   137  LYS137      0.0206
    127  CE        35.3580  -10.5940   -4.9810 C.3   137  LYS137      0.1093
    128  NZ        34.2570  -10.1450   -5.8810 N.3   137  LYS137     -0.1314
    129  N         40.5200  -10.9590   -5.7260 N.3   139  GLU139     -0.1231
    130  CA        40.2990   -9.5220   -5.6320 C.3   139  GLU139      0.1699
    131  C         40.3050   -9.0360   -4.1830 C.2   139  GLU139      0.2592
    132  O         40.5240   -7.8540   -3.9170 O.2   139  GLU139     -0.2718
    133  CB        38.9720   -9.1670   -6.3010 C.3   139  GLU139      0.0402
    134  CG        38.8440   -7.7330   -6.7490 C.3   139  GLU139      0.1161
    135  CD        37.4530   -7.4200   -7.2690 C.2   139  GLU139      0.3649
    136  OE1       37.3390   -6.9530   -8.4210 O.co2 139  GLU139     -0.2457
    137  OE2       36.4760   -7.6400   -6.5200 O.co2 139  GLU139     -0.2457
    138  N         40.0550   -9.9520   -3.2510 N.am  140  ASN140     -0.1974
    139  CA        40.0370   -9.6150   -1.8310 C.3   140  ASN140      0.1688
    140  C         41.2640  -10.1400   -1.0970 C.2   140  ASN140      0.2292
    141  O         41.2120  -10.4480    0.0930 O.2   140  ASN140     -0.2864
    142  CB        38.7670  -10.1510   -1.1750 C.3   140  ASN140      0.1181
    143  CG        37.5320   -9.3950   -1.6080 C.2   140  ASN140      0.2629
    144  OD1       37.6030   -8.2100   -1.9350 O.2   140  ASN140     -0.2716
    145  ND2       36.3900  -10.0730   -1.6130 N.am  140  ASN140     -0.0877
    146  N         45.3750   -9.1000   -0.7530 N.3   142  LEU142     -0.1245
    147  CA        46.4790   -8.2040   -1.0610 C.3   142  LEU142      0.1561
    148  C         47.8000   -8.9310   -0.9060 C.2   142  LEU142      0.2260
    149  O         47.9580   -9.7590   -0.0080 O.2   142  LEU142     -0.2867
    150  CB        46.4540   -6.9710   -0.1580 C.3   142  LEU142      0.0270
    151  CG        45.2700   -6.0200   -0.3070 C.3   142  LEU142      0.0019
    152  CD1       45.4790   -4.7910    0.5650 C.3   142  LEU142      0.0001
    153  CD2       45.0800   -5.6300   -1.7650 C.3   142  LEU142      0.0001
    154  N         41.2120   -8.9270    2.7340 N.3   153  ILE153     -0.1231
    155  CA        40.5630   -7.6270    2.8590 C.3   153  ILE153      0.1692
    156  C         39.0710   -7.7290    2.5740 C.2   153  ILE153      0.2592
    157  O         38.5870   -8.7630    2.1070 O.2   153  ILE153     -0.2718
    158  CB        41.1800   -6.5710    1.9120 C.3   153  ILE153      0.0266
    159  CG1       41.0030   -6.9850    0.4490 C.3   153  ILE153      0.0019
    160  CG2       42.6460   -6.3270    2.2470 C.3   153  ILE153      0.0020
    161  CD1       41.4690   -5.9430   -0.5430 C.3   153  ILE153      0.0001
    162  N         38.3610   -6.6420    2.8700 N.am  154  ASP154     -0.1974
    163  CA        36.9220   -6.5050    2.6360 C.3   154  ASP154      0.1709
    164  C         36.0810   -7.5290    3.3990 C.2   154  ASP154      0.2293
    165  O         35.7660   -8.6060    2.8870 O.2   154  ASP154     -0.2864
    166  CB        36.6140   -6.5910    1.1390 C.3   154  ASP154      0.1436
    167  CG        35.1590   -6.2780    0.8230 C.2   154  ASP154      0.3671
    168  OD1       34.4710   -5.6790    1.6770 O.co2 154  ASP154     -0.2456
    169  OD2       34.7060   -6.6250   -0.2870 O.co2 154  ASP154     -0.2456
@<TRIPOS>BOND
     1   115   114    2
     2   118   117   ar
     3   114   113    1
     4   113   116    1
     5   113   112    1
     6   117   116    1
     7   117   119   ar
     8   136   135   ar
     9   111   109   ar
    10   135   134    1
    11   135   137   ar
    12   107   106    2
    13     4     3    2
    14   134   133    1
    15   110   109   ar
    16   109   108    1
    17   133   130    1
    18   106   105    1
    19    10     9    1
    20    10    11    1
    21   128   127    1
    22     3     9   am
    23     3     2    1
    24   129   130    1
    25   130   131    1
    26   104   105    1
    27   126   127    1
    28   126   125    1
    29    11    12    2
    30   108   105    1
    31   100    99    2
    32     2     1    1
    33     2     5    1
    34   124   125    1
    35   124   121    1
    36    22    23   ar
    37    22    20   ar
    38    99    98    1
    39     8     6    1
    40   131   132    2
    41   131   138   am
    42    23    21   ar
    43   122   121    1
    44   122   123    2
    45   121   120    1
    46     5     6    1
    47    20    18   ar
    48   138   139    1
    49     6     7    1
    50    97    98    1
    51    98   101    1
    52    21    19   ar
    53   102   101    1
    54    27    26    2
    55    13    14    1
    56    18    19   ar
    57    18    17    1
    58   144   143    2
    59   101   103    1
    60   139   142    1
    61   139   140    1
    62   153   151    1
    63   145   143   am
    64   143   142    1
    65    24    25    1
    66    26    25    1
    67   140   141    2
    68   147   148    1
    69   147   146    1
    70   147   150    1
    71    17    14    1
    72    14    15    1
    73   148   149    2
    74    28    25    1
    75    28    30    1
    76    28    29    1
    77   161   159    1
    78    15    16    2
    79   151   150    1
    80   151   152    1
    81   169   167   ar
    82    89    87    1
    83   159   158    1
    84    93    92    2
    85   167   166    1
    86   167   168   ar
    87    85    86    1
    88    85    84    1
    89    87    86    2
    90    87    88    1
    91   166   163    1
    92    92    91    1
    93    84    83    1
    94   158   160    1
    95   158   155    1
    96    94    91    1
    97    94    95    1
    98   157   156    2
    99    91    90    1
   100    96    95    1
   101    96    90    1
   102   156   155    1
   103   156   162   am
   104   163   162    1
   105   163   164    1
   106   154   155    1
   107    43    44    1
   108    43    42    1
   109    90    81   am
   110   165   164    2
   111    35    32    1
   112    41    42    1
   113    41    40    1
   114    83    80    1
   115    37    40    1
   116    37    38    1
   117    37    36    1
   118    81    82    2
   119    81    80    1
   120    32    33    1
   121    32    31    1
   122    80    79    1
   123    38    39    2
   124    33    34    2
   125    61    59    1
   126    73    72    2
   127    79    72   am
   128    53    51   ar
   129    52    51   ar
   130    59    58    1
   131    72    71    1
   132    68    67    1
   133    58    60    1
   134    58    55    1
   135    51    50    1
   136    66    67    1
   137    66    63    1
   138    65    64    2
   139    67    69    1
   140    71    74    1
   141    71    70    1
   142    54    55    1
   143    55    56    1
   144    64    70   am
   145    64    63    1
   146    50    49    1
   147    74    75    1
   148    63    62    1
   149    49    46    1
   150    77    76   ar
   151    78    76   ar
   152    76    75    1
   153    56    57    2
   154    46    45    1
   155    46    47    1
   156    47    48    2
