@<TRIPOS>MOLECULE
tmp/5dh3A00.pdb
 165 154 0 0 0
SMALL
GASTEIGER

@<TRIPOS>ATOM
      1  N         33.2310   24.2750   40.1720 N.3    15  LEU15      -0.1231
      2  CA        32.7570   23.7140   41.4340 C.3    15  LEU15       0.1693
      3  C         33.7360   22.7880   42.1530 C.2    15  LEU15       0.2593
      4  O         33.8400   22.8090   43.3750 O.2    15  LEU15      -0.2718
      5  CB        31.4190   23.0080   41.2260 C.3    15  LEU15       0.0284
      6  CG        30.2690   23.9310   40.8320 C.3    15  LEU15       0.0019
      7  CD1       29.0380   23.1310   40.4470 C.3    15  LEU15       0.0001
      8  CD2       29.9520   24.8990   41.9560 C.3    15  LEU15       0.0001
      9  N         34.4290   21.9570   41.3850 N.am   16  GLY16      -0.1942
     10  CA        35.2250   20.8780   41.9380 C.3    16  GLY16       0.2014
     11  C         35.6280   19.8810   40.8690 C.2    16  GLY16       0.2639
     12  O         35.5170   20.1680   39.6860 O.2    16  GLY16      -0.2714
     13  N         36.0940   18.7070   41.2710 N.am   17  GLU17      -0.1963
     14  CA        36.5180   17.7400   40.2720 C.3    17  GLU17       0.1733
     15  C         35.5570   16.5630   40.1310 C.2    17  GLU17       0.2616
     16  O         35.3030   15.8130   41.0710 O.2    17  GLU17      -0.2715
     17  CB        37.9460   17.2590   40.5490 C.3    17  GLU17       0.0429
     18  CG        38.9740   17.7450   39.5360 C.3    17  GLU17       0.1163
     19  CD        38.9350   19.2490   39.3260 C.2    17  GLU17       0.3649
     20  OE1       37.8220   19.8100   39.2810 O.co2  17  GLU17      -0.2457
     21  OE2       40.0140   19.8650   39.2090 O.co2  17  GLU17      -0.2457
     22  N         35.0420   16.4300   38.9160 N.am   18  GLY18      -0.1955
     23  CA        34.2510   15.3070   38.4660 C.3    18  GLY18       0.1869
     24  C         35.1610   14.1440   38.1510 C.2    18  GLY18       0.2309
     25  O         36.3700   14.3100   38.0490 O.2    18  GLY18      -0.2863
     26  N         34.2570   20.1850   37.1780 N.3    23  VAL23      -0.1245
     27  CA        32.8460   20.5150   37.0850 C.3    23  VAL23       0.1561
     28  C         32.6360   21.9990   37.3290 C.2    23  VAL23       0.2260
     29  O         33.1980   22.5600   38.2520 O.2    23  VAL23      -0.2867
     30  CB        32.0340   19.7180   38.1100 C.3    23  VAL23       0.0252
     31  CG1       30.5890   20.1600   38.1000 C.3    23  VAL23       0.0019
     32  CG2       32.1370   18.2360   37.8210 C.3    23  VAL23       0.0019
     33  N         25.1570   22.2230   36.5810 N.3    36  ALA36      -0.1245
     34  CA        26.5650   21.9050   36.6910 C.3    36  ALA36       0.1562
     35  C         27.0230   21.2180   35.4240 C.2    36  ALA36       0.2260
     36  O         26.3820   20.3030   34.9380 O.2    36  ALA36      -0.2867
     37  CB        26.8180   21.0220   37.8960 C.3    36  ALA36       0.0290
     38  N         30.2180   19.3380   33.3880 N.3    38  LYS38      -0.1245
     39  CA        31.5020   18.6850   33.5340 C.3    38  LYS38       0.1561
     40  C         32.2040   18.6880   32.1960 C.2    38  LYS38       0.2260
     41  O         31.6630   18.2260   31.2060 O.2    38  LYS38      -0.2867
     42  CB        31.3030   17.2530   34.0120 C.3    38  LYS38       0.0271
     43  CG        32.5860   16.4870   34.2640 C.3    38  LYS38       0.0035
     44  CD        32.4020   15.0090   33.9710 C.3    38  LYS38       0.0206
     45  CE        32.7580   14.1410   35.1650 C.3    38  LYS38       0.1093
     46  NZ        31.6360   13.2390   35.5350 N.3    38  LYS38      -0.1314
     47  N         21.2700   12.2330   40.9360 N.3    65  VAL65      -0.1245
     48  CA        21.4680   13.4360   40.1440 C.3    65  VAL65       0.1561
     49  C         21.0550   13.2410   38.6920 C.2    65  VAL65       0.2260
     50  O         21.4170   12.2610   38.0550 O.2    65  VAL65      -0.2867
     51  CB        22.9310   13.8870   40.1770 C.3    65  VAL65       0.0252
     52  CG1       23.2660   14.6490   38.9160 C.3    65  VAL65       0.0019
     53  CG2       23.1840   14.7500   41.3940 C.3    65  VAL65       0.0019
     54  N         24.4110   18.6330   34.0430 N.3    81  MET81      -0.1230
     55  CA        23.8170   17.8640   35.1110 C.3    81  MET81       0.1702
     56  C         23.1880   18.7560   36.1550 C.2    81  MET81       0.2592
     57  O         23.4790   19.9360   36.2290 O.2    81  MET81      -0.2718
     58  CB        24.8640   16.9610   35.7410 C.3    81  MET81       0.0401
     59  CG        25.3450   15.8710   34.8080 C.3    81  MET81       0.0596
     60  SD        26.4860   14.7490   35.6070 S.3    81  MET81      -0.1393
     61  CE        28.0020   15.6820   35.5170 C.3    81  MET81       0.0692
     62  N         22.3120   18.1750   36.9570 N.am   82  GLU82      -0.1966
     63  CA        21.6080   18.9140   37.9780 C.3    82  GLU82       0.1733
     64  C         22.6000   19.4800   38.9740 C.2    82  GLU82       0.2616
     65  O         23.6170   18.8730   39.2790 O.2    82  GLU82      -0.2715
     66  CB        20.6000   18.0050   38.6730 C.3    82  GLU82       0.0429
     67  CG        20.3760   18.2970   40.1410 C.3    82  GLU82       0.1163
     68  CD        19.2800   17.4400   40.7300 C.2    82  GLU82       0.3649
     69  OE1       19.0420   16.3410   40.2000 O.co2  82  GLU82      -0.2457
     70  OE2       18.6520   17.8640   41.7170 O.co2  82  GLU82      -0.2457
     71  N         22.3000   20.6730   39.4570 N.am   83  TYR83      -0.1960
     72  CA        23.1870   21.3950   40.3470 C.3    83  TYR83       0.1771
     73  C         22.6770   21.3110   41.7750 C.2    83  TYR83       0.2620
     74  O         21.4900   21.4570   42.0190 O.2    83  TYR83      -0.2715
     75  CB        23.2780   22.8500   39.8980 C.3    83  TYR83       0.0574
     76  CG        23.9760   23.7610   40.8670 C.ar   83  TYR83      -0.0198
     77  CD1       25.3500   23.8380   40.9000 C.ar   83  TYR83      -0.0009
     78  CD2       23.2570   24.5540   41.7380 C.ar   83  TYR83      -0.0009
     79  CE1       25.9920   24.6730   41.7830 C.ar   83  TYR83       0.0417
     80  CE2       23.8920   25.3930   42.6220 C.ar   83  TYR83       0.0417
     81  CZ        25.2580   25.4460   42.6370 C.ar   83  TYR83       0.1957
     82  OH        25.8930   26.2780   43.5140 O.3    83  TYR83      -0.2866
     83  N         23.5750   21.0240   42.7070 N.am   84  CYS84      -0.1954
     84  CA        23.2230   20.9900   44.1180 C.3    84  CYS84       0.1843
     85  C         23.9570   22.0970   44.8360 C.2    84  CYS84       0.2626
     86  O         25.1790   22.1400   44.8310 O.2    84  CYS84      -0.2714
     87  CB        23.6080   19.6480   44.7230 C.3    84  CYS84       0.0997
     88  SG        23.0550   18.2250   43.7730 S.3    84  CYS84      -0.0797
     89  N         23.2040   22.9830   45.4720 N.am   85  GLY85      -0.1940
     90  CA        23.7750   24.1800   46.0500 C.3    85  GLY85       0.2014
     91  C         24.7680   23.9430   47.1580 C.2    85  GLY85       0.2639
     92  O         25.8100   24.5860   47.2170 O.2    85  GLY85      -0.2714
     93  N         24.4400   23.0120   48.0400 N.am   86  ALA86      -0.1963
     94  CA        25.2780   22.7070   49.1870 C.3    86  ALA86       0.1728
     95  C         26.6320   22.1450   48.7970 C.2    86  ALA86       0.2617
     96  O         27.6400   22.4520   49.4170 O.2    86  ALA86      -0.2715
     97  CB        24.5540   21.7750   50.1380 C.3    86  ALA86       0.0334
     98  N         26.6490   21.3160   47.7650 N.am   87  GLY87      -0.1940
     99  CA        27.8590   20.6280   47.3680 C.3    87  GLY87       0.2014
    100  C         27.9780   19.2610   48.0010 C.2    87  GLY87       0.2639
    101  O         27.0400   18.7580   48.5880 O.2    87  GLY87      -0.2714
    102  N         29.1380   18.6460   47.8510 N.am   88  SER88      -0.1949
    103  CA        29.3610   17.3140   48.3700 C.3    88  SER88       0.1924
    104  C         29.4290   17.3140   49.8830 C.2    88  SER88       0.2314
    105  O         29.7850   18.3060   50.4970 O.2    88  SER88      -0.2863
    106  CB        30.6470   16.7400   47.8050 C.3    88  SER88       0.2116
    107  OG        31.7250   17.0490   48.6540 O.3    88  SER88      -0.2180
    108  N         32.6510   18.2870   50.8530 N.3    91  ASP91      -0.1239
    109  CA        32.9190   19.7160   50.8050 C.3    91  ASP91       0.1674
    110  C         32.4400   20.3970   52.0700 C.2    91  ASP91       0.2266
    111  O         33.1280   21.2310   52.6350 O.2    91  ASP91      -0.2867
    112  CB        32.2210   20.3580   49.6080 C.3    91  ASP91       0.1410
    113  CG        32.8300   19.9500   48.2940 C.2    91  ASP91       0.3668
    114  OD1       34.0310   19.6260   48.2740 O.co2  91  ASP91      -0.2456
    115  OD2       32.1050   19.9540   47.2840 O.co2  91  ASP91      -0.2456
    116  N         34.7860   22.7350   54.5300 N.3    95  LEU95      -0.1245
    117  CA        34.6130   24.1600   54.7370 C.3    95  LEU95       0.1561
    118  C         34.4360   24.5010   56.2040 C.2    95  LEU95       0.2260
    119  O         35.0730   25.4080   56.7270 O.2    95  LEU95      -0.2867
    120  CB        33.3950   24.6500   53.9590 C.3    95  LEU95       0.0270
    121  CG        33.4290   24.5000   52.4400 C.3    95  LEU95       0.0019
    122  CD1       32.1020   24.9100   51.8320 C.3    95  LEU95       0.0001
    123  CD2       34.5590   25.3140   51.8450 C.3    95  LEU95       0.0001
    124  N         32.4050   12.3380   48.8860 N.3   132  GLY132     -0.1210
    125  CA        32.6000   13.2540   47.7820 C.3   132  GLY132      0.1956
    126  C         31.5140   13.1340   46.7380 C.2   132  GLY132      0.2611
    127  O         31.1330   14.1090   46.1140 O.2   132  GLY132     -0.2717
    128  N         31.0110   11.9250   46.5580 N.am  133  ASN133     -0.1974
    129  CA        30.0130   11.6720   45.5380 C.3   133  ASN133      0.1688
    130  C         28.5920   11.7110   46.0620 C.2   133  ASN133      0.2292
    131  O         27.6540   11.3890   45.3510 O.2   133  ASN133     -0.2864
    132  CB        30.3180   10.3850   44.7860 C.3   133  ASN133      0.1181
    133  CG        31.6170   10.4660   44.0230 C.2   133  ASN133      0.2629
    134  OD1       32.0360   11.5400   43.6120 O.2   133  ASN133     -0.2716
    135  ND2       32.2700    9.3350   43.8440 N.am  133  ASN133     -0.0877
    136  N         25.8380   14.3290   47.2060 N.3   135  LEU135     -0.1245
    137  CA        25.6180   15.7410   46.9650 C.3   135  LEU135      0.1561
    138  C         24.3630   16.2400   47.6400 C.2   135  LEU135      0.2260
    139  O         23.3910   15.5160   47.7700 O.2   135  LEU135     -0.2867
    140  CB        25.5420   16.0140   45.4720 C.3   135  LEU135      0.0270
    141  CG        26.8690   16.4510   44.8760 C.3   135  LEU135      0.0019
    142  CD1       27.9810   15.5950   45.4440 C.3   135  LEU135      0.0001
    143  CD2       26.8170   16.3410   43.3670 C.3   135  LEU135      0.0001
    144  N         25.7920   10.7520   43.0210 N.3   145  ALA145     -0.1231
    145  CA        26.4120   11.5170   41.9520 C.3   145  ALA145      0.1694
    146  C         27.6260   10.8340   41.3490 C.2   145  ALA145      0.2592
    147  O         28.1580    9.8880   41.9120 O.2   145  ALA145     -0.2718
    148  CB        26.7840   12.9010   42.4460 C.3   145  ALA145      0.0304
    149  N         28.0650   11.3370   40.2020 N.am  146  ASP146     -0.1974
    150  CA        29.2770   10.8500   39.5580 C.3   146  ASP146      0.1709
    151  C         29.3270    9.3580   39.2530 C.2   146  ASP146      0.2293
    152  O         30.2180    8.6650   39.7160 O.2   146  ASP146     -0.2864
    153  CB        30.4990   11.2460   40.3830 C.3   146  ASP146      0.1436
    154  CG        31.7950   11.0320   39.6450 C.2   146  ASP146      0.3671
    155  OD1       31.7590   10.5220   38.5160 O.co2 146  ASP146     -0.2456
    156  OD2       32.8560   11.3710   40.1920 O.co2 146  ASP146     -0.2456
    157  N         32.1140   29.6090   52.4870 N.3   278  LYS278     -0.1245
    158  CA        32.5290   29.5590   51.0940 C.3   278  LYS278      0.1561
    159  C         32.6240   30.9450   50.4860 C.2   278  LYS278      0.2260
    160  O         33.5750   31.2620   49.7820 O.2   278  LYS278     -0.2867
    161  CB        31.5490   28.7170   50.2830 C.3   278  LYS278      0.0271
    162  CG        31.9100   28.5980   48.8140 C.3   278  LYS278      0.0035
    163  CD        33.2200   27.8550   48.6260 C.3   278  LYS278      0.0206
    164  CE        33.7090   27.9500   47.1930 C.3   278  LYS278      0.1093
    165  NZ        35.0700   27.3750   47.0410 N.3   278  LYS278     -0.1314
@<TRIPOS>BOND
     1    41    40    2
     2    40    39    1
     3    38    39    1
     4    39    42    1
     5    44    43    1
     6    44    45    1
     7    42    43    1
     8    54    55    1
     9    59    60    1
    10    59    58    1
    11    36    35    2
    12    55    58    1
    13    55    56    1
    14    45    46    1
    15    35    34    1
    16    61    60    1
    17    56    57    2
    18    56    62   am
    19    33    34    1
    20    34    37    1
    21    62    63    1
    22    27    26    1
    23    27    28    1
    24    27    30    1
    25    28    29    2
    26    32    30    1
    27    63    66    1
    28    63    64    1
    29    25    24    2
    30    50    49    2
    31    31    30    1
    32    24    23    1
    33    23    22    1
    34   155   154   ar
    35    66    67    1
    36    49    48    1
    37    22    15   am
    38    52    51    1
    39    64    65    2
    40    64    71   am
    41    21    19   ar
    42   151   150    1
    43   151   152    2
    44    20    19   ar
    45    19    18    1
    46    71    72    1
    47    18    17    1
    48   150   149    1
    49   150   153    1
    50   154   156   ar
    51   154   153    1
    52    12    11    2
    53    75    72    1
    54    75    76    1
    55    15    14    1
    56    15    16    2
    57    67    68    1
    58    48    51    1
    59    48    47    1
    60     1     2    1
    61    51    53    1
    62    69    68   ar
    63   149   146   am
    64    14    17    1
    65    14    13    1
    66    72    73    1
    67     7     6    1
    68    68    70   ar
    69     6     5    1
    70     6     8    1
    71    76    77   ar
    72    76    78   ar
    73    11    13   am
    74    11    10    1
    75    77    79   ar
    76     5     2    1
    77   146   147    2
    78   146   145    1
    79     9    10    1
    80     9     3   am
    81     2     3    1
    82    78    80   ar
    83    73    74    2
    84    73    83   am
    85    79    81   ar
    86   145   148    1
    87   145   144    1
    88     3     4    2
    89    80    81   ar
    90    81    82    1
    91    83    84    1
    92   143   141    1
    93   134   133    2
    94    88    87    1
    95   135   133   am
    96   133   132    1
    97    84    87    1
    98    84    85    1
    99   132   129    1
   100    86    85    2
   101    85    89   am
   102   141   142    1
   103   141   140    1
   104   131   130    2
   105   140   137    1
   106    89    90    1
   107   129   130    1
   108   129   128    1
   109    90    91    1
   110   127   126    2
   111   128   126   am
   112   126   125    1
   113   137   136    1
   114   137   138    1
   115   165   164    1
   116    91    92    2
   117    91    93   am
   118   164   163    1
   119   115   113   ar
   120    99    98    1
   121    99   100    1
   122   138   139    2
   123    98    95   am
   124   125   124    1
   125   106   103    1
   126   106   107    1
   127   102   100   am
   128   102   103    1
   129   100   101    2
   130    93    94    1
   131   114   113   ar
   132   113   112    1
   133   103   104    1
   134   163   162    1
   135    95    94    1
   136    95    96    2
   137   162   161    1
   138    94    97    1
   139   112   109    1
   140   160   159    2
   141   104   105    2
   142   161   158    1
   143   159   158    1
   144   109   108    1
   145   109   110    1
   146   158   157    1
   147   122   121    1
   148   123   121    1
   149   110   111    2
   150   121   120    1
   151   120   117    1
   152   116   117    1
   153   117   118    1
   154   118   119    2
