@<TRIPOS>MOLECULE
tmp/5dh4B00.pdb
 142 136 0 0 0
SMALL
GASTEIGER

@<TRIPOS>ATOM
      1  N         -5.6980    7.6080   14.8530 N.3    77  TYR77      -0.1227
      2  CA        -6.6520    6.5860   14.4350 C.3    77  TYR77       0.1736
      3  C         -8.1020    7.0090   14.3480 C.2    77  TYR77       0.2595
      4  O         -8.7290    6.7490   13.3320 O.2    77  TYR77      -0.2718
      5  CB        -6.5500    5.3620   15.3600 C.3    77  TYR77       0.0548
      6  CG        -7.5250    4.2780   14.9970 C.ar   77  TYR77      -0.0200
      7  CD1       -7.3860    3.5600   13.8100 C.ar   77  TYR77      -0.0009
      8  CD2       -8.6150    3.9950   15.8130 C.ar   77  TYR77      -0.0009
      9  CE1       -8.3010    2.5850   13.4490 C.ar   77  TYR77       0.0417
     10  CE2       -9.5400    3.0200   15.4620 C.ar   77  TYR77       0.0417
     11  CZ        -9.3630    2.3050   14.2870 C.ar   77  TYR77       0.1957
     12  OH       -10.2300    1.3230   13.9310 O.3    77  TYR77      -0.2866
     13  N         -8.6590    7.5780   15.4150 N.am   78  HIS78      -0.1975
     14  CA       -10.0700    7.9790   15.4530 C.3    78  HIS78       0.1656
     15  C        -10.3310    9.3000   14.6800 C.2    78  HIS78       0.2291
     16  O        -10.8170   10.2920   15.2190 O.2    78  HIS78      -0.2864
     17  CB       -10.5330    8.0430   16.8920 C.3    78  HIS78       0.0771
     18  CG       -10.7550    6.6950   17.5010 C.ar   78  HIS78       0.0820
     19  ND1      -10.0180    6.2600   18.5910 N.ar   78  HIS78      -0.2267
     20  CD2      -11.6340    5.7240   17.1570 C.ar   78  HIS78       0.1154
     21  CE1      -10.4750    5.0470   18.8790 C.ar   78  HIS78       0.1986
     22  NE2      -11.4530    4.6860   18.0480 N.ar   78  HIS78      -0.2212
     23  N         -9.2070    7.2430   25.6100 N.3   124  SER124     -0.1217
     24  CA       -10.1860    6.2400   26.0310 C.3   124  SER124      0.1889
     25  C        -11.1090    6.8190   27.1080 C.2   124  SER124      0.2288
     26  O        -10.7810    7.8480   27.7160 O.2   124  SER124     -0.2866
     27  CB        -9.4700    5.0120   26.5890 C.3   124  SER124      0.2089
     28  OG        -8.6970    5.3700   27.7260 O.3   124  SER124     -0.2183
     29  N        -17.0100   -0.4980   23.0960 N.3   188  LEU188     -0.1245
     30  CA       -16.5580   -1.9030   23.1500 C.3   188  LEU188      0.1561
     31  C        -16.9250   -2.6140   24.4520 C.2   188  LEU188      0.2260
     32  O        -17.1730   -3.8210   24.4340 O.2   188  LEU188     -0.2867
     33  CB       -15.0600   -2.0510   22.8370 C.3   188  LEU188      0.0270
     34  CG       -14.6110   -3.3850   22.2000 C.3   188  LEU188      0.0019
     35  CD1      -15.3020   -3.6290   20.8510 C.3   188  LEU188      0.0001
     36  CD2      -13.1030   -3.4160   21.9940 C.3   188  LEU188      0.0001
     37  N        -16.9130   -1.2260   13.1890 N.3   227  ASP227     -0.1225
     38  CA       -15.8970   -0.5110   13.9590 C.3   227  ASP227      0.1805
     39  C        -14.5250   -1.1720   13.9700 C.2   227  ASP227      0.2597
     40  O        -13.5120   -0.4850   14.0390 O.2   227  ASP227     -0.2718
     41  CB       -16.3890   -0.3020   15.3970 C.3   227  ASP227      0.1424
     42  CG       -15.8700    0.9770   16.0210 C.2   227  ASP227      0.3668
     43  OD1      -15.2630    1.7780   15.3000 O.co2 227  ASP227     -0.2456
     44  OD2      -16.0650    1.1630   17.2230 O.co2 227  ASP227     -0.2456
     45  N        -14.4890   -2.5060   13.9000 N.am  228  LEU228     -0.1979
     46  CA       -13.2490   -3.2730   13.9350 C.3   228  LEU228      0.1596
     47  C        -12.8390   -3.7870   12.5810 C.2   228  LEU228      0.2287
     48  O        -11.8990   -4.5850   12.5170 O.2   228  LEU228     -0.2864
     49  CB       -13.4740   -4.5100   14.8430 C.3   228  LEU228      0.0297
     50  CG       -13.9930   -4.3210   16.2820 C.3   228  LEU228      0.0022
     51  CD1      -13.9860   -5.6690   17.0330 C.3   228  LEU228      0.0001
     52  CD2      -13.1500   -3.3120   17.0610 C.3   228  LEU228      0.0001
     53  N        -10.9950   -3.0260   10.2410 N.3   230  SER230     -0.1202
     54  CA        -9.6170   -2.9540    9.7310 C.3   230  SER230      0.2020
     55  C         -9.0040   -4.3670    9.7830 C.2   230  SER230      0.2618
     56  O         -8.1000   -4.6780    9.0060 O.2   230  SER230     -0.2717
     57  CB        -8.7790   -2.0090   10.5780 C.3   230  SER230      0.2103
     58  OG        -8.3660   -2.6550   11.7710 O.3   230  SER230     -0.2182
     59  N         -9.5200   -5.2300   10.6890 N.am  231  VAL231     -0.1979
     60  CA        -9.0480   -6.6120   10.8160 C.3   231  VAL231      0.1595
     61  C         -9.5350   -7.5030    9.6580 C.2   231  VAL231      0.2287
     62  O         -9.1000   -8.6530    9.5450 O.2   231  VAL231     -0.2864
     63  CB        -9.3720   -7.2720   12.1870 C.3   231  VAL231      0.0276
     64  CG1       -8.9020   -6.4120   13.3600 C.3   231  VAL231      0.0022
     65  CG2      -10.8520   -7.6480   12.3080 C.3   231  VAL231      0.0022
     66  N         -3.0530   -1.0670   12.1760 N.3   242  ALA242     -0.1245
     67  CA        -2.6290   -1.4370   13.5330 C.3   242  ALA242      0.1562
     68  C         -1.6080   -0.4360   14.0680 C.2   242  ALA242      0.2260
     69  O         -1.6690   -0.0780   15.2390 O.2   242  ALA242     -0.2867
     70  CB        -2.0580   -2.8370   13.5470 C.3   242  ALA242      0.0290
     71  N         -3.6190    2.6120   15.2300 N.3   245  ILE245     -0.1231
     72  CA        -4.2850    2.2740   16.5050 C.3   245  ILE245      0.1692
     73  C         -3.2750    2.4230   17.6760 C.2   245  ILE245      0.2592
     74  O         -3.5550    3.0540   18.7030 O.2   245  ILE245     -0.2718
     75  CB        -4.8220    0.7920   16.3770 C.3   245  ILE245      0.0266
     76  CG1       -6.1440    0.7630   15.5690 C.3   245  ILE245      0.0019
     77  CG2       -5.0040    0.0920   17.7480 C.3   245  ILE245      0.0020
     78  CD1       -6.6960   -0.6250   15.2000 C.3   245  ILE245      0.0001
     79  N         -2.0930    1.8150   17.4950 N.am  246  TYR246     -0.1976
     80  CA        -1.0600    1.8500   18.5250 C.3   246  TYR246      0.1639
     81  C         -0.4380    3.2300   18.6610 C.2   246  TYR246      0.2290
     82  O         -0.1540    3.6130   19.7950 O.2   246  TYR246     -0.2864
     83  CB        -0.0430    0.7350   18.3710 C.3   246  TYR246      0.0560
     84  CG        -0.6280   -0.5660   18.8650 C.ar  246  TYR246     -0.0198
     85  CD1       -1.2520   -1.4510   17.9830 C.ar  246  TYR246     -0.0009
     86  CD2       -0.5950   -0.9020   20.2250 C.ar  246  TYR246     -0.0009
     87  CE1       -1.8110   -2.6490   18.4300 C.ar  246  TYR246      0.0417
     88  CE2       -1.1500   -2.1020   20.6890 C.ar  246  TYR246      0.0417
     89  CZ        -1.7630   -2.9670   19.7830 C.ar  246  TYR246      0.1957
     90  OH        -2.3010   -4.1600   20.1840 O.3   246  TYR246     -0.2866
     91  N         -2.1060    5.8690   18.4670 N.3   248  GLU248     -0.1231
     92  CA        -3.0820    6.5180   19.3430 C.3   248  GLU248      0.1699
     93  C         -2.9950    6.0240   20.8050 C.2   248  GLU248      0.2592
     94  O         -3.0400    6.8540   21.7130 O.2   248  GLU248     -0.2718
     95  CB        -4.4950    6.3950   18.8070 C.3   248  GLU248      0.0402
     96  CG        -5.4280    7.3950   19.4530 C.3   248  GLU248      0.1161
     97  CD        -6.7180    7.6300   18.6960 C.2   248  GLU248      0.3649
     98  OE1       -6.6670    7.8870   17.4710 O.co2 248  GLU248     -0.2457
     99  OE2       -7.7880    7.5750   19.3420 O.co2 248  GLU248     -0.2457
    100  N         -2.8480    4.6970   21.0240 N.am  249  PHE249     -0.1976
    101  CA        -2.7070    4.1440   22.3730 C.3   249  PHE249      0.1639
    102  C         -1.4300    4.7000   23.0540 C.2   249  PHE249      0.2290
    103  O         -1.4780    5.0880   24.2220 O.2   249  PHE249     -0.2864
    104  CB        -2.6340    2.5980   22.3450 C.3   249  PHE249      0.0560
    105  CG        -3.9020    1.8220   22.0540 C.ar  249  PHE249     -0.0200
    106  CD1       -5.1350    2.2750   22.5050 C.ar  249  PHE249     -0.0042
    107  CD2       -3.8510    0.6030   21.3890 C.ar  249  PHE249     -0.0042
    108  CE1       -6.2990    1.5330   22.2740 C.ar  249  PHE249     -0.0003
    109  CE2       -5.0150   -0.1390   21.1590 C.ar  249  PHE249     -0.0003
    110  CZ        -6.2350    0.3420   21.5820 C.ar  249  PHE249     -0.0000
    111  N         -0.2950   -2.1700   26.6070 N.3   266  MET266     -0.1245
    112  CA        -0.9200   -1.7860   25.3390 C.3   266  MET266      0.1570
    113  C         -0.7460   -0.2890   25.0000 C.2   266  MET266      0.2261
    114  O         -0.6340    0.0690   23.8260 O.2   266  MET266     -0.2867
    115  CB        -2.4110   -2.1770   25.3690 C.3   266  MET266      0.0387
    116  CG        -3.1200   -2.0110   24.0410 C.3   266  MET266      0.0595
    117  SD        -4.9140   -2.2200   24.1820 S.3   266  MET266     -0.1393
    118  CE        -5.3760   -0.6940   25.0360 C.3   266  MET266      0.0692
    119  N         -0.5220   -9.1520   21.5960 N.3   278  GLY278     -0.1210
    120  CA        -1.7100   -8.3870   21.9800 C.3   278  GLY278      0.1956
    121  C         -2.7740   -8.4950   20.9090 C.2   278  GLY278      0.2611
    122  O         -3.9490   -8.7180   21.2110 O.2   278  GLY278     -0.2717
    123  N         -2.3560   -8.3880   19.6470 N.am  279  GLN279     -0.1979
    124  CA        -3.2290   -8.5170   18.4670 C.3   279  GLN279      0.1601
    125  C         -3.8600   -9.9140   18.4080 C.2   279  GLN279      0.2287
    126  O         -5.0640  -10.0330   18.2220 O.2   279  GLN279     -0.2864
    127  CB        -2.4340   -8.2180   17.1690 C.3   279  GLN279      0.0394
    128  CG        -2.2410   -6.7070   16.9330 C.3   279  GLN279      0.0908
    129  CD        -3.5680   -6.0050   16.8300 C.2   279  GLN279      0.2608
    130  OE1       -4.3020   -6.1300   15.8550 O.2   279  GLN279     -0.2717
    131  NE2       -3.9330   -5.2740   17.8620 N.am  279  GLN279     -0.0878
    132  N         -6.4880  -10.0520   20.9410 N.3   282  PHE282     -0.1241
    133  CA        -7.6220   -9.2370   20.5150 C.3   282  PHE282      0.1605
    134  C         -8.4820   -9.9830   19.4950 C.2   282  PHE282      0.2264
    135  O         -9.7200   -9.9400   19.5850 O.2   282  PHE282     -0.2867
    136  CB        -7.1820   -7.8580   19.9690 C.3   282  PHE282      0.0534
    137  CG        -8.3450   -6.9610   19.6010 C.ar  282  PHE282     -0.0203
    138  CD1       -9.0470   -6.2680   20.5840 C.ar  282  PHE282     -0.0042
    139  CD2       -8.7860   -6.8700   18.2820 C.ar  282  PHE282     -0.0042
    140  CE1      -10.1530   -5.4810   20.2510 C.ar  282  PHE282     -0.0003
    141  CE2       -9.8830   -6.0750   17.9480 C.ar  282  PHE282     -0.0003
    142  CZ       -10.5600   -5.3880   18.9350 C.ar  282  PHE282     -0.0000
@<TRIPOS>BOND
     1    56    55    2
     2    62    61    2
     3    61    60    1
     4    54    55    1
     5    54    53    1
     6    54    57    1
     7    55    59   am
     8    57    58    1
     9    59    60    1
    10    60    63    1
    11    66    67    1
    12    63    65    1
    13    63    64    1
    14    48    47    2
    15    47    46    1
    16    37    38    1
    17     4     3    2
    18     9     7   ar
    19     9    11   ar
    20    67    70    1
    21    67    68    1
    22     7     6   ar
    23    45    46    1
    24    45    39   am
    25    12    11    1
    26    46    49    1
    27    38    39    1
    28    38    41    1
    29    39    40    2
    30    68    69    2
    31    11    10   ar
    32     3     2    1
    33     3    13   am
    34     2     1    1
    35     2     5    1
    36    15    16    2
    37    15    14    1
    38    49    50    1
    39     6     5    1
    40     6     8   ar
    41    78    76    1
    42    71    72    1
    43    43    42   ar
    44    41    42    1
    45    13    14    1
    46    14    17    1
    47    10     8   ar
    48    76    75    1
    49   130   129    2
    50    42    44   ar
    51    50    51    1
    52    50    52    1
    53    75    72    1
    54    75    77    1
    55    72    73    1
    56   129   128    1
    57   129   131   am
    58    17    18    1
    59   128   127    1
    60    20    18   ar
    61    20    22   ar
    62   127   124    1
    63    98    97   ar
    64    79    73   am
    65    79    80    1
    66    18    19   ar
    67    73    74    2
    68   141   139   ar
    69   141   142   ar
    70    85    87   ar
    71    85    84   ar
    72    22    21   ar
    73   126   125    2
    74   139   137   ar
    75    83    80    1
    76    83    84    1
    77   125   124    1
    78    87    89   ar
    79    91    92    1
    80   124   123    1
    81    80    81    1
    82    19    21   ar
    83    81    82    2
    84    97    99   ar
    85    97    96    1
    86    95    92    1
    87    95    96    1
    88    84    86   ar
    89   142   140   ar
    90    92    93    1
    91   134   135    2
    92   134   133    1
    93   137   136    1
    94   137   138   ar
    95   123   121   am
    96    89    90    1
    97    89    88   ar
    98   136   133    1
    99    86    88   ar
   100   140   138   ar
   101   133   132    1
   102    93   100   am
   103    93    94    2
   104    35    34    1
   105   121   122    2
   106   121   120    1
   107   100   101    1
   108   109   107   ar
   109   109   110   ar
   110   107   105   ar
   111   110   108   ar
   112   119   120    1
   113    36    34    1
   114   105   104    1
   115   105   106   ar
   116    34    33    1
   117   108   106   ar
   118   104   101    1
   119   101   102    1
   120    33    30    1
   121   102   103    2
   122    29    30    1
   123    30    31    1
   124   114   113    2
   125   116   117    1
   126   116   115    1
   127   117   118    1
   128    32    31    2
   129   113   112    1
   130   112   115    1
   131   112   111    1
   132    23    24    1
   133    24    27    1
   134    24    25    1
   135    27    28    1
   136    25    26    2
