@<TRIPOS>MOLECULE
tmp/5dh5A00.pdb
 168 162 0 0 0
SMALL
GASTEIGER

@<TRIPOS>ATOM
      1  N         14.4260   15.5220   48.9130 N.3    67  TYR67      -0.1227
      2  CA        13.1870   14.9570   49.4670 C.3    67  TYR67       0.1736
      3  C         13.2920   13.5570   50.0900 C.2    67  TYR67       0.2595
      4  O         12.7980   13.3620   51.2150 O.2    67  TYR67      -0.2718
      5  CB        12.0930   14.9650   48.3700 C.3    67  TYR67       0.0548
      6  CG        10.7890   14.3610   48.8290 C.ar   67  TYR67      -0.0200
      7  CD1       10.0170   14.9800   49.8100 C.ar   67  TYR67      -0.0009
      8  CD2       10.3520   13.1430   48.3260 C.ar   67  TYR67      -0.0009
      9  CE1        8.8090   14.4260   50.2400 C.ar   67  TYR67       0.0417
     10  CE2        9.1500   12.5750   48.7530 C.ar   67  TYR67       0.0417
     11  CZ         8.3810   13.2260   49.6990 C.ar   67  TYR67       0.1957
     12  OH         7.1910   12.6800   50.0970 O.3    67  TYR67      -0.2866
     13  N         13.8770   12.6030   49.3770 N.am   68  HIS68      -0.1975
     14  CA        13.9720   11.2170   49.8660 C.3    68  HIS68       0.1656
     15  C         15.1320   11.0590   50.8480 C.2    68  HIS68       0.2291
     16  O         16.0760   10.3100   50.6020 O.2    68  HIS68      -0.2864
     17  CB        14.0750   10.2430   48.6900 C.3    68  HIS68       0.0771
     18  CG        12.7920   10.0940   47.9390 C.ar   68  HIS68       0.0820
     19  ND1       12.6720   10.5260   46.6480 N.ar   68  HIS68      -0.2267
     20  CD2       11.6130    9.5680   48.3320 C.ar   68  HIS68       0.1154
     21  CE1       11.4410   10.2290   46.2780 C.ar   68  HIS68       0.1986
     22  NE2       10.7670    9.6670   47.2640 N.ar   68  HIS68      -0.2212
     23  N          5.3100    3.4660   43.2060 N.3   178  LEU178     -0.1245
     24  CA         4.0630    4.0720   42.7620 C.3   178  LEU178      0.1561
     25  C          3.4900    3.4540   41.4960 C.2   178  LEU178      0.2260
     26  O          2.2850    3.4650   41.3300 O.2   178  LEU178     -0.2867
     27  CB         4.2450    5.5910   42.6190 C.3   178  LEU178      0.0270
     28  CG         3.0480    6.4610   42.8700 C.3   178  LEU178      0.0019
     29  CD1        2.4210    6.2010   44.2630 C.3   178  LEU178      0.0001
     30  CD2        3.4610    7.9350   42.7360 C.3   178  LEU178      0.0001
     31  N          3.5410    6.8320   52.3830 N.3   217  ASP217     -0.1225
     32  CA         4.5030    7.4490   51.4750 C.3   217  ASP217      0.1805
     33  C          4.0700    8.8470   50.9900 C.2   217  ASP217      0.2597
     34  O          4.9010    9.7520   50.8670 O.2   217  ASP217     -0.2718
     35  CB         4.7780    6.5400   50.2740 C.3   217  ASP217      0.1424
     36  CG         6.1900    6.7020   49.7110 C.2   217  ASP217      0.3668
     37  OD1        7.0390    7.3420   50.3910 O.co2 217  ASP217     -0.2456
     38  OD2        6.4460    6.1920   48.6070 O.co2 217  ASP217     -0.2456
     39  N          2.7650    9.0300   50.7270 N.am  218  LEU218     -0.1979
     40  CA         2.2690   10.3240   50.2360 C.3   218  LEU218      0.1596
     41  C          1.6230   11.1930   51.3080 C.2   218  LEU218      0.2287
     42  O          1.0070   12.1910   50.9610 O.2   218  LEU218     -0.2864
     43  CB         1.2130   10.0930   49.1140 C.3   218  LEU218      0.0297
     44  CG         1.5210    9.0900   47.9880 C.3   218  LEU218      0.0022
     45  CD1        0.2660    8.9210   47.0720 C.3   218  LEU218      0.0001
     46  CD2        2.7560    9.4910   47.1760 C.3   218  LEU218      0.0001
     47  N          2.2770   13.6320   52.9960 N.3   220  SER220     -0.1202
     48  CA         2.4370   15.1000   53.0660 C.3   220  SER220      0.2020
     49  C          1.1570   15.8380   52.5900 C.2   220  SER220      0.2618
     50  O          0.9000   16.9820   53.0050 O.2   220  SER220     -0.2717
     51  CB         3.6430   15.5460   52.2640 C.3   220  SER220      0.2103
     52  OG         3.3710   15.5960   50.8770 O.3   220  SER220     -0.2182
     53  N          0.3230   15.1490   51.7460 N.am  221  VAL221     -0.1979
     54  CA        -0.9420   15.7110   51.2350 C.3   221  VAL221      0.1595
     55  C         -2.0150   15.7180   52.3450 C.2   221  VAL221      0.2287
     56  O         -3.1100   16.2460   52.1180 O.2   221  VAL221     -0.2864
     57  CB        -1.4550   14.9690   49.9430 C.3   221  VAL221      0.0276
     58  CG1       -0.4090   14.9440   48.8390 C.3   221  VAL221      0.0022
     59  CG2       -1.9260   13.5530   50.2520 C.3   221  VAL221      0.0022
     60  N          5.8960   20.1250   49.2610 N.3   232  ALA232     -0.1245
     61  CA         5.7960   20.1410   47.7840 C.3   232  ALA232      0.1562
     62  C          7.0490   20.8380   47.2230 C.2   232  ALA232      0.2260
     63  O          7.5770   20.3940   46.2160 O.2   232  ALA232     -0.2867
     64  CB         4.5050   20.8710   47.3230 C.3   232  ALA232      0.0290
     65  N          9.7150   18.1910   47.2030 N.3   235  ILE235     -0.1231
     66  CA         9.4240   17.1840   46.1610 C.3   235  ILE235      0.1692
     67  C          9.8630   17.7180   44.7950 C.2   235  ILE235      0.2592
     68  O         10.5460   17.0140   44.0560 O.2   235  ILE235     -0.2718
     69  CB         7.8920   16.8220   46.1830 C.3   235  ILE235      0.0266
     70  CG1        7.5620   15.9410   47.3980 C.3   235  ILE235      0.0019
     71  CG2        7.4620   16.1330   44.8770 C.3   235  ILE235      0.0020
     72  CD1        6.1320   15.9090   47.8070 C.3   235  ILE235      0.0001
     73  N          9.4650   18.9510   44.4540 N.am  236  TYR236     -0.1976
     74  CA         9.8330   19.5010   43.1520 C.3   236  TYR236      0.1639
     75  C         11.3150   19.8390   43.0650 C.2   236  TYR236      0.2290
     76  O         11.8720   19.7080   41.9920 O.2   236  TYR236     -0.2864
     77  CB         8.9240   20.6770   42.7470 C.3   236  TYR236      0.0560
     78  CG         7.5490   20.1940   42.3150 C.ar  236  TYR236     -0.0198
     79  CD1        6.4860   20.1720   43.2040 C.ar  236  TYR236     -0.0009
     80  CD2        7.3310   19.7100   41.0320 C.ar  236  TYR236     -0.0009
     81  CE1        5.2160   19.7310   42.8070 C.ar  236  TYR236      0.0417
     82  CE2        6.0770   19.2330   40.6350 C.ar  236  TYR236      0.0417
     83  CZ         5.0160   19.2770   41.5150 C.ar  236  TYR236      0.1957
     84  OH         3.7920   18.8130   41.1000 O.3   236  TYR236     -0.2866
     85  N         13.6810   17.9900   44.1350 N.3   238  GLU238     -0.1231
     86  CA        14.2340   16.7080   43.7320 C.3   238  GLU238      0.1699
     87  C         13.8790   16.3790   42.2830 C.2   238  GLU238      0.2592
     88  O         14.7390   15.9490   41.5190 O.2   238  GLU238     -0.2718
     89  CB        13.7910   15.5840   44.6990 C.3   238  GLU238      0.0402
     90  CG        14.5880   14.3170   44.4560 C.3   238  GLU238      0.1161
     91  CD        14.4780   13.2560   45.5340 C.2   238  GLU238      0.3649
     92  OE1       14.7200   13.5740   46.7200 O.co2 238  GLU238     -0.2457
     93  OE2       14.1750   12.0950   45.1810 O.co2 238  GLU238     -0.2457
     94  N         12.6190   16.5880   41.8730 N.am  239  PHE239     -0.1976
     95  CA        12.2570   16.3390   40.4690 C.3   239  PHE239      0.1639
     96  C         13.0800   17.2510   39.5370 C.2   239  PHE239      0.2290
     97  O         13.6140   16.7780   38.5310 O.2   239  PHE239     -0.2864
     98  CB        10.7600   16.6260   40.2470 C.3   239  PHE239      0.0560
     99  CG         9.7720   15.5960   40.7540 C.ar  239  PHE239     -0.0200
    100  CD1       10.0760   14.2400   40.7260 C.ar  239  PHE239     -0.0042
    101  CD2        8.4990   15.9800   41.1650 C.ar  239  PHE239     -0.0042
    102  CE1        9.1360   13.2850   41.1620 C.ar  239  PHE239     -0.0003
    103  CE2        7.5680   15.0320   41.5880 C.ar  239  PHE239     -0.0003
    104  CZ         7.8950   13.6940   41.5900 C.ar  239  PHE239     -0.0000
    105  N          7.4310   17.8990   31.8190 N.3   255  PRO255     -0.2102
    106  CA         7.2200   19.1320   32.6180 C.3   255  PRO255      0.1504
    107  C          7.3650   19.0150   34.1420 C.2   255  PRO255      0.2575
    108  O          7.8360   19.9620   34.7670 O.2   255  PRO255     -0.2718
    109  CB         5.8050   19.5480   32.2170 C.3   255  PRO255      0.0282
    110  CG         5.7130   19.0830   30.7540 C.3   255  PRO255      0.0208
    111  CD         6.3420   17.7200   30.8180 C.3   255  PRO255      0.0893
    112  N          7.0070   17.8660   34.7500 N.am  256  MET256     -0.1980
    113  CA         7.1320   17.7190   36.2050 C.3   256  MET256      0.1605
    114  C          8.5850   17.7770   36.7020 C.2   256  MET256      0.2287
    115  O          8.8210   18.1280   37.8450 O.2   256  MET256     -0.2864
    116  CB         6.3970   16.4830   36.7480 C.3   256  MET256      0.0413
    117  CG         6.7830   15.1720   36.2180 C.3   256  MET256      0.0598
    118  SD         6.1290   13.8500   37.2540 S.3   256  MET256     -0.1393
    119  CE         7.6090   13.2220   37.8750 C.3   256  MET256      0.0692
    120  N          9.2250   25.0410   33.9680 N.3   261  LYS261     -0.1245
    121  CA         7.7800   24.8420   33.8650 C.3   261  LYS261      0.1561
    122  C          7.0680   24.8990   35.2220 C.2   261  LYS261      0.2260
    123  O          6.0040   24.2950   35.3670 O.2   261  LYS261     -0.2867
    124  CB         7.4780   23.5520   33.0920 C.3   261  LYS261      0.0271
    125  CG         8.1350   23.5740   31.7170 C.3   261  LYS261      0.0035
    126  CD         7.5490   22.6210   30.7400 C.3   261  LYS261      0.0206
    127  CE         8.1980   22.8190   29.3880 C.3   261  LYS261      0.1093
    128  NZ         7.6190   21.8990   28.3830 N.3   261  LYS261     -0.1314
    129  N          3.1520   25.1430   35.9310 N.3   264  GLU264     -0.1231
    130  CA         2.3370   23.9520   35.7340 C.3   264  GLU264      0.1699
    131  C          2.1970   23.1270   37.0220 C.2   264  GLU264      0.2592
    132  O          1.4140   22.1690   37.0540 O.2   264  GLU264     -0.2718
    133  CB         2.8710   23.1310   34.5420 C.3   264  GLU264      0.0402
    134  CG         2.7010   23.8730   33.2110 C.3   264  GLU264      0.1161
    135  CD         3.5220   23.4170   32.0220 C.2   264  GLU264      0.3649
    136  OE1        3.4310   22.2220   31.6670 O.co2 264  GLU264     -0.2457
    137  OE2        4.2430   24.2560   31.4320 O.co2 264  GLU264     -0.2457
    138  N          2.9260   23.5130   38.0950 N.am  265  VAL265     -0.1980
    139  CA         2.8860   22.8120   39.3920 C.3   265  VAL265      0.1595
    140  C          1.4310   22.7720   39.9630 C.2   265  VAL265      0.2287
    141  O          0.9800   21.6650   40.2160 O.2   265  VAL265     -0.2864
    142  CB         3.9380   23.3710   40.4040 C.3   265  VAL265      0.0276
    143  CG1        3.6370   22.9230   41.8320 C.3   265  VAL265      0.0022
    144  CG2        5.3550   22.9840   39.9870 C.3   265  VAL265      0.0022
    145  N         -0.5310   20.3640   37.9590 N.3   268  GLY268     -0.1210
    146  CA         0.1620   19.0960   38.1910 C.3   268  GLY268      0.1956
    147  C         -0.2650   18.4780   39.5080 C.2   268  GLY268      0.2611
    148  O         -0.5570   17.2860   39.5490 O.2   268  GLY268     -0.2717
    149  N         -0.3290   19.2800   40.5860 N.am  269  GLN269     -0.1979
    150  CA        -0.7910   18.8370   41.9040 C.3   269  GLN269      0.1601
    151  C         -2.2800   18.4570   41.8630 C.2   269  GLN269      0.2287
    152  O         -2.6360   17.4020   42.3830 O.2   269  GLN269     -0.2864
    153  CB        -0.4980   19.8850   42.9990 C.3   269  GLN269      0.0394
    154  CG         0.9870   19.8770   43.4480 C.3   269  GLN269      0.0908
    155  CD         1.3920   18.5640   44.0710 C.2   269  GLN269      0.2608
    156  OE1        0.9540   18.2080   45.1550 O.2   269  GLN269     -0.2717
    157  NE2        2.2230   17.8200   43.3990 N.am  269  GLN269     -0.0878
    158  N         -2.5220   15.0900   40.2740 N.3   272  PHE272     -0.1241
    159  CA        -1.9850   14.0940   41.1930 C.3   272  PHE272      0.1605
    160  C         -2.9940   13.7820   42.2990 C.2   272  PHE272      0.2264
    161  O         -3.1810   12.6160   42.6380 O.2   272  PHE272     -0.2867
    162  CB        -0.6260   14.5880   41.7880 C.3   272  PHE272      0.0534
    163  CG         0.0450   13.5740   42.6710 C.ar  272  PHE272     -0.0203
    164  CD1        0.7210   12.4930   42.1210 C.ar  272  PHE272     -0.0042
    165  CD2       -0.0390   13.6740   44.0520 C.ar  272  PHE272     -0.0042
    166  CE1        1.3240   11.5370   42.9380 C.ar  272  PHE272     -0.0003
    167  CE2        0.5550   12.7110   44.8690 C.ar  272  PHE272     -0.0003
    168  CZ         1.2330   11.6480   44.3040 C.ar  272  PHE272     -0.0000
@<TRIPOS>BOND
     1   128   127    1
     2   127   126    1
     3   126   125    1
     4   110   111    1
     5   110   109    1
     6   111   105    1
     7   137   135   ar
     8   136   135   ar
     9   125   124    1
    10   105   106    1
    11   135   134    1
    12   109   106    1
    13   106   107    1
    14   124   121    1
    15   134   133    1
    16   121   120    1
    17   121   122    1
    18   107   112   am
    19   107   108    2
    20   133   130    1
    21   112   113    1
    22   122   123    2
    23   130   129    1
    24   130   131    1
    25   113   114    1
    26   113   116    1
    27   117   116    1
    28   117   118    1
    29   114   115    2
    30   131   132    2
    31   131   138   am
    32   118   119    1
    33   145   146    1
    34   138   139    1
    35   146   147    1
    36    97    96    2
    37   139   140    1
    38   139   142    1
    39   147   148    2
    40   147   149   am
    41    96    95    1
    42   140   141    2
    43   144   142    1
    44    98    95    1
    45    98    99    1
    46   158   159    1
    47   142   143    1
    48    95    94    1
    49   149   150    1
    50    82    80   ar
    51    82    83   ar
    52   100    99   ar
    53   100   102   ar
    54    99   101   ar
    55    80    78   ar
    56    84    83    1
    57   102   104   ar
    58   101   103   ar
    59   159   162    1
    60   159   160    1
    61    26    25    2
    62    25    24    1
    63    83    81   ar
    64    88    87    2
    65   103   104   ar
    66   162   163    1
    67   151   150    1
    68   151   152    2
    69    94    87   am
    70   150   153    1
    71    76    75    2
    72   164   163   ar
    73   164   166   ar
    74    87    86    1
    75   160   161    2
    76    78    77    1
    77    78    79   ar
    78    27    24    1
    79    27    28    1
    80   163   165   ar
    81    30    28    1
    82    77    74    1
    83    24    23    1
    84    81    79   ar
    85    28    29    1
    86   166   168   ar
    87   153   154    1
    88    75    74    1
    89    74    73    1
    90   157   155   am
    91   154   155    1
    92    86    85    1
    93    86    89    1
    94   165   167   ar
    95    68    67    2
    96   155   156    2
    97   168   167   ar
    98    73    67   am
    99    90    89    1
   100    90    91    1
   101    67    66    1
   102    71    69    1
   103    93    91   ar
   104    91    92   ar
   105    66    69    1
   106    66    65    1
   107    69    70    1
   108    63    62    2
   109    21    19   ar
   110    21    22   ar
   111    19    18   ar
   112    45    44    1
   113    46    44    1
   114    62    61    1
   115    22    20   ar
   116    64    61    1
   117    70    72    1
   118    61    60    1
   119    18    20   ar
   120    18    17    1
   121    44    43    1
   122     8    10   ar
   123     8     6   ar
   124     5     6    1
   125     5     2    1
   126    38    36   ar
   127    17    14    1
   128    10    11   ar
   129     6     7   ar
   130    58    57    1
   131     1     2    1
   132    43    40    1
   133    13    14    1
   134    13     3   am
   135     2     3    1
   136    11    12    1
   137    11     9   ar
   138    36    35    1
   139    36    37   ar
   140     7     9   ar
   141    14    15    1
   142    57    59    1
   143    57    54    1
   144     3     4    2
   145    40    39    1
   146    40    41    1
   147    35    32    1
   148    16    15    2
   149    39    33   am
   150    34    33    2
   151    52    51    1
   152    42    41    2
   153    33    32    1
   154    54    53    1
   155    54    55    1
   156    32    31    1
   157    53    49   am
   158    56    55    2
   159    51    48    1
   160    49    50    2
   161    49    48    1
   162    47    48    1
