@<TRIPOS>MOLECULE
tmp/5dhgB03.pdb
 77 71 0 0 0
SMALL
GASTEIGER

@<TRIPOS>ATOM
      1  N        -20.7100   36.7360  -23.4800 N.3   121  ALA121     -0.1231
      2  CA       -21.1280   35.3580  -23.7150 C.3   121  ALA121      0.1694
      3  C        -20.4260   34.7810  -24.9390 C.2   121  ALA121      0.2591
      4  O        -19.8290   33.6990  -24.8760 O.2   121  ALA121     -0.2718
      5  CB       -22.6460   35.2900  -23.8780 C.3   121  ALA121      0.0304
      6  N        -20.4790   35.5000  -26.0650 N.am  122  VAL122     -0.1980
      7  CA       -19.7990   35.0520  -27.2780 C.3   122  VAL122      0.1595
      8  C        -18.3130   34.8450  -27.0100 C.2   122  VAL122      0.2287
      9  O        -17.6960   33.9090  -27.5320 O.2   122  VAL122     -0.2864
     10  CB       -20.0410   36.0610  -28.4170 C.3   122  VAL122      0.0276
     11  CG1      -19.1700   35.7320  -29.6220 C.3   122  VAL122      0.0022
     12  CG2      -21.5180   36.0940  -28.7970 C.3   122  VAL122      0.0022
     13  N        -17.7550   31.4830  -24.5300 N.3   125  GLY125     -0.1210
     14  CA       -18.1000   30.2730  -25.2610 C.3   125  GLY125      0.1956
     15  C        -17.2770   30.0870  -26.5200 C.2   125  GLY125      0.2612
     16  O        -16.8950   28.9650  -26.8640 O.2   125  GLY125     -0.2717
     17  N        -16.9970   31.1840  -27.2270 N.am  126  GLY126     -0.1956
     18  CA       -16.1930   31.0850  -28.4320 C.3   126  GLY126      0.1869
     19  C        -14.7780   30.6260  -28.1440 C.2   126  GLY126      0.2309
     20  O        -14.2670   29.7040  -28.7860 O.2   126  GLY126     -0.2863
     21  N        -13.6680   29.0330  -25.5210 N.3   128  LEU128     -0.1231
     22  CA       -13.7750   27.6410  -25.1000 C.3   128  LEU128      0.1693
     23  C        -13.8270   26.7010  -26.3000 C.2   128  LEU128      0.2592
     24  O        -12.9710   25.8220  -26.4580 O.2   128  LEU128     -0.2718
     25  CB       -15.0160   27.4640  -24.2220 C.3   128  LEU128      0.0284
     26  CG       -15.2880   26.0460  -23.7290 C.3   128  LEU128      0.0019
     27  CD1      -14.1200   25.5290  -22.9090 C.3   128  LEU128      0.0001
     28  CD2      -16.5800   26.0030  -22.9300 C.3   128  LEU128      0.0001
     29  N        -14.8210   26.8860  -27.1670 N.am  129  GLY129     -0.1957
     30  CA       -14.9970   26.0310  -28.3270 C.3   129  GLY129      0.1869
     31  C        -13.8140   25.9890  -29.2740 C.2   129  GLY129      0.2309
     32  O        -13.3180   24.9060  -29.5980 O.2   129  GLY129     -0.2863
     33  N        -10.7070   24.4870  -27.8100 N.3   132  LEU132     -0.1245
     34  CA       -10.9150   23.0440  -27.7680 C.3   132  LEU132      0.1561
     35  C        -10.6390   22.4220  -29.1300 C.2   132  LEU132      0.2260
     36  O         -9.9300   21.4140  -29.2350 O.2   132  LEU132     -0.2867
     37  CB       -12.3420   22.7380  -27.3080 C.3   132  LEU132      0.0270
     38  CG       -12.5000   21.6800  -26.2180 C.3   132  LEU132      0.0019
     39  CD1      -11.6090   22.0320  -25.0390 C.3   132  LEU132      0.0001
     40  CD2      -13.9530   21.5800  -25.7820 C.3   132  LEU132      0.0001
     41  N        -18.1160   32.2130  -32.4970 N.3   359  CYS359     -0.1235
     42  CA       -18.4380   31.2280  -31.4700 C.3   359  CYS359      0.1677
     43  C        -19.1730   30.0290  -32.0570 C.2   359  CYS359      0.2270
     44  O        -19.1160   28.9230  -31.5040 O.2   359  CYS359     -0.2867
     45  CB       -19.2770   31.8720  -30.3680 C.3   359  CYS359      0.0956
     46  SG       -21.0650   31.7190  -30.5540 S.3   359  CYS359     -0.0801
     47  N        -17.4900   25.8720  -33.6620 N.3   362  PRO362     -0.2102
     48  CA       -17.3320   24.6250  -32.8900 C.3   362  PRO362      0.1504
     49  C        -18.6040   23.7960  -32.7900 C.2   362  PRO362      0.2575
     50  O        -18.5530   22.5730  -32.9680 O.2   362  PRO362     -0.2718
     51  CB       -16.8850   25.1380  -31.5150 C.3   362  PRO362      0.0282
     52  CG       -16.1120   26.3570  -31.8370 C.3   362  PRO362      0.0208
     53  CD       -16.8950   27.0170  -32.9430 C.3   362  PRO362      0.0893
     54  N        -19.7470   24.4310  -32.5110 N.am  363  ILE363     -0.1980
     55  CA       -21.0200   23.7150  -32.4220 C.3   363  ILE363      0.1595
     56  C        -21.3410   23.0150  -33.7400 C.2   363  ILE363      0.2287
     57  O        -21.8100   21.8670  -33.7560 O.2   363  ILE363     -0.2864
     58  CB       -22.1340   24.6940  -32.0100 C.3   363  ILE363      0.0276
     59  CG1      -21.7630   25.3820  -30.6950 C.3   363  ILE363      0.0022
     60  CG2      -23.4600   23.9780  -31.8540 C.3   363  ILE363      0.0022
     61  CD1      -22.7380   26.4490  -30.2640 C.3   363  ILE363      0.0001
     62  N        -19.2950   20.1150  -33.9400 N.3   366  ALA366     -0.1245
     63  CA       -19.7630   19.1530  -32.9490 C.3   366  ALA366      0.1562
     64  C        -20.9660   18.3670  -33.4470 C.2   366  ALA366      0.2260
     65  O        -21.1310   17.1960  -33.0870 O.2   366  ALA366     -0.2867
     66  CB       -20.1090   19.8670  -31.6440 C.3   366  ALA366      0.0290
     67  N        -15.3160   15.7650  -28.5350 N.3   376  PHE376     -0.1241
     68  CA       -16.0330   16.6550  -27.6320 C.3   376  PHE376      0.1605
     69  C        -16.7660   15.8660  -26.5570 C.2   376  PHE376      0.2264
     70  O        -16.9630   16.3690  -25.4460 O.2   376  PHE376     -0.2867
     71  CB       -17.0040   17.5330  -28.4210 C.3   376  PHE376      0.0534
     72  CG       -16.3300   18.5310  -29.3330 C.ar  376  PHE376     -0.0203
     73  CD1      -14.9460   18.5800  -29.4490 C.ar  376  PHE376     -0.0042
     74  CD2      -17.0860   19.4100  -30.0840 C.ar  376  PHE376     -0.0042
     75  CE1      -14.3380   19.4910  -30.2900 C.ar  376  PHE376     -0.0003
     76  CE2      -16.4840   20.3230  -30.9280 C.ar  376  PHE376     -0.0003
     77  CZ       -15.1080   20.3630  -31.0300 C.ar  376  PHE376     -0.0000
@<TRIPOS>BOND
     1    62    63    1
     2    57    56    2
     3    56    55    1
     4    47    53    1
     5    47    48    1
     6    64    65    2
     7    64    63    1
     8    50    49    2
     9    63    66    1
    10    53    52    1
    11    48    49    1
    12    48    51    1
    13    49    54   am
    14    54    55    1
    15    41    42    1
    16    55    58    1
    17    43    44    2
    18    43    42    1
    19    58    60    1
    20    58    59    1
    21    52    51    1
    22    42    45    1
    23    77    76   ar
    24    77    75   ar
    25    76    74   ar
    26    59    61    1
    27    46    45    1
    28    75    73   ar
    29    74    72   ar
    30    11    10    1
    31    32    31    2
    32    73    72   ar
    33    72    71    1
    34    31    30    1
    35    36    35    2
    36    35    34    1
    37    12    10    1
    38    20    19    2
    39    67    68    1
    40    18    19    1
    41    18    17    1
    42    71    68    1
    43    10     7    1
    44    30    29    1
    45    33    34    1
    46    34    37    1
    47    68    69    1
    48     9     8    2
    49    37    38    1
    50     7     8    1
    51     7     6    1
    52    17    15   am
    53    29    23   am
    54    16    15    2
    55    69    70    2
    56    15    14    1
    57    24    23    2
    58    23    22    1
    59    38    40    1
    60    38    39    1
    61     6     3   am
    62    21    22    1
    63    14    13    1
    64    22    25    1
    65     3     4    2
    66     3     2    1
    67    25    26    1
    68     5     2    1
    69    26    28    1
    70    26    27    1
    71     2     1    1
