@<TRIPOS>MOLECULE
tmp/5dhgA00.pdb
 195 187 0 0 0
SMALL
GASTEIGER

@<TRIPOS>ATOM
      1  N         -8.3470   31.3140  -13.1550 N.3    61  GLN61      -0.1245
      2  CA        -9.4190   30.7000  -12.3770 C.3    61  GLN61       0.1566
      3  C        -10.6580   30.4850  -13.2390 C.2    61  GLN61       0.2260
      4  O        -11.3460   29.4650  -13.1110 O.2    61  GLN61      -0.2867
      5  CB        -9.7520   31.5850  -11.1720 C.3    61  GLN61       0.0367
      6  CG        -8.5770   31.8000  -10.2430 C.3    61  GLN61       0.0905
      7  CD        -9.0190   32.3310   -8.8950 C.2    61  GLN61       0.2608
      8  OE1      -10.0430   31.9270   -8.3560 O.2    61  GLN61      -0.2717
      9  NE2       -8.2510   33.2730   -8.3530 N.am   61  GLN61      -0.0878
     10  N        -10.3230   27.4070  -15.2590 N.3    64  ASP64      -0.1225
     11  CA       -10.4830   26.2600  -14.3720 C.3    64  ASP64       0.1805
     12  C        -11.9570   25.9600  -14.1390 C.2    64  ASP64       0.2597
     13  O        -12.3750   24.7960  -14.1790 O.2    64  ASP64      -0.2718
     14  CB        -9.7620   26.5140  -13.0460 C.3    64  ASP64       0.1424
     15  CG        -9.7470   25.2930  -12.1390 C.2    64  ASP64       0.3668
     16  OD1      -10.8270   24.7510  -11.8270 O.co2  64  ASP64      -0.2456
     17  OD2       -8.6460   24.8730  -11.7320 O.co2  64  ASP64      -0.2456
     18  N        -12.7630   26.9980  -13.9070 N.am   65  ILE65      -0.1980
     19  CA       -14.1950   26.7950  -13.7060 C.3    65  ILE65       0.1595
     20  C        -14.8190   26.1580  -14.9410 C.2    65  ILE65       0.2287
     21  O        -15.6590   25.2550  -14.8360 O.2    65  ILE65      -0.2864
     22  CB       -14.8760   28.1270  -13.3400 C.3    65  ILE65       0.0276
     23  CG1      -14.4380   28.5870  -11.9490 C.3    65  ILE65       0.0022
     24  CG2      -16.3870   27.9960  -13.3980 C.3    65  ILE65       0.0022
     25  CD1      -14.9250   29.9730  -11.5820 C.3    65  ILE65       0.0001
     26  N         -7.4130   21.9190  -13.4690 N.3    70  TRP70      -0.1241
     27  CA        -6.3560   22.9250  -13.5530 C.3    70  TRP70       0.1605
     28  C         -5.3320   22.5540  -14.6170 C.2    70  TRP70       0.2264
     29  O         -4.5100   21.6500  -14.4010 O.2    70  TRP70      -0.2867
     30  CB        -5.6770   23.1090  -12.1900 C.3    70  TRP70       0.0550
     31  CG        -4.6080   24.1620  -12.1970 C.ar   70  TRP70       0.0003
     32  CD1       -3.2650   23.9570  -12.3250 C.ar   70  TRP70       0.0946
     33  CD2       -4.7910   25.5820  -12.1310 C.ar   70  TRP70       0.0152
     34  NE1       -2.5980   25.1560  -12.3090 N.ar   70  TRP70      -0.2442
     35  CE2       -3.5110   26.1710  -12.1960 C.ar   70  TRP70       0.0810
     36  CE3       -5.9090   26.4130  -12.0120 C.ar   70  TRP70       0.0012
     37  CZ2       -3.3190   27.5520  -12.1440 C.ar   70  TRP70       0.0191
     38  CZ3       -5.7160   27.7840  -11.9630 C.ar   70  TRP70       0.0001
     39  CH2       -4.4310   28.3380  -12.0280 C.ar   70  TRP70       0.0015
     40  N         -0.9610   31.3360   -7.9560 N.3    80  VAL80      -0.1231
     41  CA        -2.3380   31.7910   -7.7830 C.3    80  VAL80       0.1692
     42  C         -2.7490   31.7450   -6.3190 C.2    80  VAL80       0.2591
     43  O         -3.2520   32.7290   -5.7650 O.2    80  VAL80      -0.2718
     44  CB        -3.2780   30.9490   -8.6630 C.3    80  VAL80       0.0266
     45  CG1       -4.7100   31.1110   -8.2220 C.3    80  VAL80       0.0020
     46  CG2       -3.1110   31.3550  -10.1140 C.3    80  VAL80       0.0020
     47  N         -2.5540   30.5950   -5.6780 N.am   81  ILE81      -0.1980
     48  CA        -2.9390   30.4420   -4.2760 C.3    81  ILE81       0.1595
     49  C         -2.2510   31.5010   -3.4250 C.2    81  ILE81       0.2287
     50  O         -2.8780   32.1570   -2.5860 O.2    81  ILE81      -0.2864
     51  CB        -2.6040   29.0220   -3.7830 C.3    81  ILE81       0.0276
     52  CG1       -3.2870   27.9680   -4.6540 C.3    81  ILE81       0.0022
     53  CG2       -3.0480   28.8590   -2.3610 C.3    81  ILE81       0.0022
     54  CD1       -3.0650   26.5510   -4.1520 C.3    81  ILE81       0.0001
     55  N         -3.8550   34.9110   -3.8130 N.3    84  ASP84      -0.1225
     56  CA        -5.1660   34.9700   -3.1790 C.3    84  ASP84       0.1805
     57  C         -5.0480   35.2770   -1.6900 C.2    84  ASP84       0.2597
     58  O         -5.6980   36.1990   -1.1810 O.2    84  ASP84      -0.2718
     59  CB        -5.9110   33.6530   -3.3950 C.3    84  ASP84       0.1424
     60  CG        -7.3800   33.7630   -3.0720 C.2    84  ASP84       0.3668
     61  OD1       -7.9940   34.7910   -3.4280 O.co2  84  ASP84      -0.2456
     62  OD2       -7.9080   32.8430   -2.4220 O.co2  84  ASP84      -0.2456
     63  N         -4.2160   34.5150   -0.9760 N.am   85  TYR85      -0.1976
     64  CA        -4.0530   34.7520    0.4550 C.3    85  TYR85       0.1639
     65  C         -3.3880   36.0920    0.7200 C.2    85  TYR85       0.2290
     66  O         -3.7890   36.8200    1.6360 O.2    85  TYR85      -0.2864
     67  CB        -3.2580   33.6140    1.0960 C.3    85  TYR85       0.0560
     68  CG        -4.0640   32.3460    1.2590 C.ar   85  TYR85      -0.0198
     69  CD1       -4.3420   31.5310    0.1720 C.ar   85  TYR85      -0.0009
     70  CD2       -4.5610   31.9720    2.5010 C.ar   85  TYR85      -0.0009
     71  CE1       -5.0820   30.3780    0.3160 C.ar   85  TYR85       0.0417
     72  CE2       -5.3070   30.8170    2.6530 C.ar   85  TYR85       0.0417
     73  CZ        -5.5620   30.0250    1.5570 C.ar   85  TYR85       0.1957
     74  OH        -6.2990   28.8740    1.6970 O.3    85  TYR85      -0.2866
     75  N         -6.0960   38.8010    0.6570 N.3    88  MET88      -0.1230
     76  CA        -6.9330   38.9110    1.8490 C.3    88  MET88       0.1702
     77  C         -6.1870   39.5900    2.9920 C.2    88  MET88       0.2592
     78  O         -6.7070   40.5110    3.6320 O.2    88  MET88      -0.2718
     79  CB        -7.4130   37.5230    2.2810 C.3    88  MET88       0.0401
     80  CG        -8.6390   37.5350    3.1870 C.3    88  MET88       0.0596
     81  SD       -10.1050   38.2440    2.4090 S.3    88  MET88      -0.1393
     82  CE       -10.1420   37.3160    0.8760 C.3    88  MET88       0.0692
     83  N         -4.9570   39.1440    3.2620 N.am   89  PHE89      -0.1976
     84  CA        -4.2230   39.6600    4.4140 C.3    89  PHE89       0.1639
     85  C         -3.7750   41.1010    4.1990 C.2    89  PHE89       0.2290
     86  O         -3.9500   41.9490    5.0820 O.2    89  PHE89      -0.2864
     87  CB        -3.0230   38.7640    4.7210 C.3    89  PHE89       0.0560
     88  CG        -3.3840   37.4680    5.3980 C.ar   89  PHE89      -0.0200
     89  CD1       -3.7880   36.3650    4.6640 C.ar   89  PHE89      -0.0042
     90  CD2       -3.3010   37.3530    6.7780 C.ar   89  PHE89      -0.0042
     91  CE1       -4.1050   35.1740    5.2890 C.ar   89  PHE89      -0.0003
     92  CE2       -3.6160   36.1640    7.4120 C.ar   89  PHE89      -0.0003
     93  CZ        -4.0190   35.0720    6.6640 C.ar   89  PHE89      -0.0000
     94  N         -5.8300   22.2300   -8.3680 N.3   150  CYS150     -0.1221
     95  CA        -5.0780   23.1210   -7.4800 C.3   150  CYS150      0.1808
     96  C         -5.7720   23.2540   -6.1300 C.2   150  CYS150      0.2601
     97  O         -6.9140   23.7240   -6.0580 O.2   150  CYS150     -0.2717
     98  CB        -4.9530   24.5090   -8.1110 C.3   150  CYS150      0.0970
     99  SG        -3.6590   25.6140   -7.4790 S.3   150  CYS150     -0.0800
    100  N         -5.0720   22.8730   -5.0640 N.am  151  LEU151     -0.1965
    101  CA        -5.6250   22.8850   -3.7190 C.3   151  LEU151      0.1728
    102  C         -4.4940   23.0790   -2.7170 C.2   151  LEU151      0.2616
    103  O         -3.3240   22.8180   -3.0120 O.2   151  LEU151     -0.2715
    104  CB        -6.3950   21.5880   -3.4360 C.3   151  LEU151      0.0311
    105  CG        -5.5490   20.3220   -3.2750 C.3   151  LEU151      0.0022
    106  CD1       -5.3900   19.9420   -1.8110 C.3   151  LEU151      0.0001
    107  CD2       -6.1290   19.1660   -4.0800 C.3   151  LEU151      0.0001
    108  N         -4.8600   23.5510   -1.5280 N.am  152  VAL152     -0.1977
    109  CA        -3.9400   23.6400   -0.3990 C.3   152  VAL152      0.1596
    110  C         -4.0660   22.3560    0.4080 C.2   152  VAL152      0.2287
    111  O         -5.1660   21.9890    0.8350 O.2   152  VAL152     -0.2864
    112  CB        -4.2400   24.8710    0.4670 C.3   152  VAL152      0.0276
    113  CG1       -3.2310   24.9850    1.5950 C.3   152  VAL152      0.0022
    114  CG2       -4.2370   26.1300   -0.3850 C.3   152  VAL152      0.0022
    115  N         -6.9470   31.2300   10.5590 N.3   169  ILE169     -0.1245
    116  CA        -7.0600   32.1060    9.3980 C.3   169  ILE169      0.1561
    117  C         -8.2800   33.0090    9.5340 C.2   169  ILE169      0.2260
    118  O         -8.2270   34.2010    9.2110 O.2   169  ILE169     -0.2867
    119  CB        -7.0990   31.2760    8.1010 C.3   169  ILE169      0.0252
    120  CG1       -5.7720   30.5410    7.8960 C.3   169  ILE169      0.0019
    121  CG2       -7.3490   32.1630    6.9240 C.3   169  ILE169      0.0019
    122  CD1       -4.5630   31.4430    7.8710 C.3   169  ILE169      0.0001
    123  N         -6.9090   36.7810    9.7700 N.3   173  SER173     -0.1217
    124  CA        -7.0890   37.4710    8.5010 C.3   173  SER173      0.1889
    125  C         -8.3620   38.3060    8.4550 C.2   173  SER173      0.2288
    126  O         -8.5470   39.0620    7.4960 O.2   173  SER173     -0.2866
    127  CB        -7.1030   36.4710    7.3380 C.3   173  SER173      0.2089
    128  OG        -8.4270   36.0640    7.0550 O.3   173  SER173     -0.2183
    129  N        -16.6900   40.0920    1.5420 N.3   226  TRP226     -0.1241
    130  CA       -15.9090   38.9150    1.8960 C.3   226  TRP226      0.1605
    131  C        -16.4350   38.1470    3.1040 C.2   226  TRP226      0.2264
    132  O        -15.9280   37.0540    3.3800 O.2   226  TRP226     -0.2867
    133  CB       -14.4410   39.3010    2.1430 C.3   226  TRP226      0.0550
    134  CG       -13.6590   39.5480    0.8740 C.ar  226  TRP226      0.0003
    135  CD1      -13.1820   40.7440    0.4210 C.ar  226  TRP226      0.0946
    136  CD2      -13.2940   38.5730   -0.1130 C.ar  226  TRP226      0.0152
    137  NE1      -12.5270   40.5700   -0.7750 N.ar  226  TRP226     -0.2442
    138  CE2      -12.5850   39.2480   -1.1260 C.ar  226  TRP226      0.0810
    139  CE3      -13.4950   37.1940   -0.2340 C.ar  226  TRP226      0.0012
    140  CZ2      -12.0730   38.5890   -2.2440 C.ar  226  TRP226      0.0191
    141  CZ3      -12.9880   36.5450   -1.3450 C.ar  226  TRP226      0.0001
    142  CH2      -12.2870   37.2410   -2.3350 C.ar  226  TRP226      0.0015
    143  N        -17.9590   34.5330    2.0910 N.3   229  VAL229     -0.1231
    144  CA       -16.8680   33.6090    1.7940 C.3   229  VAL229      0.1692
    145  C        -16.1680   33.1820    3.0790 C.2   229  VAL229      0.2591
    146  O        -15.8990   31.9930    3.2980 O.2   229  VAL229     -0.2718
    147  CB       -15.8860   34.2570    0.8040 C.3   229  VAL229      0.0266
    148  CG1      -14.7190   33.3240    0.5100 C.3   229  VAL229      0.0020
    149  CG2      -16.6120   34.6450   -0.4710 C.3   229  VAL229      0.0020
    150  N        -15.8780   34.1490    3.9550 N.am  230  GLN230     -0.1979
    151  CA       -15.1390   33.8560    5.1800 C.3   230  GLN230      0.1601
    152  C        -15.8710   32.8200    6.0240 C.2   230  GLN230      0.2287
    153  O        -15.2640   31.8690    6.5310 O.2   230  GLN230     -0.2864
    154  CB       -14.9290   35.1450    5.9760 C.3   230  GLN230      0.0394
    155  CG       -13.8240   36.0460    5.4420 C.3   230  GLN230      0.0908
    156  CD       -12.4430   35.5990    5.8550 C.2   230  GLN230      0.2608
    157  OE1      -12.2790   34.5910    6.5420 O.2   230  GLN230     -0.2717
    158  NE2      -11.4350   36.3660    5.4570 N.am  230  GLN230     -0.0878
    159  N        -15.8790   29.3430    4.0560 N.3   233  VAL233     -0.1245
    160  CA       -14.5680   28.7020    4.0930 C.3   233  VAL233      0.1561
    161  C        -14.2730   28.1810    5.4930 C.2   233  VAL233      0.2260
    162  O        -13.7240   27.0840    5.6640 O.2   233  VAL233     -0.2867
    163  CB       -13.4880   29.6810    3.6010 C.3   233  VAL233      0.0252
    164  CG1      -12.0980   29.1610    3.9350 C.3   233  VAL233      0.0019
    165  CG2      -13.6410   29.9130    2.0990 C.3   233  VAL233      0.0019
    166  N        -19.9020   29.5370   -5.5150 N.3   252  ARG252     -0.1245
    167  CA       -19.2390   30.1460   -6.6630 C.3   252  ARG252      0.1563
    168  C        -19.5480   31.6340   -6.7520 C.2   252  ARG252      0.2260
    169  O        -18.6610   32.4460   -7.0470 O.2   252  ARG252     -0.2867
    170  CB       -19.6730   29.4400   -7.9450 C.3   252  ARG252      0.0307
    171  CG       -19.2170   27.9980   -8.0600 C.3   252  ARG252      0.0489
    172  CD       -17.7090   27.8740   -8.0820 C.3   252  ARG252      0.2205
    173  NE       -17.2990   26.5200   -8.4350 N.pl3 252  ARG252     -0.0865
    174  CZ       -16.0370   26.1090   -8.4640 C.cat 252  ARG252      0.5346
    175  NH1      -15.0640   26.9520   -8.1530 N.pl3 252  ARG252      0.1354
    176  NH2      -15.7500   24.8590   -8.8020 N.pl3 252  ARG252      0.1354
    177  N        -17.8020   33.7040   -3.7910 N.3   255  THR255     -0.1218
    178  CA       -16.4090   33.8870   -4.1810 C.3   255  THR255      0.1862
    179  C        -16.2810   34.9800   -5.2360 C.2   255  THR255      0.2287
    180  O        -15.4470   35.8860   -5.1210 O.2   255  THR255     -0.2866
    181  CB       -15.8400   32.5720   -4.7100 C.3   255  THR255      0.1770
    182  OG1      -16.0880   31.5300   -3.7580 O.3   255  THR255     -0.2211
    183  CG2      -14.3550   32.7050   -4.9590 C.3   255  THR255      0.0375
    184  N        -14.3300   38.9350   -5.4290 N.3   259  TYR259     -0.1241
    185  CA       -13.4870   39.4030   -6.5270 C.3   259  TYR259      0.1605
    186  C        -14.0480   40.6850   -7.1220 C.2   259  TYR259      0.2264
    187  O        -13.2910   41.5660   -7.5470 O.2   259  TYR259     -0.2867
    188  CB       -13.3660   38.3200   -7.5970 C.3   259  TYR259      0.0534
    189  CG       -12.5260   37.1580   -7.1380 C.ar  259  TYR259     -0.0201
    190  CD1      -11.4640   37.3490   -6.2670 C.ar  259  TYR259     -0.0009
    191  CD2      -12.8300   35.8640   -7.5200 C.ar  259  TYR259     -0.0009
    192  CE1      -10.7030   36.2840   -5.8240 C.ar  259  TYR259      0.0417
    193  CE2      -12.0760   34.7920   -7.0780 C.ar  259  TYR259      0.0417
    194  CZ       -11.0140   35.0090   -6.2290 C.ar  259  TYR259      0.1957
    195  OH       -10.2620   33.9450   -5.7860 O.3   259  TYR259     -0.2866
@<TRIPOS>BOND
     1    10    11    1
     2    20    21    2
     3    20    19    1
     4    28    29    2
     5    28    27    1
     6    11    12    1
     7    11    14    1
     8    13    12    2
     9    12    18   am
    10    18    19    1
    11    19    22    1
    12    27    26    1
    13    27    30    1
    14    24    22    1
    15    22    23    1
    16     3     4    2
    17     3     2    1
    18     1     2    1
    19    14    15    1
    20     2     5    1
    21    32    34   ar
    22    32    31   ar
    23    34    35   ar
    24    31    30    1
    25    31    33   ar
    26    35    37   ar
    27    35    33   ar
    28    37    39   ar
    29    15    16   ar
    30    15    17   ar
    31    33    36   ar
    32    39    38   ar
    33    36    38   ar
    34    23    25    1
    35     5     6    1
    36     6     7    1
    37    46    44    1
    38     7     8    2
    39     7     9   am
    40   176   174    1
    41    44    45    1
    42    44    41    1
    43   174   173    2
    44   174   175    1
    45   173   172    1
    46    94    95    1
    47    98    95    1
    48    98    99    1
    49   172   171    1
    50   171   170    1
    51    40    41    1
    52   170   167    1
    53    41    42    1
    54   188   189    1
    55   188   185    1
    56   187   186    2
    57   191   189   ar
    58   191   193   ar
    59    95    96    1
    60   189   190   ar
    61   186   185    1
    62   193   194   ar
    63   169   168    2
    64   168   167    1
    65   167   166    1
    66   185   184    1
    67    42    43    2
    68    42    47   am
    69   190   192   ar
    70   194   192   ar
    71   194   195    1
    72    96    97    2
    73    96   100   am
    74    47    48    1
    75   179   180    2
    76   179   178    1
    77   100   101    1
    78   183   181    1
    79   181   178    1
    80   181   182    1
    81    52    54    1
    82    52    51    1
    83    48    51    1
    84    48    49    1
    85   178   177    1
    86   107   105    1
    87    55    56    1
    88    51    53    1
    89   101   104    1
    90   101   102    1
    91   104   105    1
    92    61    60   ar
    93    49    50    2
    94    59    56    1
    95    59    60    1
    96   105   106    1
    97    56    57    1
    98    60    62   ar
    99   103   102    2
   100   102   108   am
   101   142   140   ar
   102   142   141   ar
   103   140   138   ar
   104    57    58    2
   105    57    63   am
   106   108   109    1
   107   141   139   ar
   108   138   137   ar
   109   138   136   ar
   110    63    64    1
   111   137   135   ar
   112   149   147    1
   113   109   110    1
   114   109   112    1
   115   114   112    1
   116   139   136   ar
   117   136   134   ar
   118    69    71   ar
   119    69    68   ar
   120    71    73   ar
   121   110   111    2
   122   135   134   ar
   123    64    65    1
   124    64    67    1
   125   112   113    1
   126   148   147    1
   127    75    76    1
   128    65    66    2
   129   147   144    1
   130   134   133    1
   131    82    81    1
   132    67    68    1
   133    68    70   ar
   134   129   130    1
   135    73    74    1
   136    73    72   ar
   137   144   143    1
   138   144   145    1
   139    76    79    1
   140    76    77    1
   141   130   133    1
   142   130   131    1
   143   165   163    1
   144    79    80    1
   145    81    80    1
   146    70    72   ar
   147    77    83   am
   148    77    78    2
   149   145   146    2
   150   145   150   am
   151   131   132    2
   152    83    84    1
   153   163   164    1
   154   163   160    1
   155   150   151    1
   156   159   160    1
   157   160   161    1
   158    85    84    1
   159    85    86    2
   160    84    87    1
   161    89    91   ar
   162    89    88   ar
   163    87    88    1
   164   151   154    1
   165   151   152    1
   166    91    93   ar
   167    88    90   ar
   168   155   156    1
   169   155   154    1
   170   158   156   am
   171   161   162    2
   172   156   157    2
   173   152   153    2
   174    93    92   ar
   175    90    92   ar
   176   121   119    1
   177   128   127    1
   178   127   124    1
   179   126   125    2
   180   122   120    1
   181   120   119    1
   182   119   116    1
   183   125   124    1
   184   124   123    1
   185   118   117    2
   186   116   117    1
   187   116   115    1
