@<TRIPOS>MOLECULE
tmp/5dhhA04.pdb
 98 92 0 0 0
SMALL
GASTEIGER

@<TRIPOS>ATOM
      1  N          1.7280   56.3580   -8.7790 N.3    33  LEU33      -0.1245
      2  CA         3.1380   56.2020   -9.1160 C.3    33  LEU33       0.1561
      3  C          3.6220   57.2290  -10.1340 C.2    33  LEU33       0.2260
      4  O          4.5230   58.0220   -9.8410 O.2    33  LEU33      -0.2867
      5  CB         3.3870   54.7830   -9.6410 C.3    33  LEU33       0.0270
      6  CG         4.6850   54.0900   -9.2270 C.3    33  LEU33       0.0019
      7  CD1        4.8350   54.0860   -7.7140 C.3    33  LEU33       0.0001
      8  CD2        4.7200   52.6740   -9.7760 C.3    33  LEU33       0.0001
      9  N          1.2890   60.2500   -2.8410 N.3    39  LYS39      -0.1245
     10  CA         1.8860   59.2930   -1.9240 C.3    39  LYS39       0.1561
     11  C          1.5630   59.6330   -0.4760 C.2    39  LYS39       0.2260
     12  O          2.4640   59.8910    0.3260 O.2    39  LYS39      -0.2867
     13  CB         3.3980   59.2360   -2.1450 C.3    39  LYS39       0.0271
     14  CG         3.7850   59.1590   -3.6170 C.3    39  LYS39       0.0035
     15  CD         4.6630   57.9560   -3.9150 C.3    39  LYS39       0.0206
     16  CE         5.3150   58.0750   -5.2870 C.3    39  LYS39       0.1093
     17  NZ         6.3870   57.0580   -5.4740 N.3    39  LYS39      -0.1314
     18  N         -0.4960   54.6150   -0.0980 N.3    44  ILE44      -0.1245
     19  CA         0.5250   53.5750   -0.1180 C.3    44  ILE44       0.1561
     20  C         -0.1080   52.2300    0.2100 C.2    44  ILE44       0.2260
     21  O          0.1240   51.2250   -0.4730 O.2    44  ILE44      -0.2867
     22  CB         1.6580   53.9200    0.8630 C.3    44  ILE44       0.0252
     23  CG1        2.3340   55.2350    0.4670 C.3    44  ILE44       0.0019
     24  CG2        2.6840   52.8110    0.8970 C.3    44  ILE44       0.0019
     25  CD1        2.9160   55.2330   -0.9260 C.3    44  ILE44       0.0001
     26  N         -2.1770   51.2240   -2.6220 N.3    47  PHE47      -0.1227
     27  CA        -1.3110   50.6570   -3.6490 C.3    47  PHE47       0.1736
     28  C         -1.0180   49.1910   -3.3600 C.2    47  PHE47       0.2595
     29  O         -1.0300   48.3540   -4.2710 O.2    47  PHE47      -0.2718
     30  CB        -0.0120   51.4600   -3.7250 C.3    47  PHE47       0.0547
     31  CG         0.9660   50.9500   -4.7400 C.ar   47  PHE47      -0.0202
     32  CD1        0.9150   51.4070   -6.0460 C.ar   47  PHE47      -0.0042
     33  CD2        1.9310   50.0200   -4.3960 C.ar   47  PHE47      -0.0042
     34  CE1        1.8130   50.9520   -6.9870 C.ar   47  PHE47      -0.0003
     35  CE2        2.8280   49.5560   -5.3350 C.ar   47  PHE47      -0.0003
     36  CZ         2.7700   50.0240   -6.6320 C.ar   47  PHE47      -0.0000
     37  N         -0.7500   48.8690   -2.0930 N.am   48  ASN48      -0.1974
     38  CA        -0.5420   47.4830   -1.6890 C.3    48  ASN48       0.1688
     39  C         -1.7610   46.6330   -2.0230 C.2    48  ASN48       0.2292
     40  O         -1.6380   45.5360   -2.5830 O.2    48  ASN48      -0.2864
     41  CB        -0.2380   47.4340   -0.1900 C.3    48  ASN48       0.1181
     42  CG         0.6860   46.2960    0.1910 C.2    48  ASN48       0.2629
     43  OD1        1.4840   45.8280   -0.6200 O.2    48  ASN48      -0.2716
     44  ND2        0.5790   45.8430    1.4350 N.am   48  ASN48      -0.0877
     45  N         -2.0860   45.9750   -5.6160 N.3    51  LEU51      -0.1245
     46  CA        -1.0440   45.0530   -6.0470 C.3    51  LEU51       0.1561
     47  C         -1.4790   43.6050   -5.8530 C.2    51  LEU51       0.2260
     48  O         -1.4240   42.7980   -6.7900 O.2    51  LEU51      -0.2867
     49  CB         0.2440   45.3330   -5.2760 C.3    51  LEU51       0.0270
     50  CG         1.4670   44.4910   -5.6250 C.3    51  LEU51       0.0019
     51  CD1        1.8240   44.6550   -7.0950 C.3    51  LEU51       0.0001
     52  CD2        2.6320   44.8700   -4.7320 C.3    51  LEU51       0.0001
     53  N         -2.5080   40.5410   -8.6680 N.3    55  LEU55      -0.1245
     54  CA        -1.9060   39.2150   -8.7330 C.3    55  LEU55       0.1561
     55  C         -2.9640   38.1190   -8.7760 C.2    55  LEU55       0.2260
     56  O         -2.8840   37.1920   -9.5920 O.2    55  LEU55      -0.2867
     57  CB        -0.9960   39.0270   -7.5190 C.3    55  LEU55       0.0270
     58  CG         0.3670   38.3720   -7.6910 C.3    55  LEU55       0.0019
     59  CD1        1.2300   39.1750   -8.6380 C.3    55  LEU55       0.0001
     60  CD2        1.0130   38.2610   -6.3210 C.3    55  LEU55       0.0001
     61  N          5.2200   52.4130    3.6590 N.3   118  GLN118     -0.1245
     62  CA         5.8870   51.4420    2.7980 C.3   118  GLN118      0.1566
     63  C          6.5590   50.3540    3.6260 C.2   118  GLN118      0.2260
     64  O          6.4960   49.1680    3.2770 O.2   118  GLN118     -0.2867
     65  CB         6.9030   52.1490    1.9040 C.3   118  GLN118      0.0367
     66  CG         6.2840   52.8750    0.7220 C.3   118  GLN118      0.0905
     67  CD         7.2320   53.8710    0.0880 C.2   118  GLN118      0.2608
     68  OE1        7.9380   54.5980    0.7850 O.2   118  GLN118     -0.2717
     69  NE2        7.2430   53.9190   -1.2380 N.am  118  GLN118     -0.0878
     70  N          4.0000   48.0230    4.6850 N.3   121  ASN121     -0.1225
     71  CA         3.6790   47.1150    3.5910 C.3   121  ASN121      0.1785
     72  C          4.6850   45.9770    3.5150 C.2   121  ASN121      0.2597
     73  O          4.3140   44.8210    3.2710 O.2   121  ASN121     -0.2718
     74  CB         3.6470   47.8800    2.2700 C.3   121  ASN121      0.1169
     75  CG         2.4350   48.7780    2.1430 C.2   121  ASN121      0.2627
     76  OD1        1.5020   48.7090    2.9480 O.2   121  ASN121     -0.2716
     77  ND2        2.4340   49.6180    1.1190 N.am  121  ASN121     -0.0877
     78  N          5.9660   46.2910    3.7230 N.am  122  VAL122     -0.1980
     79  CA         7.0080   45.2690    3.7190 C.3   122  VAL122      0.1595
     80  C          6.7370   44.2340    4.8050 C.2   122  VAL122      0.2287
     81  O          6.7930   43.0230    4.5630 O.2   122  VAL122     -0.2864
     82  CB         8.3920   45.9180    3.8970 C.3   122  VAL122      0.0276
     83  CG1        9.4620   44.8540    4.0890 C.3   122  VAL122      0.0022
     84  CG2        8.7110   46.8090    2.7140 C.3   122  VAL122      0.0022
     85  N          3.7400   41.9750    3.9030 N.3   125  TRP125     -0.1241
     86  CA         4.1750   40.9100    3.0060 C.3   125  TRP125      0.1605
     87  C          5.0570   39.8860    3.7010 C.2   125  TRP125      0.2264
     88  O          5.0770   38.7200    3.2920 O.2   125  TRP125     -0.2867
     89  CB         4.8910   41.5060    1.7930 C.3   125  TRP125      0.0550
     90  CG         3.9920   41.8230    0.6190 C.ar  125  TRP125      0.0003
     91  CD1        3.4660   43.0460    0.2760 C.ar  125  TRP125      0.0946
     92  CD2        3.4810   40.8850   -0.3330 C.ar  125  TRP125      0.0152
     93  NE1        2.6620   42.9090   -0.8260 N.ar  125  TRP125     -0.2442
     94  CE2        2.6460   41.6020   -1.2190 C.ar  125  TRP125      0.0810
     95  CE3        3.6360   39.5000   -0.5100 C.ar  125  TRP125      0.0012
     96  CZ2        1.9600   40.9790   -2.2750 C.ar  125  TRP125      0.0191
     97  CZ3        2.9510   38.8750   -1.5570 C.ar  125  TRP125      0.0001
     98  CH2        2.1270   39.6180   -2.4200 C.ar  125  TRP125      0.0015
@<TRIPOS>BOND
     1     3     4    2
     2     3     2    1
     3     8     6    1
     4     5     6    1
     5     5     2    1
     6    56    55    2
     7     6     7    1
     8     2     1    1
     9    55    54    1
    10    54    53    1
    11    54    57    1
    12    59    58    1
    13    58    57    1
    14    58    60    1
    15    51    50    1
    16    34    36   ar
    17    34    32   ar
    18    48    47    2
    19    36    35   ar
    20    46    47    1
    21    46    45    1
    22    46    49    1
    23    32    31   ar
    24    50    49    1
    25    50    52    1
    26    17    16    1
    27    35    33   ar
    28    16    15    1
    29    31    33   ar
    30    31    30    1
    31    29    28    2
    32    15    14    1
    33    30    27    1
    34    27    28    1
    35    27    26    1
    36    14    13    1
    37    28    37   am
    38     9    10    1
    39    40    39    2
    40    98    96   ar
    41    98    97   ar
    42    96    94   ar
    43    13    10    1
    44    37    38    1
    45    39    38    1
    46    10    11    1
    47    38    41    1
    48    97    95   ar
    49    69    67   am
    50    94    93   ar
    51    94    92   ar
    52    25    23    1
    53    93    91   ar
    54    43    42    2
    55    95    92   ar
    56    11    12    2
    57    21    20    2
    58    92    90   ar
    59    41    42    1
    60    19    18    1
    61    19    20    1
    62    19    22    1
    63    67    66    1
    64    67    68    2
    65    42    44   am
    66    91    90   ar
    67    23    22    1
    68    90    89    1
    69    66    65    1
    70    22    24    1
    71    77    75   am
    72    89    86    1
    73    65    62    1
    74    75    74    1
    75    75    76    2
    76    74    71    1
    77    84    82    1
    78    62    63    1
    79    62    61    1
    80    86    87    1
    81    86    85    1
    82    73    72    2
    83    64    63    2
    84    88    87    2
    85    72    71    1
    86    72    78   am
    87    71    70    1
    88    79    78    1
    89    79    82    1
    90    79    80    1
    91    82    83    1
    92    81    80    2
