@<TRIPOS>MOLECULE
tmp/5dhhA00.pdb
 122 113 0 0 0
SMALL
GASTEIGER

@<TRIPOS>ATOM
      1  N          0.0970   58.0520    3.0870 N.3    41  ALA41      -0.1245
      2  CA         0.1840   56.7160    3.6670 C.3    41  ALA41       0.1562
      3  C         -1.0270   55.8730    3.2810 C.2    41  ALA41       0.2260
      4  O         -0.8910   54.6910    2.9410 O.2    41  ALA41      -0.2867
      5  CB         0.3240   56.8090    5.1860 C.3    41  ALA41       0.0290
      6  N         -0.9320   52.2050    1.2600 N.3    45  TYR45      -0.1241
      7  CA        -1.6870   51.0080    1.6060 C.3    45  TYR45       0.1605
      8  C         -2.6190   50.6090    0.4730 C.2    45  TYR45       0.2264
      9  O         -2.7270   49.4260    0.1270 O.2    45  TYR45      -0.2867
     10  CB        -2.4870   51.2640    2.8790 C.3    45  TYR45       0.0534
     11  CG        -1.6370   51.5910    4.0830 C.ar   45  TYR45      -0.0201
     12  CD1       -0.4470   50.9160    4.3250 C.ar   45  TYR45      -0.0009
     13  CD2       -2.0130   52.5930    4.9660 C.ar   45  TYR45      -0.0009
     14  CE1        0.3330   51.2200    5.4230 C.ar   45  TYR45       0.0417
     15  CE2       -1.2400   52.9070    6.0630 C.ar   45  TYR45       0.0417
     16  CZ        -0.0670   52.2160    6.2870 C.ar   45  TYR45       0.1957
     17  OH         0.7110   52.5220    7.3790 O.3    45  TYR45      -0.2866
     18  N         -4.4890   42.5140    6.4700 N.3    95  PHE95      -0.1241
     19  CA        -3.4630   43.2220    7.2290 C.3    95  PHE95       0.1605
     20  C         -3.3460   44.6690    6.7710 C.2    95  PHE95       0.2264
     21  O         -3.2220   45.5830    7.5960 O.2    95  PHE95      -0.2867
     22  CB        -2.1150   42.5140    7.0940 C.3    95  PHE95       0.0534
     23  CG        -2.0590   41.1770    7.7750 C.ar   95  PHE95      -0.0203
     24  CD1       -3.0490   40.7860    8.6660 C.ar   95  PHE95      -0.0042
     25  CD2       -1.0130   40.3090    7.5230 C.ar   95  PHE95      -0.0042
     26  CE1       -2.9910   39.5500    9.2870 C.ar   95  PHE95      -0.0003
     27  CE2       -0.9490   39.0770    8.1400 C.ar   95  PHE95      -0.0003
     28  CZ        -1.9390   38.6960    9.0230 C.ar   95  PHE95      -0.0000
     29  N         -6.1490   46.6030    8.1010 N.3    98  THR98      -0.1203
     30  CA        -5.8950   46.8710    9.5120 C.3    98  THR98       0.1994
     31  C         -4.9520   48.0540    9.6800 C.2    98  THR98       0.2617
     32  O         -5.2030   48.9550   10.4890 O.2    98  THR98      -0.2717
     33  CB        -5.3170   45.6290   10.1870 C.3    98  THR98       0.1784
     34  OG1       -6.2600   44.5560   10.0950 O.3    98  THR98      -0.2211
     35  CG2       -5.0210   45.9140   11.6460 C.3    98  THR98       0.0376
     36  N         -3.8600   48.0690    8.9110 N.am   99  ALA99      -0.1979
     37  CA        -2.9240   49.1860    8.9700 C.3    99  ALA99       0.1597
     38  C         -3.6020   50.4950    8.5850 C.2    99  ALA99       0.2287
     39  O         -3.3210   51.5450    9.1740 O.2    99  ALA99      -0.2864
     40  CB        -1.7250   48.9100    8.0620 C.3    99  ALA99       0.0319
     41  N         -5.7170   51.5760   11.6130 N.3   102  VAL102     -0.1231
     42  CA        -4.8300   52.0570   12.6680 C.3   102  VAL102      0.1692
     43  C         -4.2990   53.4420   12.3190 C.2   102  VAL102      0.2592
     44  O         -4.2570   54.3420   13.1680 O.2   102  VAL102     -0.2718
     45  CB        -3.6850   51.0520   12.8990 C.3   102  VAL102      0.0266
     46  CG1       -2.6310   51.6430   13.8200 C.3   102  VAL102      0.0020
     47  CG2       -4.2320   49.7490   13.4620 C.3   102  VAL102      0.0020
     48  N         -3.9010   53.6360   11.0610 N.am  103  ASP103     -0.1974
     49  CA        -3.4380   54.9450   10.6130 C.3   103  ASP103      0.1709
     50  C         -4.5360   55.9920   10.7450 C.2   103  ASP103      0.2293
     51  O         -4.2740   57.1310   11.1510 O.2   103  ASP103     -0.2864
     52  CB        -2.9530   54.8520    9.1680 C.3   103  ASP103      0.1436
     53  CG        -2.2210   56.0910    8.7210 C.2   103  ASP103      0.3671
     54  OD1       -1.0980   56.3280    9.2140 O.co2 103  ASP103     -0.2456
     55  OD2       -2.7740   56.8330    7.8840 O.co2 103  ASP103     -0.2456
     56  N         -4.7090   56.9300   14.3000 N.3   106  VAL106     -0.1245
     57  CA        -3.5590   57.7730   14.6150 C.3   106  VAL106      0.1561
     58  C         -3.8350   59.2120   14.1980 C.2   106  VAL106      0.2260
     59  O         -3.5700   60.1600   14.9470 O.2   106  VAL106     -0.2867
     60  CB        -2.2900   57.2220   13.9390 C.3   106  VAL106      0.0252
     61  CG1       -1.1970   58.2830   13.8940 C.3   106  VAL106      0.0019
     62  CG2       -1.8040   55.9700   14.6590 C.3   106  VAL106      0.0019
     63  N          2.5170   60.5160   10.2040 N.3   112  ARG112     -0.1231
     64  CA         2.2730   59.4790    9.2070 C.3   112  ARG112      0.1694
     65  C          2.9730   59.8290    7.8830 C.2   112  ARG112      0.2592
     66  O          2.6270   60.7860    7.1880 O.2   112  ARG112     -0.2718
     67  CB         0.7500   59.2490    9.0630 C.3   112  ARG112      0.0321
     68  CG        -0.0250   60.1510    8.1050 C.3   112  ARG112      0.0489
     69  CD        -1.5300   60.0470    8.3390 C.3   112  ARG112      0.2205
     70  NE        -2.3110   60.5220    7.1990 N.pl3 112  ARG112     -0.0865
     71  CZ        -2.6690   59.7620    6.1690 C.cat 112  ARG112      0.5346
     72  NH1       -2.3310   58.4810    6.1420 N.pl3 112  ARG112      0.1354
     73  NH2       -3.3800   60.2780    5.1750 N.pl3 112  ARG112      0.1354
     74  N          4.0140   59.0620    7.5720 N.am  113  THR113     -0.1953
     75  CA         4.8510   59.2940    6.4030 C.3   113  THR113      0.1897
     76  C          4.6970   58.1350    5.4270 C.2   113  THR113      0.2313
     77  O          4.5960   56.9740    5.8380 O.2   113  THR113     -0.2863
     78  CB         6.3220   59.4640    6.8030 C.3   113  THR113      0.1794
     79  OG1        6.4580   60.6230    7.6350 O.3   113  THR113     -0.2208
     80  CG2        7.2120   59.6340    5.5760 C.3   113  THR113      0.0378
     81  N          7.1230   55.2880    6.0730 N.3   116  LYS116     -0.1231
     82  CA         6.6860   54.4260    7.1660 C.3   116  LYS116      0.1693
     83  C          5.6110   53.4590    6.6910 C.2   116  LYS116      0.2591
     84  O          5.6480   52.2650    7.0150 O.2   116  LYS116     -0.2718
     85  CB         6.1620   55.2730    8.3230 C.3   116  LYS116      0.0285
     86  CG         7.2180   56.0590    9.0750 C.3   116  LYS116      0.0035
     87  CD         6.6170   56.6680   10.3280 C.3   116  LYS116      0.0206
     88  CE         7.6450   57.4500   11.1220 C.3   116  LYS116      0.1093
     89  NZ         7.1000   57.9090   12.4300 N.3   116  LYS116     -0.1314
     90  N          4.6450   53.9610    5.9160 N.am  117  ALA117     -0.1980
     91  CA         3.6070   53.1020    5.3590 C.3   117  ALA117      0.1597
     92  C          4.2030   52.0420    4.4410 C.2   117  ALA117      0.2287
     93  O          3.7490   50.8920    4.4330 O.2   117  ALA117     -0.2864
     94  CB         2.5760   53.9420    4.6070 C.3   117  ALA117      0.0319
     95  N          5.5380   49.4100    6.5720 N.3   120  VAL120     -0.1245
     96  CA         4.4110   48.5980    7.0200 C.3   120  VAL120      0.1561
     97  C          4.0300   47.5860    5.9470 C.2   120  VAL120      0.2260
     98  O          3.7810   46.4100    6.2400 O.2   120  VAL120     -0.2867
     99  CB         3.2200   49.5000    7.3970 C.3   120  VAL120      0.0252
    100  CG1        1.9840   48.6610    7.7070 C.3   120  VAL120      0.0019
    101  CG2        3.5850   50.3880    8.5760 C.3   120  VAL120      0.0019
    102  N          6.4300   44.7010    6.0180 N.3   123  ALA123     -0.1231
    103  CA         6.1340   43.7850    7.1130 C.3   123  ALA123      0.1694
    104  C          4.8800   42.9670    6.8230 C.2   123  ALA123      0.2591
    105  O          4.8260   41.7700    7.1320 O.2   123  ALA123     -0.2718
    106  CB         5.9850   44.5660    8.4180 C.3   123  ALA123      0.0304
    107  N          3.8590   43.5990    6.2330 N.am  124  ILE124     -0.1980
    108  CA         2.6360   42.8860    5.8650 C.3   124  ILE124      0.1595
    109  C          2.9660   41.7110    4.9580 C.2   124  ILE124      0.2287
    110  O          2.5370   40.5740    5.1930 O.2   124  ILE124     -0.2864
    111  CB         1.6420   43.8460    5.1920 C.3   124  ILE124      0.0276
    112  CG1        1.0820   44.8470    6.2010 C.3   124  ILE124      0.0022
    113  CG2        0.5270   43.0740    4.5020 C.3   124  ILE124      0.0022
    114  CD1        0.3300   45.9870    5.5560 C.3   124  ILE124      0.0001
    115  N          4.7870   38.7850    6.9910 N.3   127  LEU127     -0.1245
    116  CA         3.8460   37.8710    7.6320 C.3   127  LEU127      0.1561
    117  C          3.0760   37.0690    6.5910 C.2   127  LEU127      0.2260
    118  O          2.9370   35.8440    6.7110 O.2   127  LEU127     -0.2867
    119  CB         2.8830   38.6500    8.5250 C.3   127  LEU127      0.0270
    120  CG         3.4340   39.3510    9.7640 C.3   127  LEU127      0.0019
    121  CD1        2.4690   40.4360   10.2040 C.3   127  LEU127      0.0001
    122  CD2        3.6560   38.3450   10.8750 C.3   127  LEU127      0.0001
@<TRIPOS>BOND
     1     9     8    2
     2     8     7    1
     3     6     7    1
     4     7    10    1
     5    10    11    1
     6     4     3    2
     7     1     2    1
     8     3     2    1
     9     2     5    1
    10    11    12   ar
    11    11    13   ar
    12    12    14   ar
    13    93    92    2
    14    92    91    1
    15   113   111    1
    16    94    91    1
    17   109   110    2
    18   109   108    1
    19    13    15   ar
    20    73    71    1
    21   111   108    1
    22   111   112    1
    23    91    90    1
    24    14    16   ar
    25    76    77    2
    26    76    75    1
    27   114   112    1
    28    80    78    1
    29   108   107    1
    30    90    83   am
    31    97    98    2
    32    97    96    1
    33   102   103    1
    34    15    16   ar
    35    81    82    1
    36    72    71    1
    37    71    70    2
    38   107   104   am
    39    16    17    1
    40    75    78    1
    41    75    74    1
    42    18    19    1
    43    95    96    1
    44   117   118    2
    45   117   116    1
    46    83    84    2
    47    83    82    1
    48    20    19    1
    49    20    21    2
    50    78    79    1
    51   104   103    1
    52   104   105    2
    53   115   116    1
    54    96    99    1
    55    22    19    1
    56    22    23    1
    57   103   106    1
    58    82    85    1
    59    66    65    2
    60    70    69    1
    61    99   100    1
    62    99   101    1
    63    25    23   ar
    64    25    27   ar
    65    74    65   am
    66   116   119    1
    67    23    24   ar
    68    65    64    1
    69    55    53   ar
    70    40    37    1
    71    29    30    1
    72    68    69    1
    73    68    67    1
    74    27    28   ar
    75    85    86    1
    76   119   120    1
    77    38    37    1
    78    38    39    2
    79    24    26   ar
    80    53    52    1
    81    53    54   ar
    82    36    37    1
    83    36    31   am
    84    28    26   ar
    85    67    64    1
    86    86    87    1
    87    52    49    1
    88    64    63    1
    89    30    31    1
    90    30    33    1
    91    31    32    2
    92   120   121    1
    93   120   122    1
    94    34    33    1
    95    33    35    1
    96    87    88    1
    97    49    50    1
    98    49    48    1
    99    50    51    2
   100    48    43   am
   101    88    89    1
   102    41    42    1
   103    43    42    1
   104    43    44    2
   105    42    45    1
   106    45    47    1
   107    45    46    1
   108    61    60    1
   109    60    57    1
   110    60    62    1
   111    58    57    1
   112    58    59    2
   113    56    57    1
