@<TRIPOS>MOLECULE
tmp/5dhhA02.pdb
 87 84 0 0 0
SMALL
GASTEIGER

@<TRIPOS>ATOM
      1  N        -17.3440   31.6060  -15.4710 N.3    11  VAL11      -0.1245
      2  CA       -16.1080   31.9890  -16.1380 C.3    11  VAL11       0.1561
      3  C        -16.2730   33.3080  -16.8870 C.2    11  VAL11       0.2260
      4  O        -15.3170   34.0890  -17.0030 O.2    11  VAL11      -0.2867
      5  CB       -15.6520   30.8510  -17.0650 C.3    11  VAL11       0.0252
      6  CG1      -14.3900   31.2360  -17.7620 C.3    11  VAL11       0.0019
      7  CG2      -15.4380   29.5800  -16.2580 C.3    11  VAL11       0.0019
      8  N        -15.8100   35.7840  -14.3220 N.3    14  TYR14      -0.1227
      9  CA       -14.3750   35.8590  -14.0700 C.3    14  TYR14       0.1736
     10  C        -13.6800   36.7280  -15.1060 C.2    14  TYR14       0.2595
     11  O        -12.7950   37.5210  -14.7670 O.2    14  TYR14      -0.2718
     12  CB       -13.7700   34.4550  -14.0600 C.3    14  TYR14       0.0548
     13  CG       -13.9070   33.7270  -12.7430 C.ar   14  TYR14      -0.0200
     14  CD1      -14.7060   34.2320  -11.7230 C.ar   14  TYR14      -0.0009
     15  CD2      -13.2440   32.5290  -12.5220 C.ar   14  TYR14      -0.0009
     16  CE1      -14.8320   33.5640  -10.5190 C.ar   14  TYR14       0.0417
     17  CE2      -13.3660   31.8550  -11.3250 C.ar   14  TYR14       0.0417
     18  CZ       -14.1600   32.3760  -10.3270 C.ar   14  TYR14       0.1957
     19  OH       -14.2810   31.7060   -9.1330 O.3    14  TYR14      -0.2866
     20  N        -14.0710   36.5960  -16.3760 N.am   15  LEU15      -0.1980
     21  CA       -13.4630   37.4010  -17.4320 C.3    15  LEU15       0.1596
     22  C        -13.7270   38.8840  -17.2140 C.2    15  LEU15       0.2287
     23  O        -12.8080   39.7070  -17.2960 O.2    15  LEU15      -0.2864
     24  CB       -13.9840   36.9570  -18.7980 C.3    15  LEU15       0.0297
     25  CG       -13.1700   35.8670  -19.4930 C.3    15  LEU15       0.0022
     26  CD1      -13.7700   35.5510  -20.8490 C.3    15  LEU15       0.0001
     27  CD2      -11.7230   36.3090  -19.6310 C.3    15  LEU15       0.0001
     28  N         -7.1780   34.2540  -12.1600 N.3    60  LEU60      -0.1231
     29  CA        -8.5410   33.9170  -12.5660 C.3    60  LEU60       0.1678
     30  C         -8.6570   33.2230  -13.9250 C.2    60  LEU60       0.2434
     31  O         -9.5380   32.3540  -14.0530 O.2    60  LEU60      -0.2733
     32  CB        -9.4220   35.1740  -12.5440 C.3    60  LEU60       0.0284
     33  CG        -9.8210   35.6860  -11.1630 C.3    60  LEU60       0.0019
     34  CD1      -10.9270   36.7300  -11.2820 C.3    60  LEU60       0.0001
     35  CD2      -10.2250   34.5350  -10.2630 C.3    60  LEU60       0.0001
     36  N         -7.8720   33.5580  -14.9580 N.am   61  PRO61      -0.2729
     37  CA        -7.9470   32.7610  -16.1920 C.3    61  PRO61       0.1401
     38  C         -7.6990   31.2830  -15.9670 C.2    61  PRO61       0.2269
     39  O         -8.3770   30.4450  -16.5710 O.2    61  PRO61      -0.2865
     40  CB        -6.8490   33.3870  -17.0590 C.3    61  PRO61       0.0296
     41  CG        -6.9160   34.8120  -16.6980 C.3    61  PRO61       0.0237
     42  CD        -7.1160   34.8040  -15.1900 C.3    61  PRO61       0.0939
     43  N        -10.4760   29.6430  -14.0620 N.3    64  GLY64      -0.1210
     44  CA       -11.6160   29.4760  -14.9500 C.3    64  GLY64       0.1956
     45  C        -11.4760   28.2810  -15.8730 C.2    64  GLY64       0.2612
     46  O        -12.4140   27.4950  -16.0380 O.2    64  GLY64      -0.2717
     47  N        -10.3070   28.1360  -16.5050 N.am   65  THR65      -0.1952
     48  CA       -10.0560   26.9360  -17.2980 C.3    65  THR65       0.1897
     49  C        -10.2360   25.6890  -16.4530 C.2    65  THR65       0.2313
     50  O        -10.8190   24.6970  -16.9070 O.2    65  THR65      -0.2863
     51  CB        -8.6450   26.9470  -17.8830 C.3    65  THR65       0.1794
     52  OG1       -7.6960   26.8540  -16.8160 O.3    65  THR65      -0.2208
     53  CG2       -8.3810   28.1950  -18.6770 C.3    65  THR65       0.0378
     54  N        -13.9380   25.0210  -15.9490 N.3    68  LEU68      -0.1231
     55  CA       -14.5360   24.4840  -17.1670 C.3    68  LEU68       0.1693
     56  C        -14.1630   23.0200  -17.3580 C.2    68  LEU68       0.2591
     57  O        -15.0330   22.1530  -17.5030 O.2    68  LEU68      -0.2718
     58  CB       -14.0860   25.3090  -18.3730 C.3    68  LEU68       0.0284
     59  CG       -14.7060   26.6950  -18.5410 C.3    68  LEU68       0.0019
     60  CD1      -14.2810   27.2970  -19.8680 C.3    68  LEU68       0.0001
     61  CD2      -16.2160   26.6090  -18.4490 C.3    68  LEU68       0.0001
     62  N        -12.8630   22.7280  -17.3540 N.am   69  LEU69      -0.1980
     63  CA       -12.4010   21.3720  -17.6280 C.3    69  LEU69       0.1596
     64  C        -12.7840   20.4030  -16.5170 C.2    69  LEU69       0.2287
     65  O        -12.9220   19.2010  -16.7700 O.2    69  LEU69      -0.2864
     66  CB       -10.8870   21.3750  -17.8260 C.3    69  LEU69       0.0297
     67  CG       -10.3790   22.1650  -19.0310 C.3    69  LEU69       0.0022
     68  CD1       -8.8630   22.1550  -19.0770 C.3    69  LEU69       0.0001
     69  CD2      -10.9550   21.5870  -20.3080 C.3    69  LEU69       0.0001
     70  N        -10.7460   19.8480  -14.0160 N.3    71  PHE71      -0.1241
     71  CA        -9.4880   19.3720  -13.4560 C.3    71  PHE71       0.1605
     72  C         -8.4170   20.4350  -13.6810 C.2    71  PHE71       0.2264
     73  O         -8.6410   21.4340  -14.3700 O.2    71  PHE71      -0.2867
     74  CB        -9.0750   18.0240  -14.0690 C.3    71  PHE71       0.0534
     75  CG        -8.6510   18.1110  -15.5090 C.ar   71  PHE71      -0.0203
     76  CD1       -9.5970   18.1720  -16.5190 C.ar   71  PHE71      -0.0042
     77  CD2       -7.3080   18.1340  -15.8530 C.ar   71  PHE71      -0.0042
     78  CE1       -9.2130   18.2530  -17.8430 C.ar   71  PHE71      -0.0003
     79  CE2       -6.9180   18.2180  -17.1780 C.ar   71  PHE71      -0.0003
     80  CZ        -7.8730   18.2770  -18.1730 C.ar   71  PHE71      -0.0000
     81  N         -4.9180   21.3210  -15.3380 N.3    73  PRO73      -0.2116
     82  CA        -4.0540   20.7820  -16.3950 C.3    73  PRO73       0.1372
     83  C         -2.6750   21.4210  -16.4680 C.2    73  PRO73       0.2244
     84  O         -1.8480   21.0010  -17.2830 O.2    73  PRO73      -0.2868
     85  CB        -4.8620   21.0860  -17.6570 C.3    73  PRO73       0.0268
     86  CG        -5.4770   22.4280  -17.3350 C.3    73  PRO73       0.0207
     87  CD        -5.7580   22.4250  -15.8370 C.3    73  PRO73       0.0892
@<TRIPOS>BOND
     1    26    25    1
     2    69    67    1
     3    60    59    1
     4    27    25    1
     5    25    24    1
     6    68    67    1
     7    67    66    1
     8    24    21    1
     9    53    51    1
    10    59    61    1
    11    59    58    1
    12    58    55    1
    13    80    78   ar
    14    80    79   ar
    15    51    48    1
    16    51    52    1
    17    78    76   ar
    18    66    63    1
    19     6     5    1
    20    85    86    1
    21    85    82    1
    22    63    62    1
    23    63    64    1
    24    57    56    2
    25    21    22    1
    26    21    20    1
    27    56    62   am
    28    56    55    1
    29    86    87    1
    30    48    47    1
    31    48    49    1
    32    23    22    2
    33    84    83    2
    34    79    77   ar
    35    55    54    1
    36     5     7    1
    37     5     2    1
    38    40    41    1
    39    40    37    1
    40     4     3    2
    41    50    49    2
    42     3     2    1
    43    65    64    2
    44    41    42    1
    45    39    38    2
    46    76    75   ar
    47    47    45   am
    48    83    82    1
    49    82    81    1
    50    20    10   am
    51    37    38    1
    52    37    36    1
    53     2     1    1
    54    46    45    2
    55    45    44    1
    56    77    75   ar
    57    87    81    1
    58    75    74    1
    59    42    36    1
    60    10    11    2
    61    10     9    1
    62    36    30   am
    63    44    43    1
    64    73    72    2
    65     8     9    1
    66     9    12    1
    67    74    71    1
    68    12    13    1
    69    31    30    2
    70    70    71    1
    71    30    29    1
    72    72    71    1
    73    13    15   ar
    74    13    14   ar
    75    29    32    1
    76    29    28    1
    77    32    33    1
    78    15    17   ar
    79    14    16   ar
    80    17    18   ar
    81    34    33    1
    82    33    35    1
    83    16    18   ar
    84    18    19    1
