@<TRIPOS>MOLECULE
tmp/5dhhB02.pdb
 209 201 0 0 0
SMALL
GASTEIGER

@<TRIPOS>ATOM
      1  N        -21.0340   38.3860  -25.4300 N.3   119  TYR119     -0.1241
      2  CA       -19.6130   38.3070  -25.7530 C.3   119  TYR119      0.1605
      3  C        -18.8680   37.4500  -24.7410 C.2   119  TYR119      0.2264
      4  O        -17.9850   36.6690  -25.1100 O.2   119  TYR119     -0.2867
      5  CB       -19.0040   39.7070  -25.8080 C.3   119  TYR119      0.0534
      6  CG       -19.1960   40.4120  -27.1290 C.ar  119  TYR119     -0.0201
      7  CD1      -20.1180   39.9470  -28.0600 C.ar  119  TYR119     -0.0009
      8  CD2      -18.4590   41.5430  -27.4450 C.ar  119  TYR119     -0.0009
      9  CE1      -20.2970   40.5920  -29.2680 C.ar  119  TYR119      0.0417
     10  CE2      -18.6300   42.1930  -28.6490 C.ar  119  TYR119      0.0417
     11  CZ       -19.5510   41.7130  -29.5560 C.ar  119  TYR119      0.1957
     12  OH       -19.7240   42.3580  -30.7570 O.3   119  TYR119     -0.2866
     13  N        -13.5320   44.3460  -26.6690 N.3   168  GLN168     -0.1245
     14  CA       -14.6060   44.9470  -27.4480 C.3   168  GLN168      0.1566
     15  C        -15.8180   45.2400  -26.5770 C.2   168  GLN168      0.2260
     16  O        -16.4320   46.3070  -26.6930 O.2   168  GLN168     -0.2867
     17  CB       -14.9950   44.0040  -28.5790 C.3   168  GLN168      0.0367
     18  CG       -13.9330   43.7930  -29.6220 C.3   168  GLN168      0.0905
     19  CD       -14.5170   43.2580  -30.9070 C.2   168  GLN168      0.2608
     20  OE1      -15.5680   43.7060  -31.3620 O.2   168  GLN168     -0.2717
     21  NE2      -13.8310   42.2920  -31.5050 N.am  168  GLN168     -0.0878
     22  N        -15.4070   48.1720  -24.4360 N.3   171  ASP171     -0.1225
     23  CA       -15.5030   49.3350  -25.3130 C.3   171  ASP171      0.1805
     24  C        -16.9560   49.7010  -25.5820 C.2   171  ASP171      0.2597
     25  O        -17.3060   50.8860  -25.6490 O.2   171  ASP171     -0.2718
     26  CB       -14.7640   49.0570  -26.6230 C.3   171  ASP171      0.1424
     27  CG       -14.9680   50.1460  -27.6550 C.2   171  ASP171      0.3668
     28  OD1      -15.9850   50.0970  -28.3780 O.co2 171  ASP171     -0.2456
     29  OD2      -14.1060   51.0420  -27.7560 O.co2 171  ASP171     -0.2456
     30  N        -17.8170   48.6950  -25.7420 N.am  172  ILE172     -0.1980
     31  CA       -19.2370   48.9520  -25.9560 C.3   172  ILE172      0.1595
     32  C        -19.8560   49.5740  -24.7120 C.2   172  ILE172      0.2287
     33  O        -20.6300   50.5350  -24.8000 O.2   172  ILE172     -0.2864
     34  CB       -19.9520   47.6490  -26.3570 C.3   172  ILE172      0.0276
     35  CG1      -19.3990   47.1160  -27.6790 C.3   172  ILE172      0.0022
     36  CG2      -21.4470   47.8710  -26.4730 C.3   172  ILE172      0.0022
     37  CD1      -19.8980   45.7310  -28.0270 C.3   172  ILE172      0.0001
     38  N        -12.7700   53.6590  -26.3420 N.3   177  TRP177     -0.1241
     39  CA       -11.7480   52.6190  -26.3100 C.3   177  TRP177      0.1605
     40  C        -10.7210   52.9020  -25.2230 C.2   177  TRP177      0.2264
     41  O         -9.9580   53.8690  -25.3430 O.2   177  TRP177     -0.2867
     42  CB       -11.0640   52.4860  -27.6670 C.3   177  TRP177      0.0550
     43  CG       -10.0440   51.3940  -27.6900 C.ar  177  TRP177      0.0003
     44  CD1       -8.6920   51.5440  -27.5900 C.ar  177  TRP177      0.0946
     45  CD2      -10.2860   49.9840  -27.7570 C.ar  177  TRP177      0.0152
     46  NE1       -8.0750   50.3190  -27.6230 N.ar  177  TRP177     -0.2442
     47  CE2       -9.0310   49.3430  -27.7210 C.ar  177  TRP177      0.0810
     48  CE3      -11.4410   49.2000  -27.8580 C.ar  177  TRP177      0.0012
     49  CZ2       -8.8970   47.9580  -27.7830 C.ar  177  TRP177      0.0191
     50  CZ3      -11.3050   47.8220  -27.9180 C.ar  177  TRP177      0.0001
     51  CH2      -10.0430   47.2170  -27.8810 C.ar  177  TRP177      0.0015
     52  N         -6.2850   44.2770  -32.0590 N.3   187  VAL187     -0.1231
     53  CA        -7.6740   43.8690  -32.2600 C.3   187  VAL187      0.1692
     54  C         -8.0440   43.9440  -33.7340 C.2   187  VAL187      0.2591
     55  O         -8.5670   42.9840  -34.3140 O.2   187  VAL187     -0.2718
     56  CB        -8.6150   44.7360  -31.4040 C.3   187  VAL187      0.0266
     57  CG1      -10.0490   44.6140  -31.8940 C.3   187  VAL187      0.0020
     58  CG2       -8.5080   44.3420  -29.9420 C.3   187  VAL187      0.0020
     59  N         -7.7760   45.0900  -34.3610 N.am  188  ILE188     -0.1980
     60  CA        -8.1600   45.2900  -35.7550 C.3   188  ILE188      0.1595
     61  C         -7.4770   44.2600  -36.6440 C.2   188  ILE188      0.2287
     62  O         -8.1260   43.5800  -37.4470 O.2   188  ILE188     -0.2864
     63  CB        -7.8220   46.7190  -36.2070 C.3   188  ILE188      0.0276
     64  CG1       -8.6200   47.7590  -35.4280 C.3   188  ILE188      0.0022
     65  CG2       -8.1950   46.8770  -37.6330 C.3   188  ILE188      0.0022
     66  CD1       -8.3920   49.1700  -35.9520 C.3   188  ILE188      0.0001
     67  N         -8.9260   40.9260  -36.3570 N.3   191  ASP191     -0.1225
     68  CA       -10.2340   40.8140  -36.9920 C.3   191  ASP191      0.1805
     69  C        -10.1080   40.5890  -38.4930 C.2   191  ASP191      0.2597
     70  O        -10.7410   39.6840  -39.0500 O.2   191  ASP191     -0.2718
     71  CB       -11.0660   42.0630  -36.7090 C.3   191  ASP191      0.1424
     72  CG       -12.5470   41.7830  -36.7340 C.2   191  ASP191      0.3668
     73  OD1      -12.9570   40.7940  -37.3780 O.co2 191  ASP191     -0.2456
     74  OD2      -13.3000   42.5430  -36.0990 O.co2 191  ASP191     -0.2456
     75  N         -9.3080   41.4170  -39.1710 N.am  192  TYR192     -0.1976
     76  CA        -9.1320   41.2480  -40.6100 C.3   192  TYR192      0.1639
     77  C         -8.4480   39.9270  -40.9200 C.2   192  TYR192      0.2290
     78  O         -8.8520   39.2090  -41.8430 O.2   192  TYR192     -0.2864
     79  CB        -8.3340   42.4160  -41.1800 C.3   192  TYR192      0.0560
     80  CG        -9.1600   43.6640  -41.3650 C.ar  192  TYR192     -0.0198
     81  CD1       -9.3820   44.5330  -40.3060 C.ar  192  TYR192     -0.0009
     82  CD2       -9.7290   43.9690  -42.5950 C.ar  192  TYR192     -0.0009
     83  CE1      -10.1390   45.6740  -40.4660 C.ar  192  TYR192      0.0417
     84  CE2      -10.4910   45.1100  -42.7640 C.ar  192  TYR192      0.0417
     85  CZ       -10.6910   45.9570  -41.6960 C.ar  192  TYR192      0.1957
     86  OH       -11.4460   47.0950  -41.8560 O.3   192  TYR192     -0.2866
     87  N        -11.1770   37.2830  -40.7690 N.3   195  MET195     -0.1230
     88  CA       -12.0560   37.2010  -41.9310 C.3   195  MET195      0.1702
     89  C        -11.3550   36.5360  -43.1090 C.2   195  MET195      0.2592
     90  O        -11.8580   35.5580  -43.6760 O.2   195  MET195     -0.2718
     91  CB       -12.5410   38.5980  -42.3210 C.3   195  MET195      0.0401
     92  CG       -13.6430   38.5920  -43.3660 C.3   195  MET195      0.0596
     93  SD       -15.1930   37.9050  -42.7500 S.3   195  MET195     -0.1393
     94  CE       -15.4240   38.9150  -41.2930 C.3   195  MET195      0.0692
     95  N        -10.1840   37.0550  -43.4870 N.am  196  PHE196     -0.1976
     96  CA        -9.4880   36.5520  -44.6690 C.3   196  PHE196      0.1639
     97  C         -9.0010   35.1230  -44.4680 C.2   196  PHE196      0.2290
     98  O         -9.1750   34.2720  -45.3450 O.2   196  PHE196     -0.2864
     99  CB        -8.3260   37.4780  -45.0220 C.3   196  PHE196      0.0560
    100  CG        -8.7330   38.6800  -45.8230 C.ar  196  PHE196     -0.0200
    101  CD1       -8.8020   38.6130  -47.2050 C.ar  196  PHE196     -0.0042
    102  CD2       -9.0670   39.8700  -45.2000 C.ar  196  PHE196     -0.0042
    103  CE1       -9.1730   39.7170  -47.9500 C.ar  196  PHE196     -0.0003
    104  CE2       -9.4490   40.9750  -45.9390 C.ar  196  PHE196     -0.0003
    105  CZ        -9.4960   40.9010  -47.3140 C.ar  196  PHE196     -0.0000
    106  N        -12.0730   56.0670  -30.1280 N.3   258  GLU258     -0.1231
    107  CA       -12.6310   54.8240  -30.6550 C.3   258  GLU258      0.1699
    108  C        -11.6490   54.2030  -31.6500 C.2   258  GLU258      0.2592
    109  O        -10.9920   54.9160  -32.4130 O.2   258  GLU258     -0.2718
    110  CB       -13.9900   55.0620  -31.3260 C.3   258  GLU258      0.0402
    111  CG       -14.6490   53.8270  -31.9050 C.3   258  GLU258      0.1161
    112  CD       -15.3110   52.9520  -30.8620 C.2   258  GLU258      0.3649
    113  OE1      -15.2250   53.2690  -29.6570 O.co2 258  GLU258     -0.2457
    114  OE2      -15.9290   51.9360  -31.2470 O.co2 258  GLU258     -0.2457
    115  N        -11.5720   52.8660  -31.6390 N.am  259  CYS259     -0.1956
    116  CA       -10.6600   52.0830  -32.4780 C.3   259  CYS259      0.1843
    117  C        -11.2290   51.8920  -33.8800 C.2   259  CYS259      0.2625
    118  O        -12.3400   51.3700  -34.0360 O.2   259  CYS259     -0.2714
    119  CB       -10.4070   50.7170  -31.8340 C.3   259  CYS259      0.0997
    120  SG        -9.1230   49.6620  -32.5570 S.3   259  CYS259     -0.0797
    121  N        -10.4590   52.2790  -34.8980 N.am  260  LEU260     -0.1977
    122  CA       -10.9130   52.1920  -36.2820 C.3   260  LEU260      0.1596
    123  C         -9.7350   52.3990  -37.2310 C.2   260  LEU260      0.2287
    124  O         -8.6870   52.9260  -36.8460 O.2   260  LEU260     -0.2864
    125  CB       -12.0250   53.2080  -36.5610 C.3   260  LEU260      0.0297
    126  CG       -11.7390   54.6880  -36.2720 C.3   260  LEU260      0.0022
    127  CD1      -11.0670   55.4020  -37.4390 C.3   260  LEU260      0.0001
    128  CD2      -13.0300   55.3890  -35.8820 C.3   260  LEU260      0.0001
    129  N        -12.3760   44.8760  -50.4440 N.3   278  ILE278     -0.1245
    130  CA       -12.5150   43.9970  -49.2870 C.3   278  ILE278      0.1561
    131  C        -13.7130   43.0750  -49.4720 C.2   278  ILE278      0.2260
    132  O        -13.6300   41.8620  -49.2480 O.2   278  ILE278     -0.2867
    133  CB       -12.6360   44.8250  -47.9940 C.3   278  ILE278      0.0252
    134  CG1      -11.3010   45.4920  -47.6490 C.3   278  ILE278      0.0019
    135  CG2      -13.0810   43.9530  -46.8470 C.3   278  ILE278      0.0019
    136  CD1      -10.1660   44.5240  -47.4250 C.3   278  ILE278      0.0001
    137  N        -12.3350   39.3130  -49.7360 N.3   282  SER282     -0.1217
    138  CA       -12.4960   38.6320  -48.4580 C.3   282  SER282      0.1889
    139  C        -13.6890   37.6910  -48.4420 C.2   282  SER282      0.2288
    140  O        -13.6480   36.6720  -47.7490 O.2   282  SER282     -0.2866
    141  CB       -12.6500   39.6450  -47.3200 C.3   282  SER282      0.2089
    142  OG       -13.9290   40.2550  -47.3560 O.3   282  SER282     -0.2183
    143  N        -22.0800   35.9870  -41.3310 N.3   329  TRP329     -0.1241
    144  CA       -21.2490   37.1180  -41.7190 C.3   329  TRP329      0.1605
    145  C        -21.7790   37.9070  -42.9100 C.2   329  TRP329      0.2264
    146  O        -21.2240   38.9660  -43.2190 O.2   329  TRP329     -0.2867
    147  CB       -19.8200   36.6440  -42.0290 C.3   329  TRP329      0.0550
    148  CG       -18.9950   36.3670  -40.8020 C.ar  329  TRP329      0.0003
    149  CD1      -18.6070   35.1440  -40.3360 C.ar  329  TRP329      0.0946
    150  CD2      -18.4800   37.3310  -39.8740 C.ar  329  TRP329      0.0152
    151  NE1      -17.8680   35.2880  -39.1860 N.ar  329  TRP329     -0.2442
    152  CE2      -17.7790   36.6200  -38.8800 C.ar  329  TRP329      0.0810
    153  CE3      -18.5420   38.7260  -39.7880 C.ar  329  TRP329      0.0012
    154  CZ2      -17.1420   37.2550  -37.8150 C.ar  329  TRP329      0.0191
    155  CZ3      -17.9060   39.3550  -38.7310 C.ar  329  TRP329      0.0001
    156  CH2      -17.2170   38.6200  -37.7590 C.ar  329  TRP329      0.0015
    157  N        -23.2360   41.5970  -41.9190 N.3   332  VAL332     -0.1231
    158  CA       -22.1000   42.4610  -41.5960 C.3   332  VAL332      0.1692
    159  C        -21.3870   42.9060  -42.8670 C.2   332  VAL332      0.2591
    160  O        -21.1840   44.1040  -43.1020 O.2   332  VAL332     -0.2718
    161  CB       -21.1340   41.7430  -40.6370 C.3   332  VAL332      0.0266
    162  CG1      -20.1700   42.7370  -40.0080 C.3   332  VAL332      0.0020
    163  CG2      -21.9120   40.9920  -39.5710 C.3   332  VAL332      0.0020
    164  N        -20.9950   41.9400  -43.7040 N.am  333  GLN333     -0.1979
    165  CA       -20.3780   42.2330  -44.9950 C.3   333  GLN333      0.1601
    166  C        -21.1420   43.3110  -45.7560 C.2   333  GLN333      0.2287
    167  O        -20.5950   44.3730  -46.0760 O.2   333  GLN333     -0.2864
    168  CB       -20.2900   40.9510  -45.8310 C.3   333  GLN333      0.0394
    169  CG       -19.2390   39.9380  -45.3800 C.3   333  GLN333      0.0908
    170  CD       -17.8220   40.3640  -45.7120 C.2   333  GLN333      0.2608
    171  OE1      -17.6010   41.4130  -46.3140 O.2   333  GLN333     -0.2717
    172  NE2      -16.8530   39.5300  -45.3460 N.am  333  GLN333     -0.0878
    173  N        -21.1310   46.8040  -43.9680 N.3   336  VAL336     -0.1245
    174  CA       -19.8370   47.4710  -44.0690 C.3   336  VAL336      0.1561
    175  C        -19.6230   48.0000  -45.4790 C.2   336  VAL336      0.2260
    176  O        -19.1240   49.1160  -45.6740 O.2   336  VAL336     -0.2867
    177  CB       -18.7120   46.5080  -43.6510 C.3   336  VAL336      0.0252
    178  CG1      -17.3440   47.1190  -43.9440 C.3   336  VAL336      0.0019
    179  CG2      -18.8530   46.1290  -42.1830 C.3   336  VAL336      0.0019
    180  N        -24.8530   46.3040  -34.3930 N.3   355  ARG355     -0.1245
    181  CA       -24.2260   45.6660  -33.2380 C.3   355  ARG355      0.1563
    182  C        -24.5510   44.1800  -33.1850 C.2   355  ARG355      0.2260
    183  O        -23.6570   43.3360  -33.0590 O.2   355  ARG355     -0.2867
    184  CB       -24.6940   46.3480  -31.9550 C.3   355  ARG355      0.0307
    185  CG       -24.2570   47.7900  -31.7850 C.3   355  ARG355      0.0489
    186  CD       -22.7810   47.9070  -31.4900 C.3   355  ARG355      0.2205
    187  NE       -22.4230   49.2910  -31.2040 N.pl3 355  ARG355     -0.0865
    188  CZ       -21.1820   49.7110  -30.9970 C.cat 355  ARG355      0.5346
    189  NH1      -20.1760   48.8490  -31.0420 N.pl3 355  ARG355      0.1354
    190  NH2      -20.9480   50.9900  -30.7370 N.pl3 355  ARG355      0.1354
    191  N        -22.9800   42.2120  -35.9730 N.3   358  THR358     -0.1218
    192  CA       -21.5810   42.0000  -35.6210 C.3   358  THR358      0.1862
    193  C        -21.4440   40.8730  -34.6050 C.2   358  THR358      0.2287
    194  O        -20.5490   40.0260  -34.7180 O.2   358  THR358     -0.2866
    195  CB       -20.9770   43.2850  -35.0590 C.3   358  THR358      0.1770
    196  OG1      -21.1490   44.3490  -36.0040 O.3   358  THR358     -0.2211
    197  CG2      -19.4980   43.1000  -34.8100 C.3   358  THR358      0.0375
    198  N        -19.5300   36.9180  -34.6160 N.3   362  TYR362     -0.1241
    199  CA       -18.6290   36.4600  -33.5630 C.3   362  TYR362      0.1605
    200  C        -19.1230   35.1730  -32.9230 C.2   362  TYR362      0.2264
    201  O        -18.3130   34.3640  -32.4560 O.2   362  TYR362     -0.2867
    202  CB       -18.4570   37.5440  -32.5060 C.3   362  TYR362      0.0534
    203  CG       -17.5400   38.6300  -32.9860 C.ar  362  TYR362     -0.0201
    204  CD1      -16.4670   38.3270  -33.8180 C.ar  362  TYR362     -0.0009
    205  CD2      -17.7470   39.9500  -32.6410 C.ar  362  TYR362     -0.0009
    206  CE1      -15.6260   39.3140  -34.2770 C.ar  362  TYR362      0.0417
    207  CE2      -16.9090   40.9420  -33.0950 C.ar  362  TYR362      0.0417
    208  CZ       -15.8490   40.6160  -33.9130 C.ar  362  TYR362      0.1957
    209  OH       -15.0070   41.5990  -34.3720 O.3   362  TYR362     -0.2866
@<TRIPOS>BOND
     1   129   130    1
     2   137   138    1
     3   131   130    1
     4   131   132    2
     5   130   133    1
     6   138   139    1
     7   138   141    1
     8   139   140    2
     9   133   134    1
    10   133   135    1
    11   103   105   ar
    12   103   101   ar
    13   134   136    1
    14   142   141    1
    15   105   104   ar
    16   101   100   ar
    17   171   170    2
    18   167   166    2
    19   104   102   ar
    20   168   169    1
    21   168   165    1
    22   100   102   ar
    23   100    99    1
    24   166   165    1
    25   170   169    1
    26   170   172   am
    27   176   175    2
    28   175   174    1
    29    98    97    2
    30    99    96    1
    31   165   164    1
    32    96    97    1
    33    96    95    1
    34   174   173    1
    35   174   177    1
    36   178   177    1
    37   164   159   am
    38    90    89    2
    39   177   179    1
    40    95    89   am
    41    92    93    1
    42    92    91    1
    43   146   145    2
    44    89    88    1
    45   160   159    2
    46   145   144    1
    47   159   158    1
    48    84    82   ar
    49    84    85   ar
    50    93    94    1
    51    82    80   ar
    52    91    88    1
    53   147   144    1
    54   147   148    1
    55    88    87    1
    56   157   158    1
    57    86    85    1
    58    78    77    2
    59   144   143    1
    60    85    83   ar
    61   158   161    1
    62    80    79    1
    63    80    81   ar
    64    79    76    1
    65    77    76    1
    66   148   149   ar
    67   148   150   ar
    68   161   162    1
    69   161   163    1
    70    76    75    1
    71    83    81   ar
    72   149   151   ar
    73   150   153   ar
    74   150   152   ar
    75   153   155   ar
    76   151   152   ar
    77    75    69   am
    78    70    69    2
    79   152   154   ar
    80   155   156   ar
    81    69    68    1
    82   154   156   ar
    83    65    63    1
    84    62    61    2
    85   127   126    1
    86    73    72   ar
    87   123   124    2
    88   123   122    1
    89    68    71    1
    90    68    67    1
    91    72    71    1
    92    72    74   ar
    93    61    60    1
    94   125   122    1
    95   125   126    1
    96   122   121    1
    97   126   128    1
    98    63    60    1
    99    63    64    1
   100   196   195    1
   101   191   192    1
   102    66    64    1
   103    60    59    1
   104   192   195    1
   105   192   193    1
   106   195   197    1
   107   121   117   am
   108   194   193    2
   109   198   199    1
   110   180   181    1
   111   209   208    1
   112    59    54   am
   113    55    54    2
   114   206   208   ar
   115   206   204   ar
   116   118   117    2
   117   208   207   ar
   118   117   116    1
   119   204   203   ar
   120    54    53    1
   121   199   200    1
   122   199   202    1
   123   181   182    1
   124   181   184    1
   125   182   183    2
   126   207   205   ar
   127   203   205   ar
   128   203   202    1
   129   200   201    2
   130   120   119    1
   131   116   119    1
   132   116   115    1
   133   109   108    2
   134    53    52    1
   135    53    56    1
   136   184   185    1
   137   111   110    1
   138   111   112    1
   139    57    56    1
   140   185   186    1
   141   108   115   am
   142   108   107    1
   143    21    19   am
   144   186   187    1
   145    56    58    1
   146    20    19    2
   147   110   107    1
   148   114   112   ar
   149   187   188    2
   150   189   188    1
   151   188   190    1
   152    19    18    1
   153   112   113   ar
   154    12    11    1
   155   107   106    1
   156    18    17    1
   157    11     9   ar
   158    11    10   ar
   159     9     7   ar
   160    10     8   ar
   161    17    14    1
   162    28    27   ar
   163     7     6   ar
   164    37    35    1
   165    50    51   ar
   166    50    48   ar
   167    51    49   ar
   168    48    45   ar
   169    49    47   ar
   170    45    47   ar
   171    45    43   ar
   172    29    27   ar
   173    47    46   ar
   174    43    42    1
   175    43    44   ar
   176    35    34    1
   177    42    39    1
   178    27    26    1
   179    46    44   ar
   180    14    13    1
   181    14    15    1
   182     8     6   ar
   183     6     5    1
   184    16    15    2
   185    26    23    1
   186    36    34    1
   187    34    31    1
   188    38    39    1
   189    39    40    1
   190    31    30    1
   191    31    32    1
   192     5     2    1
   193     2     1    1
   194     2     3    1
   195    30    24   am
   196    25    24    2
   197    24    23    1
   198    41    40    2
   199    23    22    1
   200     4     3    2
   201    33    32    2
