@<TRIPOS>MOLECULE
tmp/5dhhB03.pdb
 110 102 0 0 0
SMALL
GASTEIGER

@<TRIPOS>ATOM
      1  N         -5.8130   16.4760  -43.6390 N.3   146  ALA146     -0.1245
      2  CA        -5.7990   17.7780  -44.3020 C.3   146  ALA146      0.1562
      3  C         -7.0140   18.6120  -43.9120 C.2   146  ALA146      0.2260
      4  O         -6.8870   19.7820  -43.5310 O.2   146  ALA146     -0.2867
      5  CB        -5.7330   17.5930  -45.8190 C.3   146  ALA146      0.0290
      6  N         -6.8580   22.2350  -41.8260 N.3   150  TYR150     -0.1241
      7  CA        -7.5690   23.4640  -42.1490 C.3   150  TYR150      0.1605
      8  C         -8.5180   23.8490  -41.0220 C.2   150  TYR150      0.2264
      9  O         -8.6130   25.0260  -40.6480 O.2   150  TYR150     -0.2867
     10  CB        -8.3340   23.2780  -43.4550 C.3   150  TYR150      0.0534
     11  CG        -7.4630   22.9230  -44.6420 C.ar  150  TYR150     -0.0201
     12  CD1       -6.2460   23.5610  -44.8550 C.ar  150  TYR150     -0.0009
     13  CD2       -7.8490   21.9350  -45.5380 C.ar  150  TYR150     -0.0009
     14  CE1       -5.4480   23.2320  -45.9370 C.ar  150  TYR150      0.0417
     15  CE2       -7.0580   21.5970  -46.6190 C.ar  150  TYR150      0.0417
     16  CZ        -5.8570   22.2500  -46.8140 C.ar  150  TYR150      0.1957
     17  OH        -5.0630   21.9210  -47.8880 O.3   150  TYR150     -0.2866
     18  N        -12.0820   27.9780  -48.4240 N.3   203  THR203     -0.1203
     19  CA       -11.8300   27.7180  -49.8370 C.3   203  THR203      0.1994
     20  C        -10.9210   26.5100  -50.0130 C.2   203  THR203      0.2617
     21  O        -11.2240   25.5960  -50.7900 O.2   203  THR203     -0.2717
     22  CB       -11.2110   28.9490  -50.4970 C.3   203  THR203      0.1784
     23  OG1      -12.1300   30.0430  -50.4230 O.3   203  THR203     -0.2211
     24  CG2      -10.8850   28.6620  -51.9470 C.3   203  THR203      0.0376
     25  N         -9.7990   26.4880  -49.2890 N.am  204  ALA204     -0.1979
     26  CA        -8.8770   25.3610  -49.3700 C.3   204  ALA204      0.1597
     27  C         -9.5600   24.0610  -48.9650 C.2   204  ALA204      0.2287
     28  O         -9.2970   23.0040  -49.5520 O.2   204  ALA204     -0.2864
     29  CB        -7.6520   25.6220  -48.4940 C.3   204  ALA204      0.0319
     30  N        -11.7170   22.9890  -52.0400 N.3   207  VAL207     -0.1231
     31  CA       -10.8730   22.4370  -53.0950 C.3   207  VAL207      0.1692
     32  C        -10.3590   21.0610  -52.6930 C.2   207  VAL207      0.2592
     33  O        -10.3260   20.1270  -53.5050 O.2   207  VAL207     -0.2718
     34  CB        -9.7140   23.4030  -53.4090 C.3   207  VAL207      0.0266
     35  CG1       -8.7880   22.8070  -54.4570 C.3   207  VAL207      0.0020
     36  CG2      -10.2530   24.7600  -53.8470 C.3   207  VAL207      0.0020
     37  N         -9.9590   20.9140  -51.4270 N.am  208  ASP208     -0.1974
     38  CA        -9.4850   19.6290  -50.9280 C.3   208  ASP208      0.1709
     39  C        -10.5750   18.5670  -51.0120 C.2   208  ASP208      0.2293
     40  O        -10.3150   17.4310  -51.4280 O.2   208  ASP208     -0.2864
     41  CB        -8.9910   19.7910  -49.4900 C.3   208  ASP208      0.1436
     42  CG        -8.4990   18.4960  -48.8930 C.2   208  ASP208      0.3671
     43  OD1       -7.2990   18.1870  -49.0480 O.co2 208  ASP208     -0.2456
     44  OD2       -9.3140   17.7850  -48.2690 O.co2 208  ASP208     -0.2456
     45  N        -10.7870   17.4540  -54.5480 N.3   211  VAL211     -0.1245
     46  CA        -9.7420   16.4810  -54.8470 C.3   211  VAL211      0.1561
     47  C        -10.1160   15.1130  -54.2880 C.2   211  VAL211      0.2260
     48  O         -9.8770   14.0780  -54.9220 O.2   211  VAL211     -0.2867
     49  CB        -8.3910   16.9760  -54.2940 C.3   211  VAL211      0.0252
     50  CG1       -7.3740   15.8430  -54.2460 C.3   211  VAL211      0.0019
     51  CG2       -7.8770   18.1400  -55.1300 C.3   211  VAL211      0.0019
     52  N         -1.8760   12.8620  -52.5670 N.3   222  VAL222     -0.1231
     53  CA        -2.0180   14.3190  -52.5600 C.3   222  VAL222      0.1692
     54  C         -2.4890   14.8290  -51.2020 C.2   222  VAL222      0.2592
     55  O         -2.0040   15.8570  -50.7120 O.2   222  VAL222     -0.2718
     56  CB        -2.9560   14.7760  -53.6960 C.3   222  VAL222      0.0266
     57  CG1       -3.0280   16.2800  -53.7370 C.3   222  VAL222      0.0020
     58  CG2       -2.3940   14.3370  -55.0340 C.3   222  VAL222      0.0020
     59  N         -3.4390   14.1370  -50.5720 N.am  223  ARG223     -0.1966
     60  CA        -4.1340   14.6810  -49.4010 C.3   223  ARG223      0.1729
     61  C         -3.4060   14.2700  -48.1250 C.2   223  ARG223      0.2616
     62  O         -3.8230   13.3750  -47.3910 O.2   223  ARG223     -0.2715
     63  CB        -5.5850   14.2200  -49.3990 C.3   223  ARG223      0.0348
     64  CG        -6.5010   15.0060  -50.3260 C.3   223  ARG223      0.0492
     65  CD        -7.9510   14.6680  -50.0200 C.3   223  ARG223      0.2205
     66  NE        -8.3760   15.2620  -48.7590 N.pl3 223  ARG223     -0.0865
     67  CZ        -8.7430   14.5540  -47.6940 C.cat 223  ARG223      0.5346
     68  NH1       -9.1060   15.1710  -46.5770 N.pl3 223  ARG223      0.1354
     69  NH2       -8.7340   13.2270  -47.7370 N.pl3 223  ARG223      0.1354
     70  N         -2.3010   14.9590  -47.8520 N.am  224  THR224     -0.1951
     71  CA        -1.4940   14.6800  -46.6730 C.3   224  THR224      0.1897
     72  C         -1.4140   15.8980  -45.7650 C.2   224  THR224      0.2313
     73  O         -1.5490   17.0430  -46.2100 O.2   224  THR224     -0.2863
     74  CB        -0.0830   14.2200  -47.0490 C.3   224  THR224      0.1794
     75  OG1        0.7200   15.3500  -47.4100 O.3   224  THR224     -0.2208
     76  CG2       -0.1420   13.2430  -48.1990 C.3   224  THR224      0.0378
     77  N          1.1630   18.8810  -46.6230 N.3   227  LYS227     -0.1231
     78  CA         0.7360   19.8080  -47.6650 C.3   227  LYS227      0.1693
     79  C         -0.2760   20.8100  -47.1240 C.2   227  LYS227      0.2591
     80  O         -0.2190   22.0020  -47.4500 O.2   227  LYS227     -0.2718
     81  CB         0.1300   19.0270  -48.8260 C.3   227  LYS227      0.0285
     82  CG         0.9410   17.8280  -49.2700 C.3   227  LYS227      0.0035
     83  CD         1.1800   17.8170  -50.7680 C.3   227  LYS227      0.0206
     84  CE         1.3460   16.3840  -51.2590 C.3   227  LYS227      0.1093
     85  NZ         2.0480   16.2920  -52.5680 N.3   227  LYS227     -0.1314
     86  N         -1.2140   20.3360  -46.2980 N.am  228  ALA228     -0.1980
     87  CA        -2.2020   21.2240  -45.6960 C.3   228  ALA228      0.1597
     88  C         -1.5370   22.2800  -44.8230 C.2   228  ALA228      0.2287
     89  O         -1.9700   23.4390  -44.8030 O.2   228  ALA228     -0.2864
     90  CB        -3.2130   20.4160  -44.8850 C.3   228  ALA228      0.0319
     91  N         -0.3850   24.9500  -47.0410 N.3   231  VAL231     -0.1245
     92  CA        -1.5100   25.7930  -47.4410 C.3   231  VAL231      0.1561
     93  C         -1.8080   26.8250  -46.3600 C.2   231  VAL231      0.2260
     94  O         -2.0070   28.0120  -46.6460 O.2   231  VAL231     -0.2867
     95  CB        -2.7470   24.9290  -47.7500 C.3   231  VAL231      0.0252
     96  CG1       -3.9490   25.8130  -48.0370 C.3   231  VAL231      0.0019
     97  CG2       -2.4680   24.0080  -48.9160 C.3   231  VAL231      0.0019
     98  N          0.5750   29.7070  -46.5120 N.3   234  ALA234     -0.1231
     99  CA         0.2250   30.6220  -47.5920 C.3   234  ALA234      0.1694
    100  C         -0.9900   31.4660  -47.2240 C.2   234  ALA234      0.2591
    101  O         -1.0500   32.6590  -47.5470 O.2   234  ALA234     -0.2718
    102  CB        -0.0340   29.8350  -48.8740 C.3   234  ALA234      0.0304
    103  N         -1.9610   30.8640  -46.5330 N.am  235  ILE235     -0.1980
    104  CA        -3.1860   31.5750  -46.1790 C.3   235  ILE235      0.1595
    105  C         -2.8740   32.7300  -45.2390 C.2   235  ILE235      0.2287
    106  O         -3.3260   33.8630  -45.4450 O.2   235  ILE235     -0.2864
    107  CB        -4.2030   30.5990  -45.5640 C.3   235  ILE235      0.0276
    108  CG1       -4.7470   29.6590  -46.6380 C.3   235  ILE235      0.0022
    109  CG2       -5.3400   31.3590  -44.9090 C.3   235  ILE235      0.0022
    110  CD1       -5.5870   28.5390  -46.0830 C.3   235  ILE235      0.0001
@<TRIPOS>BOND
     1    51    49    1
     2    58    56    1
     3    48    47    2
     4    46    45    1
     5    46    49    1
     6    46    47    1
     7    35    34    1
     8    49    50    1
     9    36    34    1
    10    57    56    1
    11    56    53    1
    12    33    32    2
    13    34    31    1
    14    31    32    1
    15    31    30    1
    16    32    37   am
    17    85    84    1
    18    52    53    1
    19    53    54    1
    20    24    22    1
    21    40    39    2
    22    37    38    1
    23    84    83    1
    24    54    55    2
    25    54    59   am
    26    39    38    1
    27    38    41    1
    28    21    20    2
    29    83    82    1
    30    59    60    1
    31    22    23    1
    32    22    19    1
    33    64    65    1
    34    64    63    1
    35    65    66    1
    36    20    19    1
    37    20    25   am
    38    19    18    1
    39    28    27    2
    40    41    42    1
    41    60    63    1
    42    60    61    1
    43    26    25    1
    44    26    27    1
    45    26    29    1
    46    82    81    1
    47    43    42   ar
    48    97    95    1
    49    42    44   ar
    50   102    99    1
    51    81    78    1
    52    66    67    2
    53    76    74    1
    54    61    70   am
    55    61    62    2
    56    96    95    1
    57    17    16    1
    58    70    71    1
    59    95    92    1
    60    69    67    1
    61    67    68    1
    62    78    79    1
    63    78    77    1
    64    99   100    1
    65    99    98    1
    66   101   100    2
    67    80    79    2
    68    92    91    1
    69    92    93    1
    70    75    74    1
    71   100   103   am
    72    79    86   am
    73    74    71    1
    74    16    15   ar
    75    16    14   ar
    76    71    72    1
    77    94    93    2
    78   108   110    1
    79   108   107    1
    80    15    13   ar
    81   103   104    1
    82    86    87    1
    83    73    72    2
    84   104   107    1
    85   104   105    1
    86    14    12   ar
    87     5     2    1
    88    87    90    1
    89    87    88    1
    90   107   109    1
    91    13    11   ar
    92   106   105    2
    93    12    11   ar
    94    88    89    2
    95    11    10    1
    96     2     3    1
    97     2     1    1
    98     3     4    2
    99    10     7    1
   100     7     6    1
   101     7     8    1
   102     8     9    2
