@<TRIPOS>MOLECULE
tmp/5dhjA00.pdb
 140 130 0 0 0
SMALL
GASTEIGER

@<TRIPOS>ATOM
      1  N         16.7160   38.5140   -4.4820 N.3    12  LEU12      -0.1245
      2  CA        18.1080   38.2870   -4.8620 C.3    12  LEU12       0.1561
      3  C         18.3340   36.9370   -5.5490 C.2    12  LEU12       0.2260
      4  O         19.1650   36.8190   -6.4430 O.2    12  LEU12      -0.2867
      5  CB        19.0030   38.4000   -3.6340 C.3    12  LEU12       0.0270
      6  CG        18.9910   39.8020   -3.0240 C.3    12  LEU12       0.0019
      7  CD1       19.5490   39.7860   -1.6180 C.3    12  LEU12       0.0001
      8  CD2       19.7670   40.7770   -3.9090 C.3    12  LEU12       0.0001
      9  N         17.3160   26.1150   -2.0490 N.3    17  PHE17      -0.1241
     10  CA        17.4640   26.7610   -0.7470 C.3    17  PHE17       0.1605
     11  C         16.2080   27.5340   -0.3180 C.2    17  PHE17       0.2264
     12  O         15.9480   27.6810    0.8810 O.2    17  PHE17      -0.2867
     13  CB        18.6860   27.6820   -0.7330 C.3    17  PHE17       0.0534
     14  CG        18.6670   28.7380   -1.8050 C.ar   17  PHE17      -0.0203
     15  CD1       17.9310   29.9140   -1.6330 C.ar   17  PHE17      -0.0042
     16  CD2       19.3980   28.5660   -2.9820 C.ar   17  PHE17      -0.0042
     17  CE1       17.9200   30.8930   -2.6190 C.ar   17  PHE17      -0.0003
     18  CE2       19.3920   29.5410   -3.9790 C.ar   17  PHE17      -0.0003
     19  CZ        18.6550   30.7120   -3.7930 C.ar   17  PHE17      -0.0000
     20  N         15.3740   34.4290   -1.3770 N.3    20  VAL20      -0.1245
     21  CA        16.1620   35.3720   -0.5900 C.3    20  VAL20       0.1561
     22  C         16.0030   36.8010   -1.1130 C.2    20  VAL20       0.2260
     23  O         16.2360   37.0650   -2.3010 O.2    20  VAL20      -0.2867
     24  CB        17.6720   35.0040   -0.5930 C.3    20  VAL20       0.0252
     25  CG1       18.4440   35.8960    0.3790 C.3    20  VAL20       0.0019
     26  CG2       17.8800   33.5440   -0.2560 C.3    20  VAL20       0.0019
     27  N         19.6770   40.3710    4.5680 N.3    33  ALA33      -0.1245
     28  CA        19.1610   39.4580    3.5660 C.3    33  ALA33       0.1562
     29  C         18.0740   38.6840    4.2770 C.2    33  ALA33       0.2260
     30  O         18.2360   38.3060    5.4260 O.2    33  ALA33      -0.2867
     31  CB        20.2860   38.5210    3.0130 C.3    33  ALA33       0.0290
     32  N         15.6940   35.4390    4.0820 N.3    35  LYS35      -0.1245
     33  CA        15.5280   34.1360    3.4500 C.3    35  LYS35       0.1561
     34  C         14.2380   33.4550    3.9190 C.2    35  LYS35       0.2260
     35  O         13.9330   33.4150    5.1130 O.2    35  LYS35      -0.2867
     36  CB        16.7400   33.2530    3.7640 C.3    35  LYS35       0.0271
     37  CG        16.6750   31.8610    3.1460 C.3    35  LYS35       0.0035
     38  CD        17.9890   31.1000    3.3860 C.3    35  LYS35       0.0206
     39  CE        17.9580   29.6900    2.7810 C.3    35  LYS35       0.1093
     40  NZ        19.2990   29.0400    2.7390 N.3    35  LYS35      -0.1314
     41  N         19.2760   24.2300    9.4700 N.3    57  GLU57      -0.1245
     42  CA        20.0130   25.3990    9.0120 C.3    57  GLU57       0.1567
     43  C         20.1660   26.4320   10.1370 C.2    57  GLU57       0.2260
     44  O         21.2400   27.0310   10.2990 O.2    57  GLU57      -0.2867
     45  CB        19.3480   26.0090    7.7670 C.3    57  GLU57       0.0388
     46  CG        20.1170   27.1620    7.1210 C.3    57  GLU57       0.1160
     47  CD        19.4960   27.6420    5.7940 C.2    57  GLU57       0.3649
     48  OE1       18.4570   27.0960    5.3560 O.co2  57  GLU57      -0.2457
     49  OE2       20.0630   28.5700    5.1790 O.co2  57  GLU57      -0.2457
     50  N         28.7130   34.2080    7.2000 N.3    72  ILE72      -0.1245
     51  CA        27.6440   35.1810    7.2050 C.3    72  ILE72       0.1561
     52  C         26.6940   34.9270    8.3470 C.2    72  ILE72       0.2260
     53  O         26.0910   33.8860    8.4050 O.2    72  ILE72      -0.2867
     54  CB        26.9230   35.2180    5.8370 C.3    72  ILE72       0.0252
     55  CG1       26.4530   36.6110    5.4960 C.3    72  ILE72       0.0019
     56  CG2       25.7690   34.2440    5.7460 C.3    72  ILE72       0.0019
     57  CD1       27.3520   37.2820    4.5060 C.3    72  ILE72       0.0001
     58  N         19.6510   37.6340    7.8320 N.3    88  LEU88      -0.1231
     59  CA        21.0620   37.4170    7.7300 C.3    88  LEU88       0.1693
     60  C         21.7140   38.7160    7.3870 C.2    88  LEU88       0.2592
     61  O         21.0830   39.5850    6.8790 O.2    88  LEU88      -0.2718
     62  CB        21.3460   36.4000    6.6510 C.3    88  LEU88       0.0284
     63  CG        20.8160   35.0150    6.9300 C.3    88  LEU88       0.0019
     64  CD1       20.2440   34.4040    5.6930 C.3    88  LEU88       0.0001
     65  CD2       21.8870   34.1350    7.5010 C.3    88  LEU88       0.0001
     66  N         22.9930   38.8420    7.6680 N.am   89  GLU89      -0.1966
     67  CA        23.6910   40.0700    7.3820 C.3    89  GLU89       0.1733
     68  C         23.9420   40.1540    5.9190 C.2    89  GLU89       0.2616
     69  O         23.9160   39.1660    5.2510 O.2    89  GLU89      -0.2715
     70  CB        24.9510   40.2130    8.2180 C.3    89  GLU89       0.0429
     71  CG        26.0890   39.2920    7.8910 C.3    89  GLU89       0.1163
     72  CD        27.1930   39.3460    8.9210 C.2    89  GLU89       0.3649
     73  OE1       27.0130   39.9810    9.9540 O.co2  89  GLU89      -0.2457
     74  OE2       28.2480   38.7560    8.6960 O.co2  89  GLU89      -0.2457
     75  N         24.1060   41.3530    5.4050 N.am   90  ARG90      -0.1964
     76  CA        24.3170   41.5230    3.9880 C.3    90  ARG90       0.1714
     77  C         25.3540   42.5630    3.7330 C.2    90  ARG90       0.2458
     78  O         25.1980   43.6960    4.1070 O.2    90  ARG90      -0.2730
     79  CB        23.0310   41.8850    3.2810 C.3    90  ARG90       0.0347
     80  CG        23.2300   42.2760    1.8480 C.3    90  ARG90       0.0492
     81  CD        21.9260   42.4270    1.1230 C.3    90  ARG90       0.2205
     82  NE        21.0900   43.4460    1.7180 N.pl3  90  ARG90      -0.0865
     83  CZ        21.1550   44.7360    1.4420 C.cat  90  ARG90       0.5346
     84  NH1       22.0190   45.1870    0.5790 N.pl3  90  ARG90       0.1354
     85  NH2       20.3470   45.5640    2.0430 N.pl3  90  ARG90       0.1354
     86  N         26.4350   42.1630    3.0920 N.am   91  PRO91      -0.2727
     87  CA        27.4650   43.1290    2.7030 C.3    91  PRO91       0.1402
     88  C         26.9880   43.9280    1.5000 C.2    91  PRO91       0.2269
     89  O         26.1460   43.4520    0.7390 O.2    91  PRO91      -0.2865
     90  CB        28.6620   42.2390    2.3200 C.3    91  PRO91       0.0296
     91  CG        28.3430   40.8800    2.8620 C.3    91  PRO91       0.0237
     92  CD        26.8520   40.7780    2.8230 C.3    91  PRO91       0.0939
     93  N         28.3610   43.8460   -2.7330 N.3    94  VAL94      -0.1245
     94  CA        28.7090   42.4470   -2.6250 C.3    94  VAL94       0.1561
     95  C         28.5380   41.7650   -3.9760 C.2    94  VAL94       0.2260
     96  O         27.7580   42.2190   -4.8130 O.2    94  VAL94      -0.2867
     97  CB        27.8010   41.7540   -1.5900 C.3    94  VAL94       0.0252
     98  CG1       26.4310   41.4990   -2.1960 C.3    94  VAL94       0.0019
     99  CG2       28.4210   40.4660   -1.1280 C.3    94  VAL94       0.0019
    100  N         29.1270   29.6260   -5.6660 N.3   139  GLU139     -0.1231
    101  CA        27.8050   30.2380   -5.4990 C.3   139  GLU139      0.1699
    102  C         27.4890   30.4620   -4.0380 C.2   139  GLU139      0.2592
    103  O         26.6140   31.2540   -3.7090 O.2   139  GLU139     -0.2718
    104  CB        26.7050   29.3500   -6.0720 C.3   139  GLU139      0.0402
    105  CG        26.7240   29.1860   -7.5790 C.3   139  GLU139      0.1161
    106  CD        25.6730   28.1860   -8.0630 C.2   139  GLU139      0.3649
    107  OE1       24.4860   28.5770   -8.1470 O.co2 139  GLU139     -0.2457
    108  OE2       26.0350   27.0140   -8.3500 O.co2 139  GLU139     -0.2457
    109  N         28.2000   29.7720   -3.1680 N.am  140  ASN140     -0.1974
    110  CA        27.9930   29.8380   -1.7400 C.3   140  ASN140      0.1688
    111  C         29.1030   30.5660   -1.0210 C.2   140  ASN140      0.2292
    112  O         29.3880   30.3140    0.1060 O.2   140  ASN140     -0.2864
    113  CB        27.8330   28.4390   -1.1930 C.3   140  ASN140      0.1181
    114  CG        26.4900   27.8620   -1.4740 C.2   140  ASN140      0.2629
    115  OD1       25.5530   28.5750   -1.6500 O.2   140  ASN140     -0.2716
    116  ND2       26.3970   26.5820   -1.4930 N.am  140  ASN140     -0.0877
    117  N         30.4350   34.6940   -0.7070 N.3   142  LEU142     -0.1245
    118  CA        30.1930   36.0670   -1.0470 C.3   142  LEU142      0.1561
    119  C         31.4320   36.8720   -0.8740 C.2   142  LEU142      0.2260
    120  O         32.1890   36.6280   -0.0010 O.2   142  LEU142     -0.2867
    121  CB        29.1200   36.6580   -0.1660 C.3   142  LEU142      0.0270
    122  CG        27.6870   36.2190   -0.3380 C.3   142  LEU142      0.0019
    123  CD1       26.8260   36.9320    0.6600 C.3   142  LEU142      0.0001
    124  CD2       27.2060   36.4580   -1.7350 C.3   142  LEU142      0.0001
    125  N         28.0460   31.2430    2.7970 N.3   153  ILE153     -0.1231
    126  CA        26.5910   31.3580    2.9140 C.3   153  ILE153      0.1692
    127  C         25.9010   30.0400    2.6120 C.2   153  ILE153      0.2592
    128  O         26.5140   29.1150    2.0650 O.2   153  ILE153     -0.2718
    129  CB        25.9980   32.4230    1.9570 C.3   153  ILE153      0.0266
    130  CG1       26.4260   32.1260    0.5170 C.3   153  ILE153      0.0019
    131  CG2       26.4230   33.8210    2.3730 C.3   153  ILE153      0.0020
    132  CD1       25.4940   32.7090   -0.5490 C.3   153  ILE153      0.0001
    133  N         24.6310   29.9290    2.9530 N.am  154  ASP154     -0.1974
    134  CA        23.7850   28.7780    2.6580 C.3   154  ASP154      0.1709
    135  C         24.1150   27.5050    3.3920 C.2   154  ASP154      0.2293
    136  O         24.6410   26.5870    2.8360 O.2   154  ASP154     -0.2864
    137  CB        23.6940   28.5200    1.1680 C.3   154  ASP154      0.1436
    138  CG        22.5650   27.5840    0.7830 C.2   154  ASP154      0.3671
    139  OD1       21.8320   27.0810    1.6160 O.co2 154  ASP154     -0.2456
    140  OD2       22.4120   27.3620   -0.4010 O.co2 154  ASP154     -0.2456
@<TRIPOS>BOND
     1   108   106   ar
     2   107   106   ar
     3   106   105    1
     4   105   104    1
     5     4     3    2
     6   104   101    1
     7   100   101    1
     8     3     2    1
     9   101   102    1
    10     2     1    1
    11     2     5    1
    12    96    95    2
    13   102   103    2
    14   102   109   am
    15    18    19   ar
    16    18    16   ar
    17    95    94    1
    18     8     6    1
    19    19    17   ar
    20     5     6    1
    21   109   110    1
    22     6     7    1
    23    16    14   ar
    24    93    94    1
    25    94    97    1
    26    17    15   ar
    27    23    22    2
    28    98    97    1
    29     9    10    1
    30    14    15   ar
    31    14    13    1
    32   110   113    1
    33   110   111    1
    34   124   122    1
    35   115   114    2
    36    97    99    1
    37   116   114   am
    38   114   113    1
    39    20    21    1
    40    22    21    1
    41   118   119    1
    42   118   117    1
    43   118   121    1
    44   111   112    2
    45   119   120    2
    46    10    13    1
    47    10    11    1
    48    24    21    1
    49    24    26    1
    50    24    25    1
    51   132   130    1
    52   140   138   ar
    53   122   121    1
    54   122   123    1
    55    11    12    2
    56   130   129    1
    57    84    83    1
    58    89    88    2
    59   138   137    1
    60   138   139   ar
    61    81    82    1
    62    81    80    1
    63   137   134    1
    64    83    82    2
    65    83    85    1
    66    88    87    1
    67    80    79    1
    68   129   131    1
    69   129   126    1
    70   128   127    2
    71    90    87    1
    72    90    91    1
    73   127   126    1
    74   127   133   am
    75   134   133    1
    76   134   135    1
    77    87    86    1
    78    40    39    1
    79    39    38    1
    80   125   126    1
    81    92    91    1
    82    92    86    1
    83   136   135    2
    84    31    28    1
    85    86    77   am
    86    37    38    1
    87    37    36    1
    88    79    76    1
    89    33    36    1
    90    33    34    1
    91    33    32    1
    92    28    29    1
    93    28    27    1
    94    77    76    1
    95    77    78    2
    96    34    35    2
    97    76    75    1
    98    29    30    2
    99    57    55    1
   100    49    47   ar
   101    69    68    2
   102    48    47   ar
   103    75    68   am
   104    55    54    1
   105    64    63    1
   106    56    54    1
   107    47    46    1
   108    54    51    1
   109    68    67    1
   110    62    63    1
   111    62    59    1
   112    61    60    2
   113    63    65    1
   114    46    45    1
   115    50    51    1
   116    51    52    1
   117    67    66    1
   118    67    70    1
   119    60    66   am
   120    60    59    1
   121    59    58    1
   122    45    42    1
   123    71    70    1
   124    71    72    1
   125    52    53    2
   126    74    72   ar
   127    72    73   ar
   128    42    41    1
   129    42    43    1
   130    43    44    2
