@<TRIPOS>MOLECULE
tmp/5dhkA00.pdb
 179 169 0 0 0
SMALL
GASTEIGER

@<TRIPOS>ATOM
      1  N         77.5970   12.7900   50.9740 N.3   252  ARG252     -0.1245
      2  CA        76.2910   13.3250   51.3210 C.3   252  ARG252      0.1563
      3  C         75.2470   12.8350   50.3260 C.2   252  ARG252      0.2260
      4  O         75.4970   12.7520   49.1210 O.2   252  ARG252     -0.2867
      5  CB        76.3250   14.8510   51.3540 C.3   252  ARG252      0.0307
      6  CG        77.0830   15.4000   52.5460 C.3   252  ARG252      0.0489
      7  CD        77.4110   16.8660   52.3800 C.3   252  ARG252      0.2205
      8  NE        78.0820   17.1170   51.1110 N.pl3 252  ARG252     -0.0865
      9  CZ        78.6850   18.2600   50.7980 C.cat 252  ARG252      0.5346
     10  NH1       78.6980   19.2560   51.6720 N.pl3 252  ARG252      0.1354
     11  NH2       79.2760   18.4000   49.6160 N.pl3 252  ARG252      0.1354
     12  N         68.4350   23.6630   44.4610 N.3   261  GLU261     -0.1245
     13  CA        69.4290   24.6030   43.9560 C.3   261  GLU261      0.1567
     14  C         69.2560   24.8300   42.4590 C.2   261  GLU261      0.2260
     15  O         69.2760   25.9700   41.9890 O.2   261  GLU261     -0.2867
     16  CB        70.8480   24.1110   44.2720 C.3   261  GLU261      0.0388
     17  CG        71.1430   23.8210   45.7530 C.3   261  GLU261      0.1160
     18  CD        70.9230   25.0250   46.6880 C.2   261  GLU261      0.3649
     19  OE1       70.5650   26.1240   46.2080 O.co2 261  GLU261     -0.2457
     20  OE2       71.1110   24.8750   47.9210 O.co2 261  GLU261     -0.2457
     21  N         75.4480   18.9740   39.7710 N.3   282  ILE282     -0.1245
     22  CA        75.5800   19.3800   41.1700 C.3   282  ILE282      0.1561
     23  C         75.7580   18.1510   42.0590 C.2   282  ILE282      0.2260
     24  O         76.6880   18.0820   42.8750 O.2   282  ILE282     -0.2867
     25  CB        74.3750   20.2400   41.6040 C.3   282  ILE282      0.0252
     26  CG1       74.3130   21.5300   40.7690 C.3   282  ILE282      0.0019
     27  CG2       74.4670   20.5670   43.0890 C.3   282  ILE282      0.0019
     28  CD1       73.1200   22.4610   41.0600 C.3   282  ILE282      0.0001
     29  N         79.3510   16.5850   41.3610 N.3   285  ILE285     -0.1231
     30  CA        80.4680   17.3500   41.9050 C.3   285  ILE285      0.1692
     31  C         80.3790   17.3860   43.4180 C.2   285  ILE285      0.2592
     32  O         81.3980   17.5470   44.0950 O.2   285  ILE285     -0.2718
     33  CB        80.5600   18.7800   41.3160 C.3   285  ILE285      0.0266
     34  CG1       81.9630   19.3480   41.5400 C.3   285  ILE285      0.0019
     35  CG2       79.5460   19.7320   41.9450 C.3   285  ILE285      0.0020
     36  CD1       83.0380   18.6020   40.7980 C.3   285  ILE285      0.0001
     37  N         79.1820   17.2210   43.9760 N.am  286  SER286     -0.1952
     38  CA        79.1000   17.1090   45.4240 C.3   286  SER286      0.1924
     39  C         79.7620   15.8280   45.9100 C.2   286  SER286      0.2314
     40  O         80.2850   15.7930   47.0280 O.2   286  SER286     -0.2863
     41  CB        77.6430   17.1640   45.8860 C.3   286  SER286      0.2116
     42  OG        77.5640   17.0100   47.2940 O.3   286  SER286     -0.2180
     43  N         83.4650   16.3190   45.9380 N.3   289  ASP289     -0.1239
     44  CA        83.8530   17.1480   47.0790 C.3   289  ASP289      0.1674
     45  C         83.9650   16.3190   48.3540 C.2   289  ASP289      0.2266
     46  O         84.9230   16.4770   49.1210 O.2   289  ASP289     -0.2867
     47  CB        82.8630   18.3020   47.2740 C.3   289  ASP289      0.1410
     48  CG        83.3050   19.2740   48.3640 C.2   289  ASP289      0.3668
     49  OD1       84.4760   19.7000   48.3500 O.co2 289  ASP289     -0.2456
     50  OD2       82.4870   19.6070   49.2480 O.co2 289  ASP289     -0.2456
     51  N         90.5830   21.3860   44.1280 N.3   364  TYR364     -0.1241
     52  CA        90.3870   20.4600   45.2390 C.3   364  TYR364      0.1605
     53  C         91.7210   19.8550   45.6640 C.2   364  TYR364      0.2264
     54  O         92.1010   19.8960   46.8410 O.2   364  TYR364     -0.2867
     55  CB        89.4050   19.3500   44.8390 C.3   364  TYR364      0.0534
     56  CG        87.9430   19.7380   44.8660 C.ar  364  TYR364     -0.0201
     57  CD1       87.5260   20.9420   45.4430 C.ar  364  TYR364     -0.0009
     58  CD2       86.9720   18.8950   44.3240 C.ar  364  TYR364     -0.0009
     59  CE1       86.1900   21.2930   45.4720 C.ar  364  TYR364      0.0417
     60  CE2       85.6280   19.2440   44.3500 C.ar  364  TYR364      0.0417
     61  CZ        85.2480   20.4470   44.9230 C.ar  364  TYR364      0.1957
     62  OH        83.9240   20.8000   44.9640 O.3   364  TYR364     -0.2866
     63  N         87.0360   26.4640   43.8350 N.3   389  THR389     -0.1203
     64  CA        86.4980   25.3400   44.6040 C.3   389  THR389      0.1994
     65  C         85.1030   25.6180   45.1610 C.2   389  THR389      0.2619
     66  O         84.5690   24.7730   45.8910 O.2   389  THR389     -0.2717
     67  CB        87.4380   24.9120   45.7490 C.3   389  THR389      0.1784
     68  OG1       87.4950   25.9030   46.7800 O.3   389  THR389     -0.2211
     69  CG2       88.8510   24.6160   45.2270 C.3   389  THR389      0.0376
     70  N         84.5070   26.7750   44.8450 N.am  390  THR390     -0.1938
     71  CA        83.0740   26.9570   45.0400 C.3   390  THR390      0.2028
     72  C         82.2580   26.1510   44.0450 C.2   390  THR390      0.2643
     73  O         81.0680   25.9360   44.2740 O.2   390  THR390     -0.2714
     74  CB        82.6670   28.4220   44.8790 C.3   390  THR390      0.1808
     75  OG1       82.8460   28.8140   43.5120 O.3   390  THR390     -0.2208
     76  CG2       83.4490   29.3360   45.7990 C.3   390  THR390      0.0379
     77  N         82.8630   25.7250   42.9390 N.am  391  THR391     -0.1936
     78  CA        82.1960   25.0940   41.8010 C.3   391  THR391      0.2028
     79  C         81.3720   26.0790   40.9840 C.2   391  THR391      0.2642
     80  O         80.6340   25.6540   40.0960 O.2   391  THR391     -0.2714
     81  CB        81.2710   23.9270   42.2050 C.3   391  THR391      0.1808
     82  OG1       80.0280   24.4520   42.6930 O.3   391  THR391     -0.2208
     83  CG2       81.9130   23.0350   43.2680 C.3   391  THR391      0.0379
     84  N         81.4880   27.3840   41.2340 N.am  392  TYR392     -0.1973
     85  CA        80.5300   28.3050   40.6280 C.3   392  TYR392      0.1639
     86  C         80.8630   28.6640   39.1770 C.2   392  TYR392      0.2290
     87  O         79.9360   28.8830   38.3850 O.2   392  TYR392     -0.2864
     88  CB        80.3820   29.5600   41.4980 C.3   392  TYR392      0.0560
     89  CG        79.1190   29.5150   42.3390 C.ar  392  TYR392     -0.0198
     90  CD1       78.6910   28.3130   42.9070 C.ar  392  TYR392     -0.0009
     91  CD2       78.3390   30.6570   42.5460 C.ar  392  TYR392     -0.0009
     92  CE1       77.5380   28.2530   43.6590 C.ar  392  TYR392      0.0417
     93  CE2       77.1800   30.6050   43.3050 C.ar  392  TYR392      0.0417
     94  CZ        76.7800   29.4030   43.8550 C.ar  392  TYR392      0.1957
     95  OH        75.6200   29.3200   44.5990 O.3   392  TYR392     -0.2866
     96  N         79.3530   25.4420   37.6790 N.3   395  LEU395     -0.1245
     97  CA        77.8910   25.3870   37.5890 C.3   395  LEU395      0.1561
     98  C         77.3410   26.4280   36.6240 C.2   395  LEU395      0.2260
     99  O         76.3150   26.1930   35.9700 O.2   395  LEU395     -0.2867
    100  CB        77.2440   25.5800   38.9600 C.3   395  LEU395      0.0270
    101  CG        77.5830   24.6020   40.0780 C.3   395  LEU395      0.0019
    102  CD1       76.6330   24.8390   41.2420 C.3   395  LEU395      0.0001
    103  CD2       77.5360   23.1520   39.5820 C.3   395  LEU395      0.0001
    104  N         79.5940   33.4770   46.8310 N.3   428  CYS428     -0.1235
    105  CA        79.5920   32.0970   47.2970 C.3   428  CYS428      0.1677
    106  C         80.7680   31.8200   48.2360 C.2   428  CYS428      0.2270
    107  O         80.5930   31.2590   49.3260 O.2   428  CYS428     -0.2867
    108  CB        79.6220   31.1580   46.0970 C.3   428  CYS428      0.0956
    109  SG        79.5230   29.4650   46.5700 S.3   428  CYS428     -0.0801
    110  N         80.5340   33.8120   51.7200 N.3   431  ILE431     -0.1231
    111  CA        79.4420   33.2660   52.5310 C.3   431  ILE431      0.1692
    112  C         79.8620   31.9230   53.1180 C.2   431  ILE431      0.2592
    113  O         79.6260   31.6350   54.2950 O.2   431  ILE431     -0.2718
    114  CB        78.1420   33.1490   51.7010 C.3   431  ILE431      0.0266
    115  CG1       77.4340   34.4970   51.5660 C.3   431  ILE431      0.0019
    116  CG2       77.1860   32.1310   52.3050 C.3   431  ILE431      0.0020
    117  CD1       78.1010   35.6330   52.3500 C.3   431  ILE431      0.0001
    118  N         80.5090   31.0920   52.3060 N.am  432  ASP432     -0.1974
    119  CA        81.0390   29.8080   52.7600 C.3   432  ASP432      0.1709
    120  C         81.9600   29.9350   53.9610 C.2   432  ASP432      0.2293
    121  O         81.7920   29.2320   54.9640 O.2   432  ASP432     -0.2864
    122  CB        81.8110   29.1640   51.6320 C.3   432  ASP432      0.1436
    123  CG        80.9810   28.2570   50.8620 C.2   432  ASP432      0.3671
    124  OD1       80.2220   27.5280   51.5330 O.co2 432  ASP432     -0.2456
    125  OD2       81.0410   28.2850   49.6100 O.co2 432  ASP432     -0.2456
    126  N         72.5460   32.1760   40.8660 N.3   500  LEU500     -0.1245
    127  CA        73.5660   31.4560   41.6380 C.3   500  LEU500      0.1561
    128  C         73.9300   32.2050   42.9130 C.2   500  LEU500      0.2260
    129  O         74.0820   31.5950   43.9760 O.2   500  LEU500     -0.2867
    130  CB        74.8100   31.2170   40.7840 C.3   500  LEU500      0.0270
    131  CG        74.6700   30.0570   39.7900 C.3   500  LEU500      0.0019
    132  CD1       75.7530   30.0770   38.6980 C.3   500  LEU500      0.0001
    133  CD2       74.6960   28.7360   40.5550 C.3   500  LEU500      0.0001
    134  N         70.8990   31.8290   45.3180 N.3   503  ILE503     -0.1231
    135  CA        70.8840   30.4820   45.8870 C.3   503  ILE503      0.1692
    136  C         71.8290   30.3830   47.0740 C.2   503  ILE503      0.2591
    137  O         71.4940   29.7890   48.1060 O.2   503  ILE503     -0.2718
    138  CB        71.2270   29.4740   44.7780 C.3   503  ILE503      0.0266
    139  CG1       69.9440   29.0890   44.0660 C.3   503  ILE503      0.0019
    140  CG2       71.9910   28.3010   45.2900 C.3   503  ILE503      0.0020
    141  CD1       70.2040   28.6630   42.6380 C.3   503  ILE503      0.0001
    142  N         73.0070   30.9950   46.9630 N.am  504  VAL504     -0.1980
    143  CA        73.9730   30.9430   48.0560 C.3   504  VAL504      0.1595
    144  C         73.4500   31.7140   49.2640 C.2   504  VAL504      0.2287
    145  O         73.4670   31.2170   50.3930 O.2   504  VAL504     -0.2864
    146  CB        75.3510   31.4510   47.5670 C.3   504  VAL504      0.0276
    147  CG1       75.8800   32.6250   48.3940 C.3   504  VAL504      0.0022
    148  CG2       76.3220   30.3130   47.6210 C.3   504  VAL504      0.0022
    149  N         70.5910   29.7600   50.9050 N.3   507  THR507     -0.1203
    150  CA        70.9410   28.4860   51.5260 C.3   507  THR507      0.1994
    151  C         71.7500   28.6620   52.8030 C.2   507  THR507      0.2617
    152  O         71.6700   27.8130   53.6950 O.2   507  THR507     -0.2717
    153  CB        71.7130   27.6100   50.5480 C.3   507  THR507      0.1784
    154  OG1       70.8980   27.3400   49.4000 O.3   507  THR507     -0.2211
    155  CG2       72.0700   26.2990   51.2090 C.3   507  THR507      0.0376
    156  N         72.5250   29.7430   52.9160 N.am  508  TYR508     -0.1975
    157  CA        73.3240   30.0210   54.1060 C.3   508  TYR508      0.1639
    158  C         72.7420   31.1640   54.9280 C.2   508  TYR508      0.2290
    159  O         73.4620   31.7900   55.7110 O.2   508  TYR508     -0.2864
    160  CB        74.7780   30.3200   53.7210 C.3   508  TYR508      0.0560
    161  CG        75.5380   29.1060   53.2230 C.ar  508  TYR508     -0.0198
    162  CD1       75.1220   28.4230   52.0900 C.ar  508  TYR508     -0.0009
    163  CD2       76.6660   28.6350   53.8930 C.ar  508  TYR508     -0.0009
    164  CE1       75.7960   27.3120   51.6420 C.ar  508  TYR508      0.0417
    165  CE2       77.3540   27.5220   53.4430 C.ar  508  TYR508      0.0417
    166  CZ        76.9140   26.8680   52.3120 C.ar  508  TYR508      0.1957
    167  OH        77.5710   25.7560   51.8380 O.3   508  TYR508     -0.2866
    168  N         72.8780   23.2160   52.8780 N.3   515  TYR515     -0.1241
    169  CA        72.9290   22.0650   51.9810 C.3   515  TYR515      0.1605
    170  C         73.3360   20.8070   52.7360 C.2   515  TYR515      0.2264
    171  O         72.7460   19.7400   52.5460 O.2   515  TYR515     -0.2867
    172  CB        73.8950   22.3230   50.8280 C.3   515  TYR515      0.0534
    173  CG        74.1270   21.1140   49.9540 C.ar  515  TYR515     -0.0201
    174  CD1       73.2600   20.8100   48.9150 C.ar  515  TYR515     -0.0009
    175  CD2       75.2170   20.2670   50.1700 C.ar  515  TYR515     -0.0009
    176  CE1       73.4740   19.7010   48.1060 C.ar  515  TYR515      0.0417
    177  CE2       75.4390   19.1580   49.3680 C.ar  515  TYR515      0.0417
    178  CZ        74.5670   18.8840   48.3390 C.ar  515  TYR515      0.1957
    179  OH        74.7710   17.7880   47.5400 O.3   515  TYR515     -0.2866
@<TRIPOS>BOND
     1    99    98    2
     2    98    97    1
     3    97    96    1
     4    97   100    1
     5    87    86    2
     6   132   131    1
     7   100   101    1
     8    86    85    1
     9   103   101    1
    10    21    22    1
    11   131   133    1
    12   131   130    1
    13   101   102    1
    14    80    79    2
    15    85    84    1
    16    85    88    1
    17    26    28    1
    18    26    25    1
    19   130   127    1
    20    36    34    1
    21   126   127    1
    22    79    84   am
    23    79    78    1
    24    22    25    1
    25    22    23    1
    26    33    34    1
    27    33    30    1
    28    33    35    1
    29    29    30    1
    30    88    89    1
    31    25    27    1
    32   127   128    1
    33    78    81    1
    34    78    77    1
    35    30    31    1
    36    15    14    2
    37    23    24    2
    38    81    82    1
    39    81    83    1
    40    89    91   ar
    41    89    90   ar
    42    14    13    1
    43    91    93   ar
    44   141   139    1
    45    90    92   ar
    46   128   129    2
    47    77    72   am
    48    93    94   ar
    49    31    37   am
    50    31    32    2
    51    75    74    1
    52    92    94   ar
    53    63    64    1
    54    94    95    1
    55    13    16    1
    56    13    12    1
    57    37    38    1
    58    72    73    2
    59    72    71    1
    60   139   138    1
    61    51    52    1
    62    16    17    1
    63    58    60   ar
    64    58    56   ar
    65    60    61   ar
    66    64    65    1
    67    64    67    1
    68   138   140    1
    69   138   135    1
    70    55    56    1
    71    55    52    1
    72    70    71    1
    73    70    65   am
    74    56    57   ar
    75    74    71    1
    76    74    76    1
    77    61    62    1
    78    61    59   ar
    79    65    66    2
    80    69    67    1
    81    52    53    1
    82   134   135    1
    83    38    41    1
    84    38    39    1
    85    57    59   ar
    86    53    54    2
    87    67    68    1
    88    17    18    1
    89    41    42    1
    90   135   136    1
    91    39    40    2
    92    43    44    1
    93   108   109    1
    94   108   105    1
    95    19    18   ar
    96    18    20   ar
    97   104   105    1
    98   142   136   am
    99   142   143    1
   100   136   137    2
   101    44    47    1
   102    44    45    1
   103    47    48    1
   104   105   106    1
   105   179   178    1
   106   146   148    1
   107   146   143    1
   108   146   147    1
   109   143   144    1
   110   176   178   ar
   111   176   174   ar
   112   106   107    2
   113   178   177   ar
   114    49    48   ar
   115    45    46    2
   116    48    50   ar
   117   174   173   ar
   118     4     3    2
   119   144   145    2
   120   177   175   ar
   121   154   153    1
   122   125   123   ar
   123    11     9    1
   124   173   175   ar
   125   173   172    1
   126     3     2    1
   127   153   155    1
   128   153   150    1
   129     9     8    2
   130     9    10    1
   131   172   169    1
   132   123   124   ar
   133   123   122    1
   134   149   150    1
   135     1     2    1
   136     8     7    1
   137     2     5    1
   138     5     6    1
   139   150   151    1
   140   115   114    1
   141   115   117    1
   142   122   119    1
   143   164   162   ar
   144   164   166   ar
   145   114   116    1
   146   114   111    1
   147   110   111    1
   148   167   166    1
   149   169   170    1
   150   169   168    1
   151   162   161   ar
   152   118   119    1
   153   118   112   am
   154   166   165   ar
   155     7     6    1
   156   111   112    1
   157   171   170    2
   158   119   120    1
   159   151   156   am
   160   151   152    2
   161   156   157    1
   162   112   113    2
   163   161   160    1
   164   161   163   ar
   165   165   163   ar
   166   160   157    1
   167   120   121    2
   168   157   158    1
   169   158   159    2
