@<TRIPOS>MOLECULE
tmp/5dhpA02.pdb
 79 77 0 0 0
SMALL
GASTEIGER

@<TRIPOS>ATOM
      1  N          4.0900   -6.5030  -46.5680 N.3   126  LYS126     -0.1231
      2  CA         4.2700   -6.2550  -47.9910 C.3   126  LYS126      0.1693
      3  C          3.0230   -5.5740  -48.5370 C.2   126  LYS126      0.2592
      4  O          2.0610   -5.3560  -47.8010 O.2   126  LYS126     -0.2718
      5  CB         4.5530   -7.5610  -48.7370 C.3   126  LYS126      0.0285
      6  CG         5.7310   -8.3430  -48.1710 C.3   126  LYS126      0.0035
      7  CD         5.8780   -9.7080  -48.8200 C.3   126  LYS126      0.0206
      8  CE         6.2270   -9.5890  -50.2920 C.3   126  LYS126      0.1093
      9  NZ         6.5500  -10.9160  -50.8840 N.3   126  LYS126     -0.1314
     10  N          3.0340   -5.2350  -49.8200 N.am  127  SER127     -0.1952
     11  CA         1.8770   -4.5890  -50.4300 C.3   127  SER127      0.1924
     12  C          0.8220   -5.6120  -50.8370 C.2   127  SER127      0.2314
     13  O          1.1220   -6.7920  -51.0150 O.2   127  SER127     -0.2863
     14  CB         2.2990   -3.7650  -51.6470 C.3   127  SER127      0.2116
     15  OG         2.7470   -4.6040  -52.6970 O.3   127  SER127     -0.2180
     16  N          1.0730   -3.9280  -55.9690 N.3   130  GLY130     -0.1210
     17  CA         1.7040   -2.7010  -56.4100 C.3   130  GLY130      0.1940
     18  C          2.8860   -2.3570  -55.5290 C.2   130  GLY130      0.2454
     19  O          3.2790   -3.1540  -54.6790 O.2   130  GLY130     -0.2732
     20  N          3.4630   -1.1660  -55.7270 N.am  131  PRO131     -0.2717
     21  CA         4.6230   -0.7260  -54.9480 C.3   131  PRO131      0.1535
     22  C          4.3330   -0.6670  -53.4510 C.2   131  PRO131      0.2598
     23  O          3.2750   -0.1900  -53.0420 O.2   131  PRO131     -0.2715
     24  CB         4.9080    0.6740  -55.5020 C.3   131  PRO131      0.0310
     25  CG         4.3060    0.6680  -56.8690 C.3   131  PRO131      0.0237
     26  CD         3.0790   -0.1780  -56.7500 C.3   131  PRO131      0.0939
     27  N          5.2680   -1.1660  -52.6510 N.am  132  PHE132     -0.1974
     28  CA         5.1790   -1.0740  -51.1990 C.3   132  PHE132      0.1639
     29  C          5.9920    0.1230  -50.7140 C.2   132  PHE132      0.2290
     30  O          7.2200    0.1170  -50.7850 O.2   132  PHE132     -0.2864
     31  CB         5.6760   -2.3720  -50.5500 C.3   132  PHE132      0.0560
     32  CG         5.7800   -2.3120  -49.0510 C.ar  132  PHE132     -0.0200
     33  CD1        4.6540   -2.4480  -48.2580 C.ar  132  PHE132     -0.0042
     34  CD2        7.0080   -2.1430  -48.4350 C.ar  132  PHE132     -0.0042
     35  CE1        4.7490   -2.4030  -46.8770 C.ar  132  PHE132     -0.0003
     36  CE2        7.1090   -2.0980  -47.0560 C.ar  132  PHE132     -0.0003
     37  CZ         5.9770   -2.2290  -46.2750 C.ar  132  PHE132     -0.0000
     38  N         10.9240    1.9850  -50.0920 N.3   147  ARG147     -0.1231
     39  CA        10.2210    1.4240  -51.2350 C.3   147  ARG147      0.1694
     40  C         10.8620    0.0920  -51.6080 C.2   147  ARG147      0.2593
     41  O         12.0870   -0.0120  -51.6820 O.2   147  ARG147     -0.2718
     42  CB        10.2430    2.3790  -52.4240 C.3   147  ARG147      0.0321
     43  CG         9.5160    1.8390  -53.6380 C.3   147  ARG147      0.0489
     44  CD         9.7630    2.7040  -54.8520 C.3   147  ARG147      0.2205
     45  NE         9.1080    2.1690  -56.0400 N.pl3 147  ARG147     -0.0865
     46  CZ         7.9410    2.5990  -56.5060 C.cat 147  ARG147      0.5346
     47  NH1        7.2970    3.5780  -55.8860 N.pl3 147  ARG147      0.1354
     48  NH2        7.4190    2.0520  -57.5950 N.pl3 147  ARG147      0.1354
     49  N         10.0340   -0.9260  -51.8260 N.am  148  GLY148     -0.1942
     50  CA        10.5310   -2.2510  -52.1530 C.3   148  GLY148      0.2014
     51  C          9.4720   -3.3290  -52.0210 C.2   148  GLY148      0.2638
     52  O          8.2810   -3.0540  -52.1490 O.2   148  GLY148     -0.2714
     53  N          9.9020   -4.5630  -51.7740 N.am  149  ASP149     -0.1971
     54  CA         8.9650   -5.6690  -51.6090 C.3   149  ASP149      0.1709
     55  C          8.2840   -5.6000  -50.2540 C.2   149  ASP149      0.2293
     56  O          7.0780   -5.8200  -50.1410 O.2   149  ASP149     -0.2864
     57  CB         9.6690   -7.0190  -51.7660 C.3   149  ASP149      0.1436
     58  CG        10.0740   -7.3030  -53.1940 C.2   149  ASP149      0.3671
     59  OD1        9.6050   -6.5780  -54.0970 O.co2 149  ASP149     -0.2456
     60  OD2       10.8530   -8.2570  -53.4150 O.co2 149  ASP149     -0.2456
     61  N         14.2880   -6.3970  -50.5110 N.3   184  ALA184     -0.1231
     62  CA        14.4930   -5.8080  -51.8330 C.3   184  ALA184      0.1694
     63  C         14.1520   -4.3220  -51.8820 C.2   184  ALA184      0.2593
     64  O         13.3160   -3.8950  -52.6760 O.2   184  ALA184     -0.2718
     65  CB        13.6870   -6.5680  -52.8820 C.3   184  ALA184      0.0304
     66  N         14.8080   -3.5420  -51.0300 N.am  185  SER185     -0.1938
     67  CA        14.6950   -2.0890  -51.0750 C.3   185  SER185      0.2055
     68  C         15.2800   -1.5480  -52.3760 C.2   185  SER185      0.2642
     69  O         16.3260   -2.0090  -52.8350 O.2   185  SER185     -0.2714
     70  CB        15.4040   -1.4530  -49.8780 C.3   185  SER185      0.2130
     71  OG        15.3310   -0.0380  -49.9310 O.3   185  SER185     -0.2179
     72  N         14.5980   -0.5740  -52.9690 N.am  186  ILE186     -0.1977
     73  CA        15.0890    0.0550  -54.1870 C.3   186  ILE186      0.1596
     74  C         16.2810    0.9540  -53.8440 C.2   186  ILE186      0.2287
     75  O         17.2260    1.0690  -54.6250 O.2   186  ILE186     -0.2864
     76  CB        13.9670    0.8550  -54.9060 C.3   186  ILE186      0.0276
     77  CG1       14.4270    1.3300  -56.2850 C.3   186  ILE186      0.0022
     78  CG2       13.4790    2.0230  -54.0560 C.3   186  ILE186      0.0022
     79  CD1       13.3190    1.9530  -57.1030 C.3   186  ILE186      0.0001
@<TRIPOS>BOND
     1    48    46    1
     2    79    77    1
     3    25    26    1
     4    25    24    1
     5    26    20    1
     6    46    45    2
     7    46    47    1
     8    17    16    1
     9    17    18    1
    10    77    76    1
    11    45    44    1
    12    20    18   am
    13    20    21    1
    14    18    19    2
    15    24    21    1
    16    21    22    1
    17    76    73    1
    18    76    78    1
    19    44    43    1
    20    75    74    2
    21    73    74    1
    22    73    72    1
    23    59    58   ar
    24    43    42    1
    25    22    23    2
    26    22    27   am
    27    60    58   ar
    28    58    57    1
    29    72    68   am
    30    65    62    1
    31    69    68    2
    32    15    14    1
    33    64    63    2
    34    27    28    1
    35    42    39    1
    36    68    67    1
    37    50    51    1
    38    50    49    1
    39    52    51    2
    40    51    53   am
    41    63    62    1
    42    63    66   am
    43    62    61    1
    44    49    40   am
    45    53    54    1
    46    57    54    1
    47    41    40    2
    48    14    11    1
    49    54    55    1
    50    40    39    1
    51    39    38    1
    52    28    29    1
    53    28    31    1
    54    67    66    1
    55    67    70    1
    56    13    12    2
    57     9     8    1
    58    12    11    1
    59    30    29    2
    60    31    32    1
    61    11    10    1
    62     8     7    1
    63    55    56    2
    64    71    70    1
    65    10     3   am
    66    32    34   ar
    67    32    33   ar
    68     7     6    1
    69     5     6    1
    70     5     2    1
    71     3     2    1
    72     3     4    2
    73    34    36   ar
    74    33    35   ar
    75     2     1    1
    76    36    37   ar
    77    35    37   ar
