@<TRIPOS>MOLECULE
tmp/5dhpA01.pdb
 76 71 0 0 0
SMALL
GASTEIGER

@<TRIPOS>ATOM
      1  N          7.7170  -26.0500  -38.3820 N.3    46  GLY46      -0.1225
      2  CA         6.4000  -25.6220  -38.8250 C.3    46  GLY46       0.1811
      3  C          5.2800  -26.1460  -37.9430 C.2    46  GLY46       0.2280
      4  O          4.3120  -25.4390  -37.6550 O.2    46  GLY46      -0.2866
      5  N          5.3360  -24.1560  -34.7120 N.3    49  LEU49      -0.1245
      6  CA         4.7140  -22.8420  -34.8640 C.3    49  LEU49       0.1561
      7  C          3.2000  -22.9160  -34.6990 C.2    49  LEU49       0.2260
      8  O          2.6030  -22.0820  -34.0200 O.2    49  LEU49      -0.2867
      9  CB         5.0620  -22.2360  -36.2250 C.3    49  LEU49       0.0270
     10  CG         6.4890  -21.7180  -36.4110 C.3    49  LEU49       0.0019
     11  CD1        6.7470  -21.3770  -37.8690 C.3    49  LEU49       0.0001
     12  CD2        6.7390  -20.5050  -35.5260 C.3    49  LEU49       0.0001
     13  N          8.6410  -16.4840  -34.8560 N.3   121  ASN121     -0.1225
     14  CA         9.7150  -16.3070  -35.8290 C.3   121  ASN121      0.1785
     15  C          9.8620  -14.8540  -36.2560 C.2   121  ASN121      0.2597
     16  O         10.8220  -14.1790  -35.8870 O.2   121  ASN121     -0.2718
     17  CB         9.4720  -17.1790  -37.0630 C.3   121  ASN121      0.1169
     18  CG        10.0590  -18.5670  -36.9230 C.2   121  ASN121      0.2627
     19  OD1       10.6530  -18.9020  -35.8990 O.2   121  ASN121     -0.2716
     20  ND2        9.8940  -19.3860  -37.9550 N.am  121  ASN121     -0.0877
     21  N          8.9000  -14.3770  -37.0380 N.am  122  GLU122     -0.1979
     22  CA         8.9580  -13.0210  -37.5640 C.3   122  GLU122      0.1602
     23  C          7.5940  -12.5120  -38.0000 C.2   122  GLU122      0.2287
     24  O          6.6070  -13.2500  -38.0130 O.2   122  GLU122     -0.2864
     25  CB         9.9250  -12.9420  -38.7490 C.3   122  GLU122      0.0415
     26  CG         9.3580  -13.4980  -40.0490 C.3   122  GLU122      0.1163
     27  CD         9.2400  -15.0120  -40.0400 C.2   122  GLU122      0.3649
     28  OE1        8.1200  -15.5240  -40.2540 O.co2 122  GLU122     -0.2457
     29  OE2       10.2680  -15.6880  -39.8230 O.co2 122  GLU122     -0.2457
     30  N         15.6050  -18.1310  -39.3240 N.3   161  ALA161     -0.1231
     31  CA        14.6000  -18.4490  -40.3300 C.3   161  ALA161      0.1694
     32  C         14.6550  -17.4670  -41.4960 C.2   161  ALA161      0.2592
     33  O         15.7220  -17.2350  -42.0660 O.2   161  ALA161     -0.2718
     34  CB        13.2160  -18.4610  -39.7050 C.3   161  ALA161      0.0304
     35  N         13.5060  -16.8940  -41.8420 N.am  162  TYR162     -0.1976
     36  CA        13.3930  -15.9860  -42.9810 C.3   162  TYR162      0.1639
     37  C         14.4220  -14.8560  -42.9130 C.2   162  TYR162      0.2290
     38  O         15.0180  -14.4920  -43.9260 O.2   162  TYR162     -0.2864
     39  CB        11.9780  -15.4080  -43.0500 C.3   162  TYR162      0.0560
     40  CG        11.5610  -14.8990  -44.4130 C.ar  162  TYR162     -0.0198
     41  CD1       12.3500  -15.1170  -45.5340 C.ar  162  TYR162     -0.0009
     42  CD2       10.3780  -14.1910  -44.5740 C.ar  162  TYR162     -0.0009
     43  CE1       11.9660  -14.6490  -46.7770 C.ar  162  TYR162      0.0417
     44  CE2        9.9870  -13.7180  -45.8110 C.ar  162  TYR162      0.0417
     45  CZ        10.7820  -13.9490  -46.9090 C.ar  162  TYR162      0.1957
     46  OH        10.3840  -13.4740  -48.1370 O.3   162  TYR162     -0.2866
     47  N         17.8460  -15.7120  -44.5290 N.3   165  SER165     -0.1217
     48  CA        17.8020  -15.7060  -45.9870 C.3   165  SER165      0.1889
     49  C         17.8310  -14.2810  -46.5440 C.2   165  SER165      0.2288
     50  O         18.3460  -14.0430  -47.6360 O.2   165  SER165     -0.2866
     51  CB        16.5540  -16.4410  -46.4820 C.3   165  SER165      0.2089
     52  OG        16.5490  -17.7900  -46.0440 O.3   165  SER165     -0.2183
     53  N          2.0810  -10.6400  -42.6490 N.3   219  SER219     -0.1217
     54  CA         2.2970  -12.0430  -42.3350 C.3   219  SER219      0.1889
     55  C          2.9500  -12.2220  -40.9680 C.2   219  SER219      0.2288
     56  O          3.9480  -11.5790  -40.6600 O.2   219  SER219     -0.2866
     57  CB         3.1570  -12.6960  -43.4180 C.3   219  SER219      0.2089
     58  OG         3.3830  -14.0640  -43.1340 O.3   219  SER219     -0.2183
     59  N          4.4680  -15.3110  -38.8910 N.3   221  ASP221     -0.1225
     60  CA         4.8650  -16.7180  -38.9450 C.3   221  ASP221      0.1805
     61  C          4.1140  -17.4610  -40.0520 C.2   221  ASP221      0.2597
     62  O          3.4720  -18.4810  -39.8040 O.2   221  ASP221     -0.2718
     63  CB         4.6300  -17.4020  -37.5930 C.3   221  ASP221      0.1424
     64  CG         5.4250  -16.7640  -36.4650 C.2   221  ASP221      0.3668
     65  OD1        6.4630  -16.1280  -36.7430 O.co2 221  ASP221     -0.2456
     66  OD2        5.0130  -16.9040  -35.2940 O.co2 221  ASP221     -0.2456
     67  N          4.1960  -16.9230  -41.2670 N.am  222  HIS222     -0.1975
     68  CA         3.5500  -17.4870  -42.4570 C.3   222  HIS222      0.1656
     69  C          2.0290  -17.5670  -42.3440 C.2   222  HIS222      0.2291
     70  O          1.3900  -18.3680  -43.0270 O.2   222  HIS222     -0.2864
     71  CB         4.1090  -18.8760  -42.7750 C.3   222  HIS222      0.0771
     72  CG         4.0980  -19.2100  -44.2340 C.ar  222  HIS222      0.0820
     73  ND1        4.6600  -20.3630  -44.7400 N.ar  222  HIS222     -0.2267
     74  CD2        3.5990  -18.5380  -45.2990 C.ar  222  HIS222      0.1154
     75  CE1        4.5050  -20.3880  -46.0510 C.ar  222  HIS222      0.1986
     76  NE2        3.8640  -19.2920  -46.4160 N.ar  222  HIS222     -0.2212
@<TRIPOS>BOND
     1    46    45    1
     2    50    49    2
     3    45    43   ar
     4    45    44   ar
     5    43    41   ar
     6    49    48    1
     7    51    52    1
     8    51    48    1
     9    76    75   ar
    10    76    74   ar
    11    75    73   ar
    12    48    47    1
    13    44    42   ar
    14    41    40   ar
    15    74    72   ar
    16    73    72   ar
    17    42    40   ar
    18    40    39    1
    19    72    71    1
    20    38    37    2
    21    57    58    1
    22    57    54    1
    23    39    36    1
    24    70    69    2
    25    36    37    1
    26    36    35    1
    27    71    68    1
    28    53    54    1
    29    68    69    1
    30    68    67    1
    31    54    55    1
    32    33    32    2
    33    35    32   am
    34    32    31    1
    35    67    61   am
    36    55    56    2
    37    31    34    1
    38    31    30    1
    39    28    27   ar
    40    61    62    2
    41    61    60    1
    42    26    27    1
    43    26    25    1
    44    27    29   ar
    45    60    59    1
    46    60    63    1
    47     2     1    1
    48     2     3    1
    49    25    22    1
    50    24    23    2
    51    23    22    1
    52    20    18   am
    53     3     4    2
    54    11    10    1
    55    63    64    1
    56    22    21    1
    57    17    18    1
    58    17    14    1
    59    21    15   am
    60    18    19    2
    61    65    64   ar
    62    64    66   ar
    63    10     9    1
    64    10    12    1
    65    15    16    2
    66    15    14    1
    67     9     6    1
    68    14    13    1
    69     6     5    1
    70     6     7    1
    71     7     8    2
