@<TRIPOS>MOLECULE
tmp/5dhrC01.pdb
 94 88 0 0 0
SMALL
GASTEIGER

@<TRIPOS>ATOM
      1  N        -32.9350  -10.3440   -3.7340 N.3    44  ASP44      -0.1225
      2  CA       -33.5800   -9.1050   -3.3110 C.3    44  ASP44       0.1805
      3  C        -33.4670   -8.0360   -4.3920 C.2    44  ASP44       0.2598
      4  O        -34.3730   -7.2230   -4.5670 O.2    44  ASP44      -0.2718
      5  CB       -32.9740   -8.5950   -2.0010 C.3    44  ASP44       0.1424
      6  CG       -33.4110   -9.4120   -0.8000 C.2    44  ASP44       0.3668
      7  OD1      -34.4910  -10.0360   -0.8650 O.co2  44  ASP44      -0.2456
      8  OD2      -32.6790   -9.4250    0.2120 O.co2  44  ASP44      -0.2456
      9  N        -32.3510   -8.0460   -5.1150 N.am   45  GLY45      -0.1957
     10  CA       -32.1430   -7.1130   -6.2060 C.3    45  GLY45       0.1869
     11  C        -33.1500   -7.3270   -7.3180 C.2    45  GLY45       0.2309
     12  O        -33.6400   -6.3720   -7.9200 O.2    45  GLY45      -0.2863
     13  N        -36.5100   -6.0020   -6.0890 N.3    48  LEU48      -0.1245
     14  CA       -36.5630   -4.5440   -6.1380 C.3    48  LEU48       0.1561
     15  C        -36.9940   -4.0550   -7.5160 C.2    48  LEU48       0.2260
     16  O        -37.7830   -3.1190   -7.6330 O.2    48  LEU48      -0.2867
     17  CB       -35.2040   -3.9460   -5.7670 C.3    48  LEU48       0.0270
     18  CG       -35.0320   -3.4170   -4.3400 C.3    48  LEU48       0.0019
     19  CD1      -35.4530   -4.4530   -3.3100 C.3    48  LEU48       0.0001
     20  CD2      -33.5920   -2.9820   -4.1070 C.3    48  LEU48       0.0001
     21  N        -36.4010   -0.2570   -0.1510 N.3   118  ASN118     -0.1225
     22  CA       -35.2810   -0.3890    0.7720 C.3   118  ASN118      0.1785
     23  C        -34.8840    0.9510    1.3770 C.2   118  ASN118      0.2597
     24  O        -35.1220    1.2040    2.5580 O.2   118  ASN118     -0.2718
     25  CB       -34.0760   -1.0160    0.0700 C.3   118  ASN118      0.1169
     26  CG       -34.0440   -2.5240    0.2000 C.2   118  ASN118      0.2627
     27  OD1      -34.6610   -3.0940    1.0990 O.2   118  ASN118     -0.2716
     28  ND2      -33.3120   -3.1790   -0.6930 N.am  118  ASN118     -0.0877
     29  N        -34.2780    1.8070    0.5610 N.am  119  GLU119     -0.1979
     30  CA       -33.7910    3.0930    1.0420 C.3   119  GLU119      0.1602
     31  C        -33.5750    4.0950   -0.0850 C.2   119  GLU119      0.2287
     32  O        -33.6530    3.7550   -1.2660 O.2   119  GLU119     -0.2864
     33  CB       -32.4810    2.9110    1.8150 C.3   119  GLU119      0.0415
     34  CG       -31.2500    2.7450    0.9330 C.3   119  GLU119      0.1163
     35  CD       -31.2560    1.4450    0.1520 C.2   119  GLU119      0.3649
     36  OE1      -31.2100    1.4990   -1.0950 O.co2 119  GLU119     -0.2457
     37  OE2      -31.3040    0.3710    0.7870 O.co2 119  GLU119     -0.2457
     38  N        -30.6650    7.2160   -0.9360 N.3   121  THR121     -0.1218
     39  CA       -29.4170    7.8370   -0.5070 C.3   121  THR121      0.1862
     40  C        -29.0590    9.0410   -1.3710 C.2   121  THR121      0.2287
     41  O        -29.4330    9.1140   -2.5420 O.2   121  THR121     -0.2866
     42  CB       -28.2460    6.8340   -0.5390 C.3   121  THR121      0.1770
     43  OG1      -27.8540    6.5920   -1.8960 O.3   121  THR121     -0.2211
     44  CG2      -28.6490    5.5200    0.1160 C.3   121  THR121      0.0375
     45  N        -25.6440   11.3750   -2.3670 N.3   123  LYS123     -0.1245
     46  CA       -24.2040   11.5920   -2.2960 C.3   123  LYS123      0.1561
     47  C        -23.7890   12.7440   -3.2040 C.2   123  LYS123      0.2260
     48  O        -24.6250   13.3520   -3.8720 O.2   123  LYS123     -0.2867
     49  CB       -23.4510   10.3130   -2.6680 C.3   123  LYS123      0.0271
     50  CG       -23.8130    9.1180   -1.7940 C.3   123  LYS123      0.0035
     51  CD       -23.1270    7.8420   -2.2570 C.3   123  LYS123      0.0206
     52  CE       -21.6270    7.8960   -2.0220 C.3   123  LYS123      0.1093
     53  NZ       -20.9650    6.6150   -2.3980 N.3   123  LYS123     -0.1314
     54  N        -30.6380   -3.9340    4.9730 N.3   158  ALA158     -0.1231
     55  CA       -29.8670   -3.8150    3.7410 C.3   158  ALA158      0.1694
     56  C        -28.6760   -2.8770    3.9190 C.2   158  ALA158      0.2592
     57  O        -27.7810   -3.1420    4.7200 O.2   158  ALA158     -0.2718
     58  CB       -30.7580   -3.3330    2.6050 C.3   158  ALA158      0.0304
     59  N        -28.6750   -1.7830    3.1630 N.am  159  TYR159     -0.1976
     60  CA       -27.5920   -0.8070    3.2130 C.3   159  TYR159      0.1639
     61  C        -27.4990   -0.1640    4.5940 C.2   159  TYR159      0.2290
     62  O        -26.4050    0.0950    5.0960 O.2   159  TYR159     -0.2864
     63  CB       -27.7990    0.2680    2.1440 C.3   159  TYR159      0.0560
     64  CG       -26.5470    1.0280    1.7710 C.ar  159  TYR159     -0.0198
     65  CD1      -25.2950    0.6010    2.1950 C.ar  159  TYR159     -0.0009
     66  CD2      -26.6190    2.1770    0.9960 C.ar  159  TYR159     -0.0009
     67  CE1      -24.1500    1.2960    1.8530 C.ar  159  TYR159      0.0417
     68  CE2      -25.4820    2.8780    0.6520 C.ar  159  TYR159      0.0417
     69  CZ       -24.2510    2.4350    1.0810 C.ar  159  TYR159      0.1957
     70  OH       -23.1190    3.1360    0.7340 O.3   159  TYR159     -0.2866
     71  N        -25.3620   -2.2090    6.9340 N.3   162  SER162     -0.1217
     72  CA       -23.9310   -2.0880    6.6820 C.3   162  SER162      0.1889
     73  C        -23.3760   -0.7530    7.1690 C.2   162  SER162      0.2288
     74  O        -22.1940   -0.6430    7.4910 O.2   162  SER162     -0.2866
     75  CB       -23.6390   -2.2570    5.1900 C.3   162  SER162      0.2089
     76  OG       -24.1430   -3.4890    4.7060 O.3   162  SER162     -0.2183
     77  N        -33.2290    2.8540   -4.0940 N.3   218  ASP218     -0.1225
     78  CA       -33.0320    1.4070   -4.1450 C.3   218  ASP218      0.1805
     79  C        -31.8850    1.0340   -5.0830 C.2   218  ASP218      0.2597
     80  O        -30.7250    1.3290   -4.8000 O.2   218  ASP218     -0.2718
     81  CB       -34.3220    0.6960   -4.5650 C.3   218  ASP218      0.1424
     82  CG       -35.4390    0.8690   -3.5520 C.2   218  ASP218      0.3668
     83  OD1      -35.1360    0.9740   -2.3460 O.co2 218  ASP218     -0.2456
     84  OD2      -36.6180    0.9030   -3.9610 O.co2 218  ASP218     -0.2456
     85  N        -32.2130    0.3950   -6.2010 N.am  219  HIS219     -0.1975
     86  CA       -31.1940   -0.1110   -7.1160 C.3   219  HIS219      0.1656
     87  C        -30.8220    0.8950   -8.2040 C.2   219  HIS219      0.2291
     88  O        -29.8870    0.6680   -8.9720 O.2   219  HIS219     -0.2864
     89  CB       -31.6650   -1.4170   -7.7610 C.3   219  HIS219      0.0771
     90  CG       -32.8610   -1.2570   -8.6480 C.ar  219  HIS219      0.0820
     91  ND1      -34.1260   -1.0190   -8.1570 N.ar  219  HIS219     -0.2267
     92  CD2      -32.9830   -1.3050   -9.9960 C.ar  219  HIS219      0.1154
     93  CE1      -34.9770   -0.9250   -9.1640 C.ar  219  HIS219      0.1986
     94  NE2      -34.3080   -1.0950  -10.2900 N.ar  219  HIS219     -0.2212
@<TRIPOS>BOND
     1    94    92   ar
     2    94    93   ar
     3    92    90   ar
     4    93    91   ar
     5    88    87    2
     6    90    91   ar
     7    90    89    1
     8    87    86    1
     9    12    11    2
    10    89    86    1
    11    16    15    2
    12    15    14    1
    13    11    10    1
    14    86    85    1
    15    10     9    1
    16    85    79   am
    17    14    13    1
    18    14    17    1
    19    17    18    1
    20     9     3   am
    21    79    80    2
    22    79    78    1
    23     4     3    2
    24    81    78    1
    25    81    82    1
    26     3     2    1
    27    18    20    1
    28    18    19    1
    29    78    77    1
    30    84    82   ar
    31    48    47    2
    32     1     2    1
    33    82    83   ar
    34     2     5    1
    35    47    46    1
    36    49    46    1
    37    49    50    1
    38    41    40    2
    39    53    52    1
    40    45    46    1
    41    51    52    1
    42    51    50    1
    43     5     6    1
    44    43    42    1
    45    40    39    1
    46    32    31    2
    47    36    35   ar
    48    38    39    1
    49     7     6   ar
    50     6     8   ar
    51    28    26   am
    52    42    39    1
    53    42    44    1
    54    21    22    1
    55    31    30    1
    56    25    26    1
    57    25    22    1
    58    35    37   ar
    59    35    34    1
    60    26    27    2
    61    29    30    1
    62    29    23   am
    63    68    66   ar
    64    68    69   ar
    65    70    69    1
    66    22    23    1
    67    34    33    1
    68    66    64   ar
    69    30    33    1
    70    69    67   ar
    71    23    24    2
    72    64    63    1
    73    64    65   ar
    74    67    65   ar
    75    63    60    1
    76    58    55    1
    77    59    60    1
    78    59    56   am
    79    60    61    1
    80    55    56    1
    81    55    54    1
    82    56    57    2
    83    61    62    2
    84    76    75    1
    85    75    72    1
    86    72    71    1
    87    72    73    1
    88    73    74    2
