@<TRIPOS>MOLECULE
tmp/5dhrC00.pdb
 83 81 0 0 0
SMALL
GASTEIGER

@<TRIPOS>ATOM
      1  N        -25.6440   11.3750   -2.3670 N.3   123  LYS123     -0.1231
      2  CA       -24.2040   11.5920   -2.2960 C.3   123  LYS123      0.1693
      3  C        -23.7890   12.7440   -3.2040 C.2   123  LYS123      0.2592
      4  O        -24.6250   13.3520   -3.8720 O.2   123  LYS123     -0.2718
      5  CB       -23.4510   10.3130   -2.6680 C.3   123  LYS123      0.0285
      6  CG       -23.8130    9.1180   -1.7940 C.3   123  LYS123      0.0035
      7  CD       -23.1270    7.8420   -2.2570 C.3   123  LYS123      0.0206
      8  CE       -21.6270    7.8960   -2.0220 C.3   123  LYS123      0.1093
      9  NZ       -20.9650    6.6150   -2.3980 N.3   123  LYS123     -0.1314
     10  N        -22.4960   13.0440   -3.2230 N.am  124  SER124     -0.1952
     11  CA       -21.9830   14.1450   -4.0300 C.3   124  SER124      0.1924
     12  C        -21.8520   13.7500   -5.4980 C.2   124  SER124      0.2314
     13  O        -22.1050   12.6040   -5.8680 O.2   124  SER124     -0.2863
     14  CB       -20.6320   14.6150   -3.4920 C.3   124  SER124      0.2116
     15  OG       -20.1000   15.6590   -4.2880 O.3   124  SER124     -0.2180
     16  N        -18.9450   14.3710   -7.0660 N.3   126  GLY126     -0.1210
     17  CA       -17.5070   14.3160   -7.2500 C.3   126  GLY126      0.1956
     18  C        -16.7420   14.7730   -6.0230 C.2   126  GLY126      0.2612
     19  O        -15.9790   14.0060   -5.4340 O.2   126  GLY126     -0.2717
     20  N        -16.9490   16.0270   -5.6330 N.am  127  GLY127     -0.1942
     21  CA       -16.2590   16.5960   -4.4900 C.3   127  GLY127      0.1998
     22  C        -16.8810   16.2020   -3.1640 C.2   127  GLY127      0.2481
     23  O        -17.5420   15.1700   -3.0670 O.2   127  GLY127     -0.2729
     24  N        -16.6690   17.0270   -2.1270 N.am  128  PRO128     -0.2715
     25  CA       -17.2160   16.7620   -0.7920 C.3   128  PRO128      0.1536
     26  C        -18.7290   16.9530   -0.7330 C.2   128  PRO128      0.2598
     27  O        -19.2630   17.8660   -1.3630 O.2   128  PRO128     -0.2715
     28  CB       -16.5000   17.7890    0.0870 C.3   128  PRO128      0.0310
     29  CG       -16.1770   18.9070   -0.8390 C.3   128  PRO128      0.0237
     30  CD       -15.8680   18.2630   -2.1600 C.3   128  PRO128      0.0939
     31  N        -19.4060   16.0930    0.0210 N.am  129  PHE129     -0.1974
     32  CA       -20.8550   16.1670    0.1660 C.3   129  PHE129      0.1639
     33  C        -21.2400   16.9960    1.3880 C.2   129  PHE129      0.2290
     34  O        -21.0520   16.5630    2.5240 O.2   129  PHE129     -0.2864
     35  CB       -21.4490   14.7590    0.2670 C.3   129  PHE129      0.0560
     36  CG       -22.9230   14.7390    0.5580 C.ar  129  PHE129     -0.0200
     37  CD1      -23.8440   14.9530   -0.4530 C.ar  129  PHE129     -0.0042
     38  CD2      -23.3860   14.4930    1.8400 C.ar  129  PHE129     -0.0042
     39  CE1      -25.2000   14.9320   -0.1890 C.ar  129  PHE129     -0.0003
     40  CE2      -24.7410   14.4690    2.1110 C.ar  129  PHE129     -0.0003
     41  CZ       -25.6500   14.6880    1.0950 C.ar  129  PHE129     -0.0000
     42  N        -21.2620   16.8460    6.5990 N.3   144  ARG144     -0.1231
     43  CA       -20.1710   16.7840    5.6320 C.3   144  ARG144      0.1694
     44  C        -19.5310   15.3990    5.6420 C.2   144  ARG144      0.2593
     45  O        -19.0530   14.9320    6.6750 O.2   144  ARG144     -0.2718
     46  CB       -19.1190   17.8550    5.9230 C.3   144  ARG144      0.0321
     47  CG       -18.0120   17.9280    4.8780 C.3   144  ARG144      0.0489
     48  CD       -17.1540   19.1680    5.0650 C.3   144  ARG144      0.2205
     49  NE       -16.2780   19.4160    3.9230 N.pl3 144  ARG144     -0.0865
     50  CZ       -14.9970   19.0660    3.8720 C.cat 144  ARG144      0.5346
     51  NH1      -14.4330   18.4520    4.9020 N.pl3 144  ARG144      0.1354
     52  NH2      -14.2780   19.3340    2.7900 N.pl3 144  ARG144      0.1354
     53  N        -19.5290   14.7440    4.4860 N.am  145  GLY145     -0.1942
     54  CA       -18.9690   13.4100    4.3730 C.3   145  GLY145      0.2014
     55  C        -19.2190   12.7960    3.0110 C.2   145  GLY145      0.2638
     56  O        -19.0270   13.4450    1.9830 O.2   145  GLY145     -0.2714
     57  N        -19.6510   11.5390    3.0030 N.am  146  ASP146     -0.1971
     58  CA       -19.9320   10.8360    1.7570 C.3   146  ASP146      0.1709
     59  C        -21.3940   10.9850    1.3510 C.2   146  ASP146      0.2293
     60  O        -21.6980   11.2240    0.1830 O.2   146  ASP146     -0.2864
     61  CB       -19.5660    9.3560    1.8810 C.3   146  ASP146      0.1436
     62  CG       -18.0680    9.1280    1.9290 C.2   146  ASP146      0.3671
     63  OD1      -17.3230   10.1080    2.1400 O.co2 146  ASP146     -0.2456
     64  OD2      -17.6360    7.9680    1.7610 O.co2 146  ASP146     -0.2456
     65  N        -19.8510    8.0890    6.4470 N.3   181  ALA181     -0.1231
     66  CA       -18.5010    8.6220    6.6220 C.3   181  ALA181      0.1694
     67  C        -18.5070   10.1120    6.9540 C.2   181  ALA181      0.2593
     68  O        -17.8930   10.9160    6.2520 O.2   181  ALA181     -0.2718
     69  CB       -17.6650    8.3610    5.3730 C.3   181  ALA181      0.0304
     70  N        -19.2070   10.4750    8.0230 N.am  182  SER182     -0.1938
     71  CA       -19.2570   11.8630    8.4680 C.3   182  SER182      0.2055
     72  C        -17.9160   12.2930    9.0500 C.2   182  SER182      0.2642
     73  O        -17.3360   11.5860    9.8750 O.2   182  SER182     -0.2714
     74  CB       -20.3640   12.0570    9.5040 C.3   182  SER182      0.2130
     75  OG       -20.4230   13.4040    9.9410 O.3   182  SER182     -0.2179
     76  N        -17.4240   13.4500    8.6190 N.am  183  ILE183     -0.1977
     77  CA       -16.1590   13.9660    9.1270 C.3   183  ILE183      0.1596
     78  C        -16.3320   14.4010   10.5830 C.2   183  ILE183      0.2287
     79  O        -15.4110   14.2710   11.3900 O.2   183  ILE183     -0.2864
     80  CB       -15.6270   15.1380    8.2610 C.3   183  ILE183      0.0276
     81  CG1      -14.2310   15.5630    8.7230 C.3   183  ILE183      0.0022
     82  CG2      -16.5920   16.3190    8.2670 C.3   183  ILE183      0.0022
     83  CD1      -13.6120   16.6510    7.8730 C.3   183  ILE183      0.0001
@<TRIPOS>BOND
     1    17    16    1
     2    17    18    1
     3    18    20   am
     4    18    19    2
     5    13    12    2
     6    20    21    1
     7    12    11    1
     8    21    22    1
     9    15    14    1
    10    11    14    1
    11    11    10    1
    12     4     3    2
    13    10     3   am
    14     3     2    1
    15    22    23    2
    16    22    24   am
    17     5     2    1
    18     5     6    1
    19     9     8    1
    20     1     2    1
    21     7     8    1
    22     7     6    1
    23    30    24    1
    24    30    29    1
    25    24    25    1
    26    27    26    2
    27    29    28    1
    28    25    26    1
    29    25    28    1
    30    26    31   am
    31    37    39   ar
    32    37    36   ar
    33    39    41   ar
    34    31    32    1
    35    32    35    1
    36    32    33    1
    37    60    59    2
    38    35    36    1
    39    36    38   ar
    40    41    40   ar
    41    59    58    1
    42    33    34    2
    43    58    61    1
    44    58    57    1
    45    64    62   ar
    46    38    40   ar
    47    61    62    1
    48    62    63   ar
    49    56    55    2
    50    52    50    1
    51    57    55   am
    52    55    54    1
    53    50    49    2
    54    50    51    1
    55    49    48    1
    56    54    53    1
    57    53    44   am
    58    47    48    1
    59    47    46    1
    60    69    66    1
    61    43    44    1
    62    43    46    1
    63    43    42    1
    64    44    45    2
    65    68    67    2
    66    65    66    1
    67    66    67    1
    68    67    70   am
    69    83    81    1
    70    70    71    1
    71    80    82    1
    72    80    81    1
    73    80    77    1
    74    71    72    1
    75    71    74    1
    76    76    72   am
    77    76    77    1
    78    72    73    2
    79    77    78    1
    80    74    75    1
    81    78    79    2
