@<TRIPOS>MOLECULE
tmp/5dhsA02.pdb
 72 69 0 0 0
SMALL
GASTEIGER

@<TRIPOS>ATOM
      1  N          3.8830   -5.5180  -46.4450 N.3   126  LYS126     -0.1231
      2  CA         4.0710   -5.2710  -47.8670 C.3   126  LYS126      0.1693
      3  C          2.8740   -4.5000  -48.4140 C.2   126  LYS126      0.2592
      4  O          2.0150   -4.0620  -47.6500 O.2   126  LYS126     -0.2718
      5  CB         4.2630   -6.5900  -48.6180 C.3   126  LYS126      0.0285
      6  CG         5.5030   -7.3600  -48.1830 C.3   126  LYS126      0.0035
      7  CD         5.6540   -8.6700  -48.9380 C.3   126  LYS126      0.0206
      8  CE         5.8240   -8.4410  -50.4290 C.3   126  LYS126      0.1093
      9  NZ         5.9700   -9.7270  -51.1650 N.3   126  LYS126     -0.1314
     10  N          2.8170   -4.3270  -49.7300 N.am  127  SER127     -0.1952
     11  CA         1.6960   -3.6220  -50.3420 C.3   127  SER127      0.1924
     12  C          0.5550   -4.5820  -50.6590 C.2   127  SER127      0.2314
     13  O          0.5360   -5.7150  -50.1820 O.2   127  SER127     -0.2863
     14  CB         2.1430   -2.8980  -51.6130 C.3   127  SER127      0.2116
     15  OG         2.6180   -3.8160  -52.5820 O.3   127  SER127     -0.2180
     16  N         -0.9020   -4.0920  -54.0400 N.3   129  GLY129     -0.1210
     17  CA        -0.9710   -3.9450  -55.4800 C.3   129  GLY129      0.1956
     18  C          0.3530   -3.4880  -56.0580 C.2   129  GLY129      0.2612
     19  O          1.2300   -4.3040  -56.3450 O.2   129  GLY129     -0.2717
     20  N          0.5030   -2.1790  -56.2260 N.am  130  GLY130     -0.1942
     21  CA         1.7200   -1.6280  -56.7890 C.3   130  GLY130      0.1998
     22  C          2.8110   -1.4060  -55.7600 C.2   130  GLY130      0.2480
     23  O          3.1350   -2.3080  -54.9860 O.2   130  GLY130     -0.2729
     24  N          3.3830   -0.1940  -55.7440 N.am  131  PRO131     -0.2726
     25  CA         4.5050    0.1760  -54.8730 C.3   131  PRO131      0.1402
     26  C          4.1410    0.2190  -53.3920 C.2   131  PRO131      0.2269
     27  O          3.0010    0.5180  -53.0360 O.2   131  PRO131     -0.2865
     28  CB         4.8860    1.5770  -55.3680 C.3   131  PRO131      0.0296
     29  CG         4.3120    1.6760  -56.7410 C.3   131  PRO131      0.0237
     30  CD         3.0490    0.8830  -56.6890 C.3   131  PRO131      0.0939
     31  N         10.5700    2.8380  -50.0800 N.3   147  ARG147     -0.1231
     32  CA         9.8900    2.4040  -51.2970 C.3   147  ARG147      0.1694
     33  C         10.4860    1.0950  -51.8090 C.2   147  ARG147      0.2593
     34  O         11.6570    1.0420  -52.1840 O.2   147  ARG147     -0.2718
     35  CB         9.9770    3.4720  -52.3870 C.3   147  ARG147      0.0321
     36  CG         9.2910    3.0670  -53.6830 C.3   147  ARG147      0.0489
     37  CD         9.2460    4.2110  -54.6790 C.3   147  ARG147      0.2205
     38  NE         8.9160    3.7480  -56.0230 N.pl3 147  ARG147     -0.0865
     39  CZ         7.6990    3.7990  -56.5530 C.cat 147  ARG147      0.5346
     40  NH1        6.6910    4.2990  -55.8530 N.pl3 147  ARG147      0.1354
     41  NH2        7.4910    3.3530  -57.7840 N.pl3 147  ARG147      0.1354
     42  N          9.6740    0.0430  -51.8280 N.am  148  GLY148     -0.1942
     43  CA        10.1270   -1.2600  -52.2840 C.3   148  GLY148      0.2014
     44  C          9.0630   -2.3280  -52.1260 C.2   148  GLY148      0.2638
     45  O          7.8840   -2.0780  -52.3750 O.2   148  GLY148     -0.2714
     46  N          9.4780   -3.5230  -51.7180 N.am  149  ASP149     -0.1971
     47  CA         8.5410   -4.6180  -51.4900 C.3   149  ASP149      0.1709
     48  C          7.8810   -4.4940  -50.1250 C.2   149  ASP149      0.2293
     49  O          6.6640   -4.6280  -49.9970 O.2   149  ASP149     -0.2864
     50  CB         9.2460   -5.9700  -51.6100 C.3   149  ASP149      0.1436
     51  CG         9.6310   -6.3030  -53.0370 C.2   149  ASP149      0.3671
     52  OD1        9.7810   -5.3650  -53.8440 O.co2 149  ASP149     -0.2456
     53  OD2        9.7860   -7.5000  -53.3520 O.co2 149  ASP149     -0.2456
     54  N         13.8970   -5.3880  -50.6400 N.3   184  ALA184     -0.1231
     55  CA        14.0590   -4.8560  -51.9920 C.3   184  ALA184      0.1694
     56  C         13.8020   -3.3530  -52.0730 C.2   184  ALA184      0.2593
     57  O         12.9290   -2.9030  -52.8150 O.2   184  ALA184     -0.2718
     58  CB        13.1470   -5.5970  -52.9630 C.3   184  ALA184      0.0304
     59  N         14.5690   -2.5820  -51.3090 N.am  185  SER185     -0.1938
     60  CA        14.4430   -1.1300  -51.3200 C.3   185  SER185      0.2055
     61  C         15.1030   -0.5660  -52.5720 C.2   185  SER185      0.2642
     62  O         16.1780   -1.0120  -52.9680 O.2   185  SER185     -0.2714
     63  CB        15.0710   -0.5200  -50.0670 C.3   185  SER185      0.2130
     64  OG        14.9860    0.8940  -50.0900 O.3   185  SER185     -0.2179
     65  N         14.4650    0.4250  -53.1850 N.am  186  ILE186     -0.1977
     66  CA        15.0200    1.0530  -54.3760 C.3   186  ILE186      0.1596
     67  C         16.1510    2.0010  -53.9830 C.2   186  ILE186      0.2287
     68  O         17.1120    2.1730  -54.7350 O.2   186  ILE186     -0.2864
     69  CB        13.9270    1.8090  -55.1780 C.3   186  ILE186      0.0276
     70  CG1       14.5010    2.3990  -56.4680 C.3   186  ILE186      0.0022
     71  CG2       13.2640    2.8860  -54.3260 C.3   186  ILE186      0.0022
     72  CD1       13.4680    3.0950  -57.3290 C.3   186  ILE186      0.0001
@<TRIPOS>BOND
     1    41    39    1
     2    72    70    1
     3    21    20    1
     4    21    22    1
     5    29    30    1
     6    29    28    1
     7    30    24    1
     8    39    38    2
     9    39    40    1
    10    70    69    1
    11    19    18    2
    12    20    18   am
    13    18    17    1
    14    38    37    1
    15    22    24   am
    16    22    23    2
    17    24    25    1
    18    17    16    1
    19    28    25    1
    20    69    66    1
    21    69    71    1
    22    25    26    1
    23    68    67    2
    24    37    36    1
    25    66    67    1
    26    66    65    1
    27    52    51   ar
    28    36    35    1
    29    26    27    2
    30    53    51   ar
    31    65    61   am
    32    51    50    1
    33    62    61    2
    34    58    55    1
    35    57    56    2
    36    15    14    1
    37    61    60    1
    38    35    32    1
    39    45    44    2
    40    43    44    1
    41    43    42    1
    42    34    33    2
    43    44    46   am
    44    56    55    1
    45    56    59   am
    46    55    54    1
    47    42    33   am
    48    33    32    1
    49    46    47    1
    50    14    11    1
    51    50    47    1
    52    47    48    1
    53    60    59    1
    54    60    63    1
    55    32    31    1
    56     9     8    1
    57    12    11    1
    58    12    13    2
    59     8     7    1
    60    11    10    1
    61    48    49    2
    62    64    63    1
    63    10     3   am
    64     7     6    1
    65     5     6    1
    66     5     2    1
    67     3     2    1
    68     3     4    2
    69     2     1    1
