@<TRIPOS>MOLECULE
tmp/5dhsA01.pdb
 76 71 0 0 0
SMALL
GASTEIGER

@<TRIPOS>ATOM
      1  N          7.5550  -24.7300  -38.1850 N.3    46  GLY46      -0.1225
      2  CA         6.2680  -24.2730  -38.6730 C.3    46  GLY46       0.1811
      3  C          5.1400  -24.7990  -37.8080 C.2    46  GLY46       0.2280
      4  O          4.1480  -24.1100  -37.5730 O.2    46  GLY46      -0.2866
      5  N          5.1850  -22.8150  -34.5790 N.3    49  LEU49      -0.1245
      6  CA         4.5580  -21.5070  -34.7360 C.3    49  LEU49       0.1561
      7  C          3.0490  -21.5840  -34.5400 C.2    49  LEU49       0.2260
      8  O          2.4400  -20.6720  -33.9800 O.2    49  LEU49      -0.2867
      9  CB         4.8750  -20.9210  -36.1150 C.3    49  LEU49       0.0270
     10  CG         6.3140  -20.4650  -36.3560 C.3    49  LEU49       0.0019
     11  CD1        6.4900  -19.9830  -37.7870 C.3    49  LEU49       0.0001
     12  CD2        6.6960  -19.3700  -35.3710 C.3    49  LEU49       0.0001
     13  N          8.4200  -15.2890  -34.6660 N.3   121  ASN121     -0.1225
     14  CA         9.4960  -15.1400  -35.6410 C.3   121  ASN121      0.1785
     15  C          9.6550  -13.6870  -36.0760 C.2   121  ASN121      0.2597
     16  O         10.6230  -13.0230  -35.7040 O.2   121  ASN121     -0.2718
     17  CB         9.2560  -16.0320  -36.8620 C.3   121  ASN121      0.1169
     18  CG         9.8980  -17.4020  -36.7220 C.2   121  ASN121      0.2627
     19  OD1       10.7210  -17.6280  -35.8340 O.2   121  ASN121     -0.2716
     20  ND2        9.5330  -18.3200  -37.6100 N.am  121  ASN121     -0.0877
     21  N          8.7000  -13.1950  -36.8630 N.am  122  GLU122     -0.1979
     22  CA         8.7400  -11.8140  -37.3340 C.3   122  GLU122      0.1602
     23  C          7.3850  -11.3140  -37.8290 C.2   122  GLU122      0.2287
     24  O          6.4220  -12.0750  -37.9310 O.2   122  GLU122     -0.2864
     25  CB         9.7730  -11.6670  -38.4560 C.3   122  GLU122      0.0415
     26  CG         9.2500  -12.0200  -39.8430 C.3   122  GLU122      0.1163
     27  CD         9.0200  -13.5090  -40.0230 C.2   122  GLU122      0.3649
     28  OE1        8.0640  -13.8870  -40.7320 O.co2 122  GLU122     -0.2457
     29  OE2        9.8020  -14.3030  -39.4600 O.co2 122  GLU122     -0.2457
     30  N         15.6280  -16.9260  -39.2590 N.3   161  ALA161     -0.1231
     31  CA        14.5770  -17.2810  -40.2050 C.3   161  ALA161      0.1694
     32  C         14.5610  -16.3630  -41.4260 C.2   161  ALA161      0.2592
     33  O         15.5400  -16.2900  -42.1690 O.2   161  ALA161     -0.2718
     34  CB        13.2330  -17.2580  -39.5090 C.3   161  ALA161      0.0304
     35  N         13.4440  -15.6700  -41.6290 N.am  162  TYR162     -0.1976
     36  CA        13.2830  -14.7730  -42.7710 C.3   162  TYR162      0.1639
     37  C         14.3080  -13.6440  -42.7240 C.2   162  TYR162      0.2290
     38  O         14.7780  -13.1740  -43.7600 O.2   162  TYR162     -0.2864
     39  CB        11.8660  -14.1960  -42.8050 C.3   162  TYR162      0.0560
     40  CG        11.4200  -13.7140  -44.1700 C.ar  162  TYR162     -0.0198
     41  CD1       12.2020  -13.9320  -45.2970 C.ar  162  TYR162     -0.0009
     42  CD2       10.2180  -13.0350  -44.3300 C.ar  162  TYR162     -0.0009
     43  CE1       11.7980  -13.4940  -46.5440 C.ar  162  TYR162      0.0417
     44  CE2        9.8060  -12.5900  -45.5730 C.ar  162  TYR162      0.0417
     45  CZ        10.6010  -12.8220  -46.6760 C.ar  162  TYR162      0.1957
     46  OH        10.1980  -12.3830  -47.9170 O.3   162  TYR162     -0.2866
     47  N         17.6960  -14.4310  -44.4900 N.3   165  SER165     -0.1217
     48  CA        17.6030  -14.4580  -45.9450 C.3   165  SER165      0.1889
     49  C         17.5310  -13.0470  -46.5200 C.2   165  SER165      0.2288
     50  O         17.9390  -12.8080  -47.6570 O.2   165  SER165     -0.2866
     51  CB        16.3870  -15.2720  -46.3900 C.3   165  SER165      0.2089
     52  OG        16.4870  -16.6140  -45.9480 O.3   165  SER165     -0.2183
     53  N          1.8630   -9.4530  -42.5490 N.3   219  SER219     -0.1217
     54  CA         2.0780  -10.8620  -42.2650 C.3   219  SER219      0.1889
     55  C          2.7600  -11.0430  -40.9170 C.2   219  SER219      0.2288
     56  O          3.8140  -10.4640  -40.6640 O.2   219  SER219     -0.2866
     57  CB         2.9090  -11.5140  -43.3710 C.3   219  SER219      0.2089
     58  OG         3.3530  -12.8020  -42.9820 O.3   219  SER219     -0.2183
     59  N          4.2250  -14.1160  -38.6180 N.3   221  ASP221     -0.1225
     60  CA         4.5750  -15.5340  -38.5880 C.3   221  ASP221      0.1805
     61  C          3.9170  -16.2920  -39.7470 C.2   221  ASP221      0.2597
     62  O          3.3980  -17.3950  -39.5680 O.2   221  ASP221     -0.2718
     63  CB         4.2010  -16.1490  -37.2380 C.3   221  ASP221      0.1424
     64  CG         5.0170  -15.5730  -36.0900 C.2   221  ASP221      0.3668
     65  OD1        5.7840  -14.6140  -36.3250 O.co2 221  ASP221     -0.2456
     66  OD2        4.8980  -16.0790  -34.9550 O.co2 221  ASP221     -0.2456
     67  N          3.9250  -15.6540  -40.9170 N.am  222  HIS222     -0.1975
     68  CA         3.3620  -16.1730  -42.1710 C.3   222  HIS222      0.1656
     69  C          1.8520  -16.2740  -42.1630 C.2   222  HIS222      0.2291
     70  O          1.2730  -17.0180  -42.9510 O.2   222  HIS222     -0.2864
     71  CB         3.9250  -17.5390  -42.5080 C.3   222  HIS222      0.0771
     72  CG         3.9060  -17.8710  -43.9680 C.ar  222  HIS222      0.0820
     73  ND1        4.2030  -19.1300  -44.4460 N.ar  222  HIS222     -0.2267
     74  CD2        3.6580  -17.1060  -45.0580 C.ar  222  HIS222      0.1154
     75  CE1        4.1220  -19.1300  -45.7640 C.ar  222  HIS222      0.1986
     76  NE2        3.7930  -17.9140  -46.1610 N.ar  222  HIS222     -0.2212
@<TRIPOS>BOND
     1    46    45    1
     2    50    49    2
     3    45    43   ar
     4    45    44   ar
     5    43    41   ar
     6    49    48    1
     7    51    52    1
     8    51    48    1
     9    76    75   ar
    10    76    74   ar
    11    48    47    1
    12    75    73   ar
    13    44    42   ar
    14    41    40   ar
    15    74    72   ar
    16    73    72   ar
    17    42    40   ar
    18    40    39    1
    19    72    71    1
    20    38    37    2
    21    57    58    1
    22    57    54    1
    23    70    69    2
    24    39    36    1
    25    36    37    1
    26    36    35    1
    27    53    54    1
    28    71    68    1
    29    54    55    1
    30    68    69    1
    31    68    67    1
    32    33    32    2
    33    35    32   am
    34    32    31    1
    35    55    56    2
    36    67    61   am
    37    28    27   ar
    38    31    34    1
    39    31    30    1
    40    27    26    1
    41    27    29   ar
    42    26    25    1
    43    61    62    2
    44    61    60    1
    45     2     1    1
    46     2     3    1
    47    59    60    1
    48    60    63    1
    49    25    22    1
    50    24    23    2
    51    23    22    1
    52     3     4    2
    53    11    10    1
    54    20    18   am
    55    22    21    1
    56    63    64    1
    57    21    15   am
    58    17    18    1
    59    17    14    1
    60    18    19    2
    61    10     9    1
    62    10    12    1
    63    65    64   ar
    64     9     6    1
    65    64    66   ar
    66    15    16    2
    67    15    14    1
    68    14    13    1
    69     6     5    1
    70     6     7    1
    71     7     8    2
