@<TRIPOS>MOLECULE
tmp/5dhuB01.pdb
 92 85 0 0 0
SMALL
GASTEIGER

@<TRIPOS>ATOM
      1  N         37.7890    9.4330  -35.1940 N.3    46  GLY46      -0.1225
      2  CA        39.1770    9.0150  -35.1070 C.3    46  GLY46       0.1811
      3  C         39.8780    9.6640  -33.9300 C.2    46  GLY46       0.2280
      4  O         40.6840    9.0310  -33.2450 O.2    46  GLY46      -0.2866
      5  N         38.4910    8.0140  -30.7140 N.3    49  LEU49      -0.1245
      6  CA        39.1070    6.7110  -30.4860 C.3    49  LEU49       0.1561
      7  C         40.4750    6.8590  -29.8310 C.2    49  LEU49       0.2260
      8  O         40.8530    6.0600  -28.9760 O.2    49  LEU49      -0.2867
      9  CB        39.2340    5.9390  -31.8000 C.3    49  LEU49       0.0270
     10  CG        37.9350    5.4600  -32.4520 C.3    49  LEU49       0.0019
     11  CD1       38.2150    4.9010  -33.8360 C.3    49  LEU49       0.0001
     12  CD2       37.2480    4.4200  -31.5800 C.3    49  LEU49       0.0001
     13  N         35.2490    0.3890  -31.2600 N.3   118  ASN118     -0.1225
     14  CA        34.5780    0.1060  -32.5230 C.3   118  ASN118      0.1785
     15  C         34.5990   -1.3780  -32.8730 C.2   118  ASN118      0.2597
     16  O         33.5790   -2.0600  -32.7770 O.2   118  ASN118     -0.2718
     17  CB        35.2100    0.9140  -33.6580 C.3   118  ASN118      0.1169
     18  CG        34.6290    2.3080  -33.7760 C.2   118  ASN118      0.2627
     19  OD1       33.5090    2.5660  -33.3330 O.2   118  ASN118     -0.2716
     20  ND2       35.3830    3.2140  -34.3870 N.am  118  ASN118     -0.0877
     21  N         35.7630   -1.8740  -33.2810 N.am  119  GLU119     -0.1979
     22  CA        35.8870   -3.2710  -33.6820 C.3   119  GLU119      0.1602
     23  C         37.3230   -3.7750  -33.6030 C.2   119  GLU119      0.2287
     24  O         38.2620   -2.9990  -33.4250 O.2   119  GLU119     -0.2864
     25  CB        35.3590   -3.4690  -35.1060 C.3   119  GLU119      0.0415
     26  CG        36.3390   -3.0630  -36.1990 C.3   119  GLU119      0.1163
     27  CD        36.6140   -1.5730  -36.2180 C.2   119  GLU119      0.3649
     28  OE1       35.6470   -0.7940  -36.3480 O.co2 119  GLU119     -0.2457
     29  OE2       37.7940   -1.1810  -36.0980 O.co2 119  GLU119     -0.2457
     30  N         39.7610   -6.4610  -35.8740 N.3   121  THR121     -0.1218
     31  CA        39.8800   -7.3050  -37.0580 C.3   121  THR121      0.1862
     32  C         41.1740   -8.1100  -37.0530 C.2   121  THR121      0.2287
     33  O         42.1790   -7.6880  -36.4810 O.2   121  THR121     -0.2866
     34  CB        39.8170   -6.4720  -38.3510 C.3   121  THR121      0.1770
     35  OG1       40.9470   -5.5940  -38.4120 O.3   121  THR121     -0.2211
     36  CG2       38.5380   -5.6500  -38.3950 C.3   121  THR121      0.0375
     37  N         43.6530  -10.1710  -39.8180 N.3   123  LYS123     -0.1245
     38  CA        44.0030  -10.5720  -41.1750 C.3   123  LYS123      0.1561
     39  C         45.2890  -11.3890  -41.1800 C.2   123  LYS123      0.2260
     40  O         45.8430  -11.6970  -40.1260 O.2   123  LYS123     -0.2867
     41  CB        44.1590   -9.3490  -42.0800 C.3   123  LYS123      0.0271
     42  CG        42.9400   -8.4460  -42.1350 C.3   123  LYS123      0.0035
     43  CD        43.1700   -7.2800  -43.0840 C.3   123  LYS123      0.0206
     44  CE        41.9930   -6.3210  -43.0770 C.3   123  LYS123      0.1093
     45  NZ        42.1760   -5.2020  -44.0420 N.3   123  LYS123     -0.1314
     46  N         30.4470    1.6060  -38.0190 N.3   157  ALA157     -0.1231
     47  CA        31.7570    1.8830  -38.5990 C.3   157  ALA157      0.1694
     48  C         32.1090    0.8820  -39.6960 C.2   157  ALA157      0.2592
     49  O         31.3740    0.7370  -40.6750 O.2   157  ALA157     -0.2718
     50  CB        32.8260    1.8780  -37.5140 C.3   157  ALA157      0.0304
     51  N         33.2390    0.2020  -39.5250 N.am  158  TYR158     -0.1976
     52  CA        33.7120   -0.7910  -40.4850 C.3   158  TYR158      0.1639
     53  C         32.6810   -1.9020  -40.6860 C.2   158  TYR158      0.2290
     54  O         32.5060   -2.4080  -41.7960 O.2   158  TYR158     -0.2864
     55  CB        35.0430   -1.3850  -40.0160 C.3   158  TYR158      0.0560
     56  CG        35.8830   -2.0090  -41.1100 C.ar  158  TYR158     -0.0198
     57  CD1       35.4860   -1.9550  -42.4420 C.ar  158  TYR158     -0.0009
     58  CD2       37.0750   -2.6540  -40.8070 C.ar  158  TYR158     -0.0009
     59  CE1       36.2560   -2.5250  -43.4390 C.ar  158  TYR158      0.0417
     60  CE2       37.8510   -3.2270  -41.7960 C.ar  158  TYR158      0.0417
     61  CZ        37.4370   -3.1600  -43.1100 C.ar  158  TYR158      0.1957
     62  OH        38.2080   -3.7290  -44.0970 O.3   158  TYR158     -0.2866
     63  N         30.2060   -1.1640  -43.4270 N.3   161  SER161     -0.1217
     64  CA        30.8060   -1.2570  -44.7550 C.3   161  SER161      0.1889
     65  C         31.0180   -2.7060  -45.1840 C.2   161  SER161      0.2288
     66  O         31.0400   -3.0100  -46.3770 O.2   161  SER161     -0.2866
     67  CB        32.1380   -0.5030  -44.7940 C.3   161  SER161      0.2089
     68  OG        31.9490    0.8780  -44.5430 O.3   161  SER161     -0.2183
     69  N         40.6320   -1.2020  -33.2860 N.3   217  ASP217     -0.1225
     70  CA        40.2970    0.1670  -33.6710 C.3   217  ASP217      0.1805
     71  C         41.3380    0.7350  -34.6320 C.2   217  ASP217      0.2597
     72  O         41.6380    0.1320  -35.6620 O.2   217  ASP217     -0.2718
     73  CB        40.1640    1.0670  -32.4380 C.3   217  ASP217      0.1424
     74  CG        39.0250    0.6480  -31.5310 C.2   217  ASP217      0.3668
     75  OD1       38.0520    0.0500  -32.0380 O.co2 217  ASP217     -0.2456
     76  OD2       39.1020    0.9160  -30.3140 O.co2 217  ASP217     -0.2456
     77  N         41.8860    1.8940  -34.2860 N.am  218  HIS218     -0.1975
     78  CA        42.8960    2.5430  -35.1140 C.3   218  HIS218      0.1656
     79  C         44.2290    1.8010  -35.0440 C.2   218  HIS218      0.2291
     80  O         44.9910    1.7780  -36.0110 O.2   218  HIS218     -0.2864
     81  CB        43.0800    4.0000  -34.6810 C.3   218  HIS218      0.0771
     82  CG        42.9340    4.9860  -35.7970 C.ar  218  HIS218      0.0820
     83  ND1       42.2110    6.1520  -35.6690 N.ar  218  HIS218     -0.2267
     84  CD2       43.4230    4.9830  -37.0590 C.ar  218  HIS218      0.1154
     85  CE1       42.2560    6.8230  -36.8070 C.ar  218  HIS218      0.1986
     86  NE2       42.9850    6.1350  -37.6670 N.ar  218  HIS218     -0.2212
     87  N         46.6370   -0.8210  -35.5050 N.3   220  SER220     -0.1217
     88  CA        46.8410   -2.0220  -36.3090 C.3   220  SER220      0.1889
     89  C         48.2070   -2.6340  -36.0180 C.2   220  SER220      0.2288
     90  O         49.2350   -2.1170  -36.4550 O.2   220  SER220     -0.2866
     91  CB        46.7090   -1.7020  -37.7990 C.3   220  SER220      0.2089
     92  OG        46.8600   -2.8690  -38.5880 O.3   220  SER220     -0.2183
@<TRIPOS>BOND
     1    66    65    2
     2    65    64    1
     3    67    64    1
     4    67    68    1
     5    64    63    1
     6    62    61    1
     7    45    44    1
     8    59    61   ar
     9    59    57   ar
    10    61    60   ar
    11    43    44    1
    12    43    42    1
    13    57    56   ar
    14    42    41    1
    15    41    38    1
    16    54    53    2
    17    60    58   ar
    18    39    38    1
    19    39    40    2
    20    38    37    1
    21    56    58   ar
    22    56    55    1
    23    53    52    1
    24    49    48    2
    25    52    55    1
    26    52    51    1
    27    48    51   am
    28    48    47    1
    29    47    46    1
    30    47    50    1
    31    92    91    1
    32    35    34    1
    33    36    34    1
    34    34    31    1
    35    91    88    1
    36    86    84   ar
    37    86    85   ar
    38    84    82   ar
    39    31    32    1
    40    31    30    1
    41    32    33    2
    42    85    83   ar
    43    90    89    2
    44    28    27   ar
    45    88    89    1
    46    88    87    1
    47    27    26    1
    48    27    29   ar
    49    26    25    1
    50    80    79    2
    51    82    83   ar
    52    82    81    1
    53    72    71    2
    54     1     2    1
    55    78    79    1
    56    78    81    1
    57    78    77    1
    58     2     3    1
    59    25    22    1
    60    71    77   am
    61    71    70    1
    62    20    18   am
    63     3     4    2
    64    11    10    1
    65    18    17    1
    66    18    19    2
    67    22    23    1
    68    22    21    1
    69    70    69    1
    70    70    73    1
    71    17    14    1
    72    23    24    2
    73    21    15   am
    74    15    16    2
    75    15    14    1
    76    14    13    1
    77    10     9    1
    78    10    12    1
    79    73    74    1
    80    75    74   ar
    81     9     6    1
    82    74    76   ar
    83     5     6    1
    84     6     7    1
    85     7     8    2
