@<TRIPOS>MOLECULE
tmp/5dhuB02.pdb
 70 68 0 0 0
SMALL
GASTEIGER

@<TRIPOS>ATOM
      1  N         45.7590  -11.7380  -42.3730 N.3   124  SER124     -0.1217
      2  CA        47.0180  -12.4570  -42.5170 C.3   124  SER124      0.1889
      3  C         48.1660  -11.4780  -42.7400 C.2   124  SER124      0.2288
      4  O         47.9500  -10.2710  -42.8470 O.2   124  SER124     -0.2866
      5  CB        46.9400  -13.4570  -43.6710 C.3   124  SER124      0.2089
      6  OG        46.6900  -12.7990  -44.9010 O.3   124  SER124     -0.2183
      7  N         49.5200  -13.5480  -46.9260 N.3   126  GLY126     -0.1210
      8  CA        48.7680  -14.2310  -47.9620 C.3   126  GLY126      0.1940
      9  C         47.3510  -14.5600  -47.5310 C.2   126  GLY126      0.2454
     10  O         46.6660  -13.7190  -46.9480 O.2   126  GLY126     -0.2732
     11  N         46.9000  -15.7880  -47.8240 N.am  127  PRO127     -0.2717
     12  CA        45.5600  -16.2550  -47.4480 C.3   127  PRO127      0.1535
     13  C         45.3760  -16.3610  -45.9350 C.2   127  PRO127      0.2598
     14  O         46.1900  -16.9850  -45.2540 O.2   127  PRO127     -0.2715
     15  CB        45.4730  -17.6410  -48.1020 C.3   127  PRO127      0.0310
     16  CG        46.5050  -17.6230  -49.1840 C.3   127  PRO127      0.0237
     17  CD        47.6150  -16.7770  -48.6470 C.3   127  PRO127      0.0939
     18  N         44.3110  -15.7520  -45.4260 N.am  128  PHE128     -0.1974
     19  CA        43.9840  -15.8110  -44.0060 C.3   128  PHE128      0.1639
     20  C         43.0670  -16.9940  -43.7170 C.2   128  PHE128      0.2290
     21  O         41.8980  -16.9900  -44.1020 O.2   128  PHE128     -0.2864
     22  CB        43.3310  -14.5020  -43.5580 C.3   128  PHE128      0.0560
     23  CG        42.7330  -14.5550  -42.1800 C.ar  128  PHE128     -0.0200
     24  CD1       43.5310  -14.4250  -41.0580 C.ar  128  PHE128     -0.0042
     25  CD2       41.3680  -14.7180  -42.0090 C.ar  128  PHE128     -0.0042
     26  CE1       42.9800  -14.4670  -39.7910 C.ar  128  PHE128     -0.0003
     27  CE2       40.8120  -14.7600  -40.7440 C.ar  128  PHE128     -0.0003
     28  CZ        41.6190  -14.6330  -39.6350 C.ar  128  PHE128     -0.0000
     29  N         38.2840  -18.8170  -44.5880 N.3   143  ARG143     -0.1231
     30  CA        39.3590  -18.4670  -45.5090 C.3   143  ARG143      0.1694
     31  C         38.9660  -17.2420  -46.3270 C.2   143  ARG143      0.2593
     32  O         37.9640  -17.2590  -47.0410 O.2   143  ARG143     -0.2718
     33  CB        39.6930  -19.6350  -46.4370 C.3   143  ARG143      0.0321
     34  CG        40.6910  -19.2800  -47.5310 C.3   143  ARG143      0.0489
     35  CD        40.8640  -20.4240  -48.5160 C.3   143  ARG143      0.2205
     36  NE        41.6490  -20.0400  -49.6860 N.pl3 143  ARG143     -0.0865
     37  CZ        42.9580  -20.2400  -49.8100 C.cat 143  ARG143      0.5346
     38  NH1       43.6380  -20.8220  -48.8320 N.pl3 143  ARG143      0.1354
     39  NH2       43.5870  -19.8580  -50.9130 N.pl3 143  ARG143      0.1354
     40  N         39.7570  -16.1810  -46.2150 N.am  144  GLY144     -0.1942
     41  CA        39.4870  -14.9500  -46.9360 C.3   144  GLY144      0.2014
     42  C         40.4410  -13.8470  -46.5270 C.2   144  GLY144      0.2638
     43  O         41.6050  -14.1060  -46.2290 O.2   144  GLY144     -0.2714
     44  N         39.9490  -12.6130  -46.5120 N.am  145  ASP145     -0.1971
     45  CA        40.7690  -11.4780  -46.1090 C.3   145  ASP145      0.1709
     46  C         40.9290  -11.4270  -44.5940 C.2   145  ASP145      0.2293
     47  O         42.0280  -11.2030  -44.0880 O.2   145  ASP145     -0.2864
     48  CB        40.1690  -10.1690  -46.6220 C.3   145  ASP145      0.1436
     49  CG        40.3380   -9.9990  -48.1190 C.2   145  ASP145      0.3671
     50  OD1       40.4860  -11.0210  -48.8210 O.co2 145  ASP145     -0.2456
     51  OD2       40.3250   -8.8430  -48.5940 O.co2 145  ASP145     -0.2456
     52  N         35.4530  -10.7790  -47.2280 N.3   180  ALA180     -0.1231
     53  CA        35.7890  -11.4270  -48.4940 C.3   180  ALA180      0.1694
     54  C         36.0450  -12.9230  -48.3250 C.2   180  ALA180      0.2593
     55  O         37.1160  -13.4220  -48.6700 O.2   180  ALA180     -0.2718
     56  CB        36.9980  -10.7530  -49.1320 C.3   180  ALA180      0.0304
     57  N         35.0540  -13.6310  -47.7920 N.am  181  SER181     -0.1938
     58  CA        35.1430  -15.0780  -47.6330 C.3   181  SER181      0.2055
     59  C         35.0310  -15.7770  -48.9830 C.2   181  SER181      0.2642
     60  O         34.2660  -15.3510  -49.8480 O.2   181  SER181     -0.2714
     61  CB        34.0530  -15.5820  -46.6850 C.3   181  SER181      0.2130
     62  OG        34.1020  -16.9920  -46.5500 O.3   181  SER181     -0.2179
     63  N         35.7910  -16.8530  -49.1610 N.am  182  ILE182     -0.1977
     64  CA        35.7790  -17.5870  -50.4210 C.3   182  ILE182      0.1596
     65  C         34.5610  -18.5090  -50.5000 C.2   182  ILE182      0.2287
     66  O         33.9460  -18.6420  -51.5600 O.2   182  ILE182     -0.2864
     67  CB        37.0870  -18.3980  -50.6160 C.3   182  ILE182      0.0276
     68  CG1       37.0650  -19.1490  -51.9490 C.3   182  ILE182      0.0022
     69  CG2       37.3320  -19.3520  -49.4490 C.3   182  ILE182      0.0022
     70  CD1       38.3710  -19.8390  -52.2780 C.3   182  ILE182      0.0001
@<TRIPOS>BOND
     1    70    68    1
     2    68    67    1
     3    66    65    2
     4    39    37    1
     5    67    64    1
     6    67    69    1
     7    65    64    1
     8    64    63    1
     9    60    59    2
    10    37    36    2
    11    37    38    1
    12    36    35    1
    13    16    17    1
    14    16    15    1
    15    63    59   am
    16    56    53    1
    17    59    58    1
    18    50    49   ar
    19    55    54    2
    20    17    11    1
    21    51    49   ar
    22    35    34    1
    23    53    54    1
    24    53    52    1
    25    54    57   am
    26    49    48    1
    27    15    12    1
    28     8     9    1
    29     8     7    1
    30    11     9   am
    31    11    12    1
    32    57    58    1
    33    58    61    1
    34     9    10    2
    35    34    33    1
    36    12    13    1
    37    32    31    2
    38    41    42    1
    39    41    40    1
    40    61    62    1
    41    48    45    1
    42    42    44   am
    43    42    43    2
    44    44    45    1
    45    33    30    1
    46    31    40   am
    47    31    30    1
    48    45    46    1
    49    13    18   am
    50    13    14    2
    51    30    29    1
    52    18    19    1
    53     6     5    1
    54    46    47    2
    55    21    20    2
    56    19    20    1
    57    19    22    1
    58     5     2    1
    59    22    23    1
    60     4     3    2
    61     3     2    1
    62     2     1    1
    63    23    25   ar
    64    23    24   ar
    65    25    27   ar
    66    24    26   ar
    67    27    28   ar
    68    26    28   ar
