@<TRIPOS>MOLECULE
tmp/5di0B01.pdb
 86 78 0 0 0
SMALL
GASTEIGER

@<TRIPOS>ATOM
      1  N         10.1390   44.6090   17.0110 N.3   168  VAL168     -0.1245
      2  CA         8.8430   44.3730   17.6670 C.3   168  VAL168      0.1561
      3  C          7.7610   45.0730   16.8700 C.2   168  VAL168      0.2260
      4  O          7.8790   46.2670   16.6180 O.2   168  VAL168     -0.2867
      5  CB         8.8500   44.9310   19.0990 C.3   168  VAL168      0.0252
      6  CG1        7.5310   44.6600   19.7910 C.3   168  VAL168      0.0019
      7  CG2        9.9980   44.3280   19.8940 C.3   168  VAL168      0.0019
      8  N          3.9850   46.5370   16.3020 N.3   170  THR170     -0.1218
      9  CA         2.8820   47.0560   17.1230 C.3   170  THR170      0.1862
     10  C          1.5770   46.4660   16.6320 C.2   170  THR170      0.2287
     11  O          1.2990   46.4680   15.4280 O.2   170  THR170     -0.2866
     12  CB         2.7690   48.5760   16.9910 C.3   170  THR170      0.1770
     13  OG1        3.8810   49.1780   17.6350 O.3   170  THR170     -0.2211
     14  CG2        1.4780   49.0760   17.6260 C.3   170  THR170      0.0375
     15  N         -2.3540   47.2230   17.2130 N.3   172  GLU172     -0.1245
     16  CA        -3.3430   48.1400   17.7860 C.3   172  GLU172      0.1567
     17  C         -4.4460   47.3290   18.4510 C.2   172  GLU172      0.2260
     18  O         -4.9260   46.3330   17.8610 O.2   172  GLU172     -0.2867
     19  CB        -3.9780   48.9460   16.6750 C.3   172  GLU172      0.0388
     20  CG        -3.0190   49.7850   15.8810 C.3   172  GLU172      0.1160
     21  CD        -2.4150   50.9010   16.6840 C.2   172  GLU172      0.3649
     22  OE1       -3.0260   51.3350   17.6990 O.co2 172  GLU172     -0.2457
     23  OE2       -1.3090   51.3390   16.2840 O.co2 172  GLU172     -0.2457
     24  N          8.6570   46.0790   26.9630 N.3   225  GLU225     -0.1245
     25  CA         8.9470   47.4900   26.7100 C.3   225  GLU225      0.1567
     26  C          9.3890   48.1380   28.0180 C.2   225  GLU225      0.2260
     27  O          8.7280   47.9830   29.0450 O.2   225  GLU225     -0.2867
     28  CB         7.7470   48.2270   26.1210 C.3   225  GLU225      0.0388
     29  CG         8.0170   49.7140   25.9050 C.3   225  GLU225      0.1160
     30  CD         7.2570   50.3140   24.7370 C.2   225  GLU225      0.3649
     31  OE1        7.7920   51.2460   24.1070 O.co2 225  GLU225     -0.2457
     32  OE2        6.1380   49.8590   24.4390 O.co2 225  GLU225     -0.2457
     33  N         12.4670   48.7200   23.8240 N.3   230  PHE230     -0.1241
     34  CA        12.2100   47.2780   23.9820 C.3   230  PHE230      0.1605
     35  C         13.4330   46.5800   24.5360 C.2   230  PHE230      0.2264
     36  O         14.5580   47.0290   24.3210 O.2   230  PHE230     -0.2867
     37  CB        11.8060   46.6500   22.6580 C.3   230  PHE230      0.0534
     38  CG        10.5460   47.2080   22.1050 C.ar  230  PHE230     -0.0203
     39  CD1        9.3370   46.9400   22.7220 C.ar  230  PHE230     -0.0042
     40  CD2       10.5670   48.0170   20.9830 C.ar  230  PHE230     -0.0042
     41  CE1        8.1590   47.4690   22.2260 C.ar  230  PHE230     -0.0003
     42  CE2        9.3990   48.5490   20.4800 C.ar  230  PHE230     -0.0003
     43  CZ         8.1920   48.2710   21.0940 C.ar  230  PHE230     -0.0000
     44  N         -2.1200   49.2950   22.9320 N.3   269  THR269     -0.1203
     45  CA        -1.4130   48.4940   21.9320 C.3   269  THR269      0.1994
     46  C         -0.6960   47.3540   22.6780 C.2   269  THR269      0.2618
     47  O         -0.6870   47.3150   23.9090 O.2   269  THR269     -0.2717
     48  CB        -0.3460   49.3410   21.1940 C.3   269  THR269      0.1784
     49  OG1        0.6070   49.8270   22.1490 O.3   269  THR269     -0.2211
     50  CG2       -0.9680   50.5570   20.4360 C.3   269  THR269      0.0376
     51  N         -0.1270   46.4450   21.8920 N.am  270  ILE270     -0.1965
     52  CA         0.7480   45.3970   22.4030 C.3   270  ILE270      0.1727
     53  C          1.8240   45.1600   21.3500 C.2   270  ILE270      0.2616
     54  O          1.6220   45.4270   20.1450 O.2   270  ILE270     -0.2715
     55  CB        -0.0520   44.1350   22.7560 C.3   270  ILE270      0.0290
     56  CG1        0.7960   43.1930   23.6360 C.3   270  ILE270      0.0022
     57  CG2       -0.5740   43.4490   21.4810 C.3   270  ILE270      0.0023
     58  CD1       -0.0130   42.0960   24.2860 C.3   270  ILE270      0.0001
     59  N          2.9990   44.7230   21.8130 N.am  271  GLY271     -0.1955
     60  CA         4.1130   44.4630   20.9400 C.3   271  GLY271      0.1869
     61  C          4.3110   42.9730   20.7220 C.2   271  GLY271      0.2309
     62  O          4.2210   42.2010   21.6680 O.2   271  GLY271     -0.2863
     63  N          4.8680   41.6660   24.4060 N.3   307  THR307     -0.1218
     64  CA         5.0170   42.5380   25.5590 C.3   307  THR307      0.1862
     65  C          3.7260   42.5420   26.3860 C.2   307  THR307      0.2287
     66  O          2.7270   41.9160   26.0240 O.2   307  THR307     -0.2866
     67  CB         5.2890   43.9810   25.1390 C.3   307  THR307      0.1770
     68  OG1        4.1460   44.4850   24.4310 O.3   307  THR307     -0.2211
     69  CG2        6.4880   44.1050   24.2300 C.3   307  THR307      0.0375
     70  N          0.1750   47.9330   26.5370 N.3   310  LYS310     -0.1245
     71  CA         0.6590   49.2710   26.7650 C.3   310  LYS310      0.1561
     72  C         -0.4650   50.2880   26.5730 C.2   310  LYS310      0.2260
     73  O         -1.1410   50.2760   25.5360 O.2   310  LYS310     -0.2867
     74  CB         1.7420   49.5610   25.7500 C.3   310  LYS310      0.0271
     75  CG         2.4750   50.8690   25.9730 C.3   310  LYS310      0.0035
     76  CD         3.1740   51.2440   24.6790 C.3   310  LYS310      0.0206
     77  CE         4.0870   52.4220   24.8740 C.3   310  LYS310      0.1093
     78  NZ         4.9080   52.6800   23.6630 N.3   310  LYS310     -0.1314
     79  N         -0.9650   54.3390   26.1670 N.3   312  ASN312     -0.1240
     80  CA        -0.3400   55.6250   25.8930 C.3   312  ASN312      0.1653
     81  C         -1.4390   56.6930   25.8390 C.2   312  ASN312      0.2266
     82  O         -2.4470   56.5030   25.1730 O.2   312  ASN312     -0.2867
     83  CB         0.3910   55.5520   24.5550 C.3   312  ASN312      0.1155
     84  CG         1.1560   56.8130   24.2330 C.2   312  ASN312      0.2627
     85  OD1        0.7480   57.6040   23.3750 O.2   312  ASN312     -0.2716
     86  ND2        2.2850   57.0060   24.9120 N.am  312  ASN312     -0.0877
@<TRIPOS>BOND
     1    11    10    2
     2    20    19    1
     3    20    21    1
     4    23    21   ar
     5     8     9    1
     6     4     3    2
     7    10     9    1
     8    19    16    1
     9    21    22   ar
    10     3     2    1
    11    12     9    1
    12    12    14    1
    13    12    13    1
    14     1     2    1
    15    15    16    1
    16     2     5    1
    17    16    17    1
    18    18    17    2
    19     5     6    1
    20     5     7    1
    21    54    53    2
    22    50    48    1
    23    42    40   ar
    24    42    43   ar
    25    61    60    1
    26    61    62    2
    27    60    59    1
    28    40    38   ar
    29    43    41   ar
    30    48    45    1
    31    48    49    1
    32    53    59   am
    33    53    52    1
    34    57    55    1
    35    51    52    1
    36    51    46   am
    37    45    46    1
    38    45    44    1
    39    38    37    1
    40    38    39   ar
    41    41    39   ar
    42    52    55    1
    43    37    34    1
    44    46    47    2
    45    55    56    1
    46    85    84    2
    47    56    58    1
    48    78    77    1
    49    33    34    1
    50    34    35    1
    51    31    30   ar
    52    69    67    1
    53    84    83    1
    54    84    86   am
    55    36    35    2
    56    63    64    1
    57    68    67    1
    58    32    30   ar
    59    83    80    1
    60    76    77    1
    61    76    75    1
    62    30    29    1
    63    67    64    1
    64    82    81    2
    65    73    72    2
    66    64    65    1
    67    74    75    1
    68    74    71    1
    69    81    80    1
    70    80    79    1
    71    29    28    1
    72    66    65    2
    73    28    25    1
    74    70    71    1
    75    72    71    1
    76    25    24    1
    77    25    26    1
    78    26    27    2
