@<TRIPOS>MOLECULE
tmp/5di0A04.pdb
 87 84 0 0 0
SMALL
GASTEIGER

@<TRIPOS>ATOM
      1  N        -26.2090   34.3320   19.5060 N.3    28  ASN28      -0.1225
      2  CA       -25.3750   33.2320   19.0670 C.3    28  ASN28       0.1785
      3  C        -23.8970   33.5700   18.8770 C.2    28  ASN28       0.2598
      4  O        -23.1800   32.7850   18.2820 O.2    28  ASN28      -0.2718
      5  CB       -25.9320   32.6150   17.7780 C.3    28  ASN28       0.1169
      6  CG       -25.9270   33.5990   16.6010 C.2    28  ASN28       0.2627
      7  OD1      -25.5300   34.7530   16.7560 O.2    28  ASN28      -0.2716
      8  ND2      -26.3600   33.1360   15.4390 N.am   28  ASN28      -0.0877
      9  N        -23.4810   34.7430   19.3480 N.am   29  GLY29      -0.1942
     10  CA       -22.1130   35.2310   19.1670 C.3    29  GLY29       0.2014
     11  C        -21.6750   35.5880   17.7480 C.2    29  GLY29       0.2638
     12  O        -20.4810   35.7550   17.5110 O.2    29  GLY29      -0.2714
     13  N        -22.6090   35.7070   16.8040 N.am   30  ALA30      -0.1977
     14  CA       -22.2510   36.1500   15.4340 C.3    30  ALA30       0.1597
     15  C        -21.7040   37.5760   15.4780 C.2    30  ALA30       0.2287
     16  O        -22.0890   38.3610   16.3330 O.2    30  ALA30      -0.2864
     17  CB       -23.4450   36.0980   14.4960 C.3    30  ALA30       0.0319
     18  N        -21.9870   37.0440   10.6760 N.3    52  SER52      -0.1202
     19  CA       -21.1900   35.8590   10.3620 C.3    52  SER52       0.2020
     20  C        -22.0190   34.5850   10.3040 C.2    52  SER52       0.2618
     21  O        -21.5150   33.5640    9.7880 O.2    52  SER52      -0.2717
     22  CB       -20.0690   35.7100   11.3600 C.3    52  SER52       0.2103
     23  OG       -20.5670   35.5030   12.6470 O.3    52  SER52      -0.2182
     24  N        -23.2470   34.6290   10.8080 N.am   53  ASP53      -0.1973
     25  CA       -24.1730   33.4730   10.7080 C.3    53  ASP53       0.1709
     26  C        -24.9770   33.4610    9.3950 C.2    53  ASP53       0.2293
     27  O        -25.8680   32.6080    9.2050 O.2    53  ASP53      -0.2864
     28  CB       -25.0830   33.4020   11.9410 C.3    53  ASP53       0.1436
     29  CG       -25.9830   34.5990   12.0830 C.2    53  ASP53       0.3671
     30  OD1      -25.9610   35.4490   11.1520 O.co2  53  ASP53      -0.2456
     31  OD2      -26.6910   34.6810   13.1130 O.co2  53  ASP53      -0.2456
     32  N        -14.8580   43.2590   19.2580 N.3   125  TYR125     -0.1241
     33  CA       -15.6700   42.3310   18.5330 C.3   125  TYR125      0.1605
     34  C        -17.0800   42.8910   18.4060 C.2   125  TYR125      0.2264
     35  O        -17.7590   43.0870   19.4060 O.2   125  TYR125     -0.2867
     36  CB       -15.6890   40.9970   19.2880 C.3   125  TYR125      0.0534
     37  CG       -16.3170   39.7990   18.6180 C.ar  125  TYR125     -0.0201
     38  CD1      -15.6090   39.0590   17.6710 C.ar  125  TYR125     -0.0009
     39  CD2      -17.5970   39.3580   18.9470 C.ar  125  TYR125     -0.0009
     40  CE1      -16.1660   37.9310   17.0950 C.ar  125  TYR125      0.0417
     41  CE2      -18.1490   38.2210   18.3670 C.ar  125  TYR125      0.0417
     42  CZ       -17.4290   37.5060   17.4440 C.ar  125  TYR125      0.1957
     43  OH       -17.9810   36.3740   16.8450 O.3   125  TYR125     -0.2866
     44  N        -15.0380   25.4110   15.6720 N.3   204  MET204     -0.1230
     45  CA       -15.7310   26.6420   16.0110 C.3   204  MET204      0.1702
     46  C        -15.5390   27.6640   14.8920 C.2   204  MET204      0.2593
     47  O        -14.5340   27.6620   14.1930 O.2   204  MET204     -0.2718
     48  CB       -15.2030   27.2070   17.3180 C.3   204  MET204      0.0401
     49  CG       -16.0780   28.3080   17.8810 C.3   204  MET204      0.0596
     50  SD       -15.7340   28.5690   19.6140 S.3   204  MET204     -0.1393
     51  CE       -16.3950   27.0880   20.3670 C.3   204  MET204      0.0692
     52  N        -16.5200   28.5430   14.7390 N.am  205  THR205     -0.1953
     53  CA       -16.4360   29.5930   13.7320 C.3   205  THR205      0.1897
     54  C        -15.1290   30.3610   13.9150 C.2   205  THR205      0.2313
     55  O        -14.7890   30.7800   15.0180 O.2   205  THR205     -0.2863
     56  CB       -17.6760   30.5060   13.8030 C.3   205  THR205      0.1794
     57  OG1      -17.9060   30.9150   15.1500 O.3   205  THR205     -0.2208
     58  CG2      -18.8980   29.7510   13.3450 C.3   205  THR205      0.0378
     59  N        -13.9980   33.2840   13.0310 N.3   207  SER207     -0.1202
     60  CA       -14.0140   34.6830   13.4700 C.3   207  SER207      0.2020
     61  C        -14.0250   34.7360   15.0040 C.2   207  SER207      0.2618
     62  O        -13.2740   35.5000   15.6040 O.2   207  SER207     -0.2717
     63  CB       -15.1940   35.4450   12.8750 C.3   207  SER207      0.2103
     64  OG       -16.3750   34.6700   12.9230 O.3   207  SER207     -0.2182
     65  N        -14.8100   33.8610   15.6310 N.am  208  PHE208     -0.1975
     66  CA       -14.8570   33.8430   17.0920 C.3   208  PHE208      0.1639
     67  C        -13.5500   33.2870   17.6760 C.2   208  PHE208      0.2290
     68  O        -12.9370   33.8970   18.5660 O.2   208  PHE208     -0.2864
     69  CB       -16.0550   33.0380   17.5860 C.3   208  PHE208      0.0560
     70  CG       -16.2740   33.1540   19.0740 C.ar  208  PHE208     -0.0200
     71  CD1      -17.0830   34.1350   19.5960 C.ar  208  PHE208     -0.0042
     72  CD2      -15.6540   32.2790   19.9440 C.ar  208  PHE208     -0.0042
     73  CE1      -17.2730   34.2650   20.9530 C.ar  208  PHE208     -0.0003
     74  CE2      -15.8400   32.3960   21.3030 C.ar  208  PHE208     -0.0003
     75  CZ       -16.6390   33.3830   21.8170 C.ar  208  PHE208     -0.0000
     76  N        -24.4280   31.0690   25.1010 N.3   295  TYR295     -0.1241
     77  CA       -25.3120   30.4820   24.1310 C.3   295  TYR295      0.1605
     78  C        -24.9200   29.0390   23.8470 C.2   295  TYR295      0.2264
     79  O        -23.7810   28.6550   24.1150 O.2   295  TYR295     -0.2867
     80  CB       -25.3240   31.2950   22.8230 C.3   295  TYR295      0.0534
     81  CG       -23.9490   31.6090   22.2890 C.ar  295  TYR295     -0.0201
     82  CD1      -23.3140   30.7420   21.4210 C.ar  295  TYR295     -0.0009
     83  CD2      -23.2890   32.7670   22.6550 C.ar  295  TYR295     -0.0009
     84  CE1      -22.0460   31.0170   20.9320 C.ar  295  TYR295      0.0417
     85  CE2      -22.0220   33.0460   22.1840 C.ar  295  TYR295      0.0417
     86  CZ       -21.4070   32.1640   21.3220 C.ar  295  TYR295      0.1957
     87  OH       -20.1570   32.4070   20.8330 O.3   295  TYR295     -0.2866
@<TRIPOS>BOND
     1    27    26    2
     2    26    25    1
     3    21    20    2
     4    20    19    1
     5    20    24   am
     6    19    18    1
     7    19    22    1
     8    25    24    1
     9    25    28    1
    10    30    29   ar
    11    22    23    1
    12    28    29    1
    13    29    31   ar
    14    63    64    1
    15    63    60    1
    16    59    60    1
    17    58    56    1
    18    60    61    1
    19    53    56    1
    20    53    54    1
    21    53    52    1
    22    56    57    1
    23    54    55    2
    24    47    46    2
    25    17    14    1
    26    52    46   am
    27    46    45    1
    28    61    62    2
    29    61    65   am
    30    14    15    1
    31    14    13    1
    32     8     6   am
    33    15    16    2
    34    65    66    1
    35    44    45    1
    36    45    48    1
    37     6     7    2
    38     6     5    1
    39    13    11   am
    40    43    42    1
    41    66    69    1
    42    66    67    1
    43    40    42   ar
    44    40    38   ar
    45    48    49    1
    46    42    41   ar
    47    12    11    2
    48    69    70    1
    49    38    37   ar
    50    67    68    2
    51    11    10    1
    52     5     2    1
    53    49    50    1
    54     4     3    2
    55    41    39   ar
    56    34    33    1
    57    34    35    2
    58    33    32    1
    59    33    36    1
    60    37    39   ar
    61    37    36    1
    62     3     2    1
    63     3     9   am
    64     2     1    1
    65    70    71   ar
    66    70    72   ar
    67    10     9    1
    68    71    73   ar
    69    50    51    1
    70    72    74   ar
    71    87    86    1
    72    84    86   ar
    73    84    82   ar
    74    73    75   ar
    75    74    75   ar
    76    86    85   ar
    77    82    81   ar
    78    85    83   ar
    79    81    83   ar
    80    81    80    1
    81    80    77    1
    82    78    79    2
    83    78    77    1
    84    77    76    1
