@<TRIPOS>MOLECULE
tmp/5di0B07.pdb
 100 97 0 0 0
SMALL
GASTEIGER

@<TRIPOS>ATOM
      1  N         11.6380   -5.6470   13.7060 N.3    79  SER79      -0.1202
      2  CA        12.2330   -6.9730   13.8930 C.3    79  SER79       0.2020
      3  C         13.4860   -7.0720   13.0380 C.2    79  SER79       0.2619
      4  O         13.6420   -6.3630   12.0510 O.2    79  SER79      -0.2717
      5  CB        11.2250   -8.0680   13.5610 C.3    79  SER79       0.2103
      6  OG        10.8460   -8.0940   12.1940 O.3    79  SER79      -0.2182
      7  N         14.3680   -7.9810   13.4190 N.am   80  LEU80      -0.1965
      8  CA        15.6150   -8.1540   12.7320 C.3    80  LEU80       0.1728
      9  C         16.0560   -9.5950   13.0410 C.2    80  LEU80       0.2616
     10  O         16.0640   -9.9920   14.2060 O.2    80  LEU80      -0.2715
     11  CB        16.6900   -7.1750   13.2000 C.3    80  LEU80       0.0311
     12  CG        18.1430   -7.4600   12.7840 C.3    80  LEU80       0.0022
     13  CD1       18.3840   -7.3320   11.2890 C.3    80  LEU80       0.0001
     14  CD2       19.1410   -6.6040   13.5650 C.3    80  LEU80       0.0001
     15  N         16.4450  -10.3010   12.0040 N.am   81  SER81      -0.1950
     16  CA        17.2200  -11.5620   12.1550 C.3    81  SER81       0.1924
     17  C         18.4740  -11.5170   11.3450 C.2    81  SER81       0.2314
     18  O         18.5180  -11.0040   10.2150 O.2    81  SER81      -0.2863
     19  CB        16.3870  -12.7470   11.7260 C.3    81  SER81       0.2116
     20  OG        15.3770  -13.0630   12.6680 O.3    81  SER81      -0.2180
     21  N         21.7660  -14.1360   10.0360 N.3    83  TRP83      -0.1241
     22  CA        22.3270  -15.4840    9.8380 C.3    83  TRP83       0.1605
     23  C         23.7980  -15.3830    9.5490 C.2    83  TRP83       0.2264
     24  O         24.2850  -14.5020    8.8530 O.2    83  TRP83      -0.2867
     25  CB        21.6690  -16.2050    8.6820 C.3    83  TRP83       0.0550
     26  CG        20.2590  -16.6340    8.7870 C.ar   83  TRP83       0.0003
     27  CD1       19.7900  -17.9320    8.8980 C.ar   83  TRP83       0.0946
     28  CD2       19.1010  -15.8120    8.6540 C.ar   83  TRP83       0.0152
     29  NE1       18.4280  -17.9440    8.8920 N.ar   83  TRP83      -0.2442
     30  CE2       17.9780  -16.6580    8.7260 C.ar   83  TRP83       0.0810
     31  CE3       18.8990  -14.4360    8.5150 C.ar   83  TRP83       0.0012
     32  CZ2       16.6920  -16.1780    8.6590 C.ar   83  TRP83       0.0191
     33  CZ3       17.5980  -13.9690    8.4260 C.ar   83  TRP83       0.0001
     34  CH2       16.5210  -14.8270    8.5250 C.ar   83  TRP83       0.0015
     35  N         17.6640  -10.0110    7.5910 N.3    95  LYS95      -0.1231
     36  CA        16.2240   -9.8300    7.3970 C.3    95  LYS95       0.1693
     37  C         15.6710   -8.8590    8.4120 C.2    95  LYS95       0.2592
     38  O         15.9100   -8.9970    9.6000 O.2    95  LYS95      -0.2718
     39  CB        15.4450  -11.1480    7.4870 C.3    95  LYS95       0.0285
     40  CG        13.9880  -10.9410    7.1200 C.3    95  LYS95       0.0035
     41  CD        13.1790  -12.1950    7.2860 C.3    95  LYS95       0.0206
     42  CE        11.7500  -11.9030    6.8460 C.3    95  LYS95       0.1093
     43  NZ        10.9250  -13.1170    6.8410 N.3    95  LYS95      -0.1314
     44  N         14.9450   -7.8450    7.9470 N.am   96  PHE96      -0.1962
     45  CA        14.2930   -6.9590    8.8830 C.3    96  PHE96       0.1771
     46  C         12.9330   -6.4840    8.3650 C.2    96  PHE96       0.2619
     47  O         12.6200   -6.5970    7.1900 O.2    96  PHE96      -0.2715
     48  CB        15.1980   -5.7730    9.3290 C.3    96  PHE96       0.0574
     49  CG        15.6130   -4.8320    8.2240 C.ar   96  PHE96      -0.0200
     50  CD1       14.7530   -3.8390    7.7890 C.ar   96  PHE96      -0.0042
     51  CD2       16.9060   -4.8760    7.6970 C.ar   96  PHE96      -0.0042
     52  CE1       15.1560   -2.9710    6.7810 C.ar   96  PHE96      -0.0003
     53  CE2       17.3070   -4.0020    6.7190 C.ar   96  PHE96      -0.0003
     54  CZ        16.4220   -3.0410    6.2780 C.ar   96  PHE96      -0.0000
     55  N         12.1470   -5.9860    9.2960 N.am   97  LYS97      -0.1977
     56  CA        10.8460   -5.3810    9.0220 C.3    97  LYS97       0.1596
     57  C         10.7940   -4.0720    9.7750 C.2    97  LYS97       0.2287
     58  O         11.5370   -3.8500   10.7350 O.2    97  LYS97      -0.2864
     59  CB         9.7100   -6.2610    9.4510 C.3    97  LYS97       0.0298
     60  CG         9.6650   -7.5630    8.6800 C.3    97  LYS97       0.0038
     61  CD         8.4250   -8.3550    9.0790 C.3    97  LYS97       0.0206
     62  CE         8.2700   -9.6060    8.2400 C.3    97  LYS97       0.1093
     63  NZ         7.1670  -10.4420    8.7930 N.3    97  LYS97      -0.1314
     64  N          9.7820   -4.6410    4.4990 N.3   103  GLU103     -0.1245
     65  CA        10.6060   -5.8110    4.7990 C.3   103  GLU103      0.1567
     66  C         11.7850   -5.8220    3.8230 C.2   103  GLU103      0.2260
     67  O         11.6460   -5.3840    2.6870 O.2   103  GLU103     -0.2867
     68  CB         9.7420   -7.0780    4.6860 C.3   103  GLU103      0.0388
     69  CG        10.4510   -8.4080    4.8850 C.3   103  GLU103      0.1160
     70  CD         9.4910   -9.5950    4.9810 C.2   103  GLU103      0.3649
     71  OE1        8.2690   -9.4340    4.8130 O.co2 103  GLU103     -0.2457
     72  OE2        9.9700  -10.7240    5.1910 O.co2 103  GLU103     -0.2457
     73  N         15.2420   -8.4480    2.8420 N.3   105  PHE105     -0.1241
     74  CA        15.9180   -9.7510    3.0090 C.3   105  PHE105      0.1605
     75  C         17.0430   -9.8530    1.9930 C.2   105  PHE105      0.2264
     76  O         16.8190   -9.8760    0.7750 O.2   105  PHE105     -0.2867
     77  CB        14.9090  -10.8840    2.8140 C.3   105  PHE105      0.0534
     78  CG        15.4620  -12.2730    3.0740 C.ar  105  PHE105     -0.0203
     79  CD1       16.3580  -12.5090    4.0710 C.ar  105  PHE105     -0.0042
     80  CD2       15.0070  -13.3380    2.3220 C.ar  105  PHE105     -0.0042
     81  CE1       16.8270  -13.8010    4.3200 C.ar  105  PHE105     -0.0003
     82  CE2       15.4640  -14.6260    2.5460 C.ar  105  PHE105     -0.0003
     83  CZ        16.3750  -14.8590    3.5460 C.ar  105  PHE105     -0.0000
     84  N         20.8970  -21.3080    4.1820 N.3   113  LEU113     -0.1245
     85  CA        20.8190  -20.7130    5.5140 C.3   113  LEU113      0.1561
     86  C         20.5930  -21.7520    6.6230 C.2   113  LEU113      0.2260
     87  O         19.7510  -22.6610    6.4920 O.2   113  LEU113     -0.2867
     88  CB        19.7140  -19.6620    5.5850 C.3   113  LEU113      0.0270
     89  CG        19.8940  -18.4800    4.6320 C.3   113  LEU113      0.0019
     90  CD1       18.7960  -17.4580    4.9150 C.3   113  LEU113      0.0001
     91  CD2       21.2400  -17.8190    4.7430 C.3   113  LEU113      0.0001
     92  N         18.9470  -19.2210   12.4330 N.3   116  GLU116     -0.1245
     93  CA        18.4430  -17.8490   12.4900 C.3   116  GLU116      0.1567
     94  C         18.6540  -17.2730   13.8720 C.2   116  GLU116      0.2260
     95  O         18.3230  -17.9180   14.8540 O.2   116  GLU116     -0.2867
     96  CB        16.9610  -17.8320   12.1890 C.3   116  GLU116      0.0388
     97  CG        16.3650  -16.4360   12.1870 C.3   116  GLU116      0.1160
     98  CD        14.8670  -16.4380   12.0610 C.2   116  GLU116      0.3649
     99  OE1       14.2490  -15.3790   12.2930 O.co2 116  GLU116     -0.2457
    100  OE2       14.2860  -17.5000   11.7420 O.co2 116  GLU116     -0.2457
@<TRIPOS>BOND
     1    76    75    2
     2    75    74    1
     3    80    82   ar
     4    80    78   ar
     5    82    83   ar
     6    67    66    2
     7    77    74    1
     8    77    78    1
     9    73    74    1
    10    78    79   ar
    11    83    81   ar
    12    66    65    1
    13    79    81   ar
    14    84    85    1
    15    64    65    1
    16    89    91    1
    17    89    90    1
    18    89    88    1
    19    68    65    1
    20    68    69    1
    21    71    70   ar
    22    69    70    1
    23    70    72   ar
    24    85    88    1
    25    85    86    1
    26    54    53   ar
    27    54    52   ar
    28    87    86    2
    29    53    51   ar
    30    52    50   ar
    31    43    42    1
    32    42    41    1
    33    40    41    1
    34    40    39    1
    35    47    46    2
    36    36    39    1
    37    36    35    1
    38    36    37    1
    39    51    49   ar
    40    50    49   ar
    41    44    37   am
    42    44    45    1
    43    49    48    1
    44    62    63    1
    45    62    61    1
    46    46    45    1
    47    46    55   am
    48    37    38    2
    49    33    31   ar
    50    33    34   ar
    51    31    28   ar
    52    34    32   ar
    53    28    30   ar
    54    28    26   ar
    55    32    30   ar
    56    60    61    1
    57    60    59    1
    58    25    26    1
    59    25    22    1
    60    30    29   ar
    61    26    27   ar
    62    24    23    2
    63    45    48    1
    64    29    27   ar
    65    56    55    1
    66    56    59    1
    67    56    57    1
    68    23    22    1
    69    57    58    2
    70    22    21    1
    71    18    17    2
    72    13    12    1
    73    17    16    1
    74    19    16    1
    75    19    20    1
    76   100    98   ar
    77    15    16    1
    78    15     9   am
    79     4     3    2
    80    98    97    1
    81    98    99   ar
    82    97    96    1
    83    96    93    1
    84     6     5    1
    85    92    93    1
    86    93    94    1
    87     8     9    1
    88     8    11    1
    89     8     7    1
    90    12    11    1
    91    12    14    1
    92     3     7   am
    93     3     2    1
    94     9    10    2
    95     5     2    1
    96     1     2    1
    97    94    95    2
