@<TRIPOS>MOLECULE
tmp/5di1A00.pdb
 136 126 0 0 0
SMALL
GASTEIGER

@<TRIPOS>ATOM
      1  N         79.6520   50.9120   25.4370 N.3    19  VAL19      -0.1231
      2  CA        78.3460   50.4700   24.9740 C.3    19  VAL19       0.1692
      3  C         78.2570   48.9740   24.7040 C.2    19  VAL19       0.2592
      4  O         79.1900   48.3800   24.1360 O.2    19  VAL19      -0.2718
      5  CB        77.7610   51.3990   23.8790 C.3    19  VAL19       0.0266
      6  CG1       77.5000   50.6910   22.5520 C.3    19  VAL19       0.0020
      7  CG2       76.5080   52.0650   24.3860 C.3    19  VAL19       0.0020
      8  N         77.1290   48.3940   25.1330 N.am   20  GLY20      -0.1957
      9  CA        76.8600   46.9630   25.0630 C.3    20  GLY20       0.1869
     10  C         77.8170   46.2840   26.0170 C.2    20  GLY20       0.2309
     11  O         77.9860   46.7300   27.1590 O.2    20  GLY20      -0.2863
     12  N         80.8860   45.8510   19.9480 N.3    24  TYR24      -0.1241
     13  CA        81.2600   46.8500   18.9430 C.3    24  TYR24       0.1605
     14  C         82.7270   47.3380   19.0680 C.2    24  TYR24       0.2264
     15  O         83.2080   48.0870   18.2140 O.2    24  TYR24      -0.2867
     16  CB        80.2740   48.0370   19.0170 C.3    24  TYR24       0.0534
     17  CG        78.8240   47.6180   19.0730 C.ar   24  TYR24      -0.0201
     18  CD1       78.1770   47.4320   20.2950 C.ar   24  TYR24      -0.0009
     19  CD2       78.1090   47.3590   17.9090 C.ar   24  TYR24      -0.0009
     20  CE1       76.8550   46.9940   20.3530 C.ar   24  TYR24       0.0417
     21  CE2       76.7780   46.9400   17.9550 C.ar   24  TYR24       0.0417
     22  CZ        76.1540   46.7610   19.1790 C.ar   24  TYR24       0.1957
     23  OH        74.8480   46.3320   19.2120 O.3    24  TYR24      -0.2866
     24  N         83.3990   51.3630   21.2450 N.3    27  VAL27      -0.1245
     25  CA        82.2390   52.1980   21.0220 C.3    27  VAL27       0.1561
     26  C         81.6780   52.5000   22.4030 C.2    27  VAL27       0.2260
     27  O         81.3670   51.5760   23.1620 O.2    27  VAL27      -0.2867
     28  CB        81.2390   51.5030   20.0980 C.3    27  VAL27       0.0252
     29  CG1       79.9550   52.3160   19.9670 C.3    27  VAL27       0.0019
     30  CG2       81.8680   51.2600   18.7350 C.3    27  VAL27       0.0019
     31  N         76.8160   58.2050   20.3260 N.3    40  ALA40      -0.1245
     32  CA        77.6220   56.9870   20.3670 C.3    40  ALA40       0.1562
     33  C         78.9660   57.3930   19.8020 C.2    40  ALA40       0.2260
     34  O         79.0380   57.9440   18.6950 O.2    40  ALA40      -0.2867
     35  CB        77.0020   55.8830   19.5330 C.3    40  ALA40       0.0290
     36  N         82.7310   56.2730   18.6270 N.3    42  LYS42      -0.1245
     37  CA        83.6330   55.2030   18.2050 C.3    42  LYS42       0.1561
     38  C         85.0490   55.7460   18.2480 C.2    42  LYS42       0.2260
     39  O         85.3900   56.6910   17.5240 O.2    42  LYS42      -0.2867
     40  CB        83.2920   54.6800   16.8030 C.3    42  LYS42       0.0271
     41  CG        84.0550   53.3870   16.4210 C.3    42  LYS42       0.0035
     42  CD        83.9120   53.0830   14.9350 C.3    42  LYS42       0.0206
     43  CE        84.4550   51.7420   14.5540 C.3    42  LYS42       0.1093
     44  NZ        84.4610   51.5650   13.0720 N.3    42  LYS42      -0.1314
     45  N         80.0790   57.8530    6.3870 N.3    61  LEU61      -0.1245
     46  CA        79.0920   58.2290    7.3880 C.3    61  LEU61       0.1561
     47  C         78.4480   59.6000    7.0760 C.2    61  LEU61       0.2260
     48  O         77.2420   59.7380    7.2490 O.2    61  LEU61      -0.2867
     49  CB        79.7210   58.2310    8.7820 C.3    61  LEU61       0.0270
     50  CG        79.6410   56.9210    9.5410 C.3    61  LEU61       0.0019
     51  CD1       80.7540   56.8190   10.5430 C.3    61  LEU61       0.0001
     52  CD2       78.2890   56.7670   10.2360 C.3    61  LEU61       0.0001
     53  N         71.7660   55.2890   11.5210 N.3    71  ALA71      -0.1245
     54  CA        72.2010   56.0760   12.6900 C.3    71  ALA71       0.1562
     55  C         73.0190   57.2640   12.1980 C.2    71  ALA71       0.2260
     56  O         74.0700   57.0700   11.5650 O.2    71  ALA71      -0.2867
     57  CB        73.0150   55.2140   13.6500 C.3    71  ALA71       0.0290
     58  N         78.2630   59.7410   16.4700 N.3    93  MET93      -0.1230
     59  CA        77.0110   59.4240   15.8230 C.3    93  MET93       0.1702
     60  C         75.8880   59.3430   16.8310 C.2    93  MET93       0.2592
     61  O         76.0930   59.4270   18.0540 O.2    93  MET93      -0.2718
     62  CB        77.1010   58.1220   15.0120 C.3    93  MET93       0.0401
     63  CG        77.2770   56.8630   15.8720 C.3    93  MET93       0.0596
     64  SD        77.9030   55.3840   15.0080 S.3    93  MET93      -0.1393
     65  CE        79.3520   56.0990   14.0720 C.3    93  MET93       0.0692
     66  N         74.6930   59.1620   16.2850 N.am   94  GLU94      -0.1966
     67  CA        73.4430   59.0330   16.9910 C.3    94  GLU94       0.1733
     68  C         73.5030   57.8750   17.9790 C.2    94  GLU94       0.2616
     69  O         73.9310   56.7580   17.6380 O.2    94  GLU94      -0.2715
     70  CB        72.3400   58.8160   15.9560 C.3    94  GLU94       0.0429
     71  CG        70.9700   58.5510   16.5300 C.3    94  GLU94       0.1163
     72  CD        69.8910   58.4360   15.4800 C.2    94  GLU94       0.3649
     73  OE1       68.7050   58.4950   15.8750 O.co2  94  GLU94      -0.2457
     74  OE2       70.2150   58.3330   14.2710 O.co2  94  GLU94      -0.2457
     75  N         73.0880   58.1480   19.2110 N.am   95  PHE95      -0.1960
     76  CA        73.0420   57.1070   20.2170 C.3    95  PHE95       0.1771
     77  C         71.6520   56.4680   20.1910 C.2    95  PHE95       0.2620
     78  O         70.6790   57.0990   20.5880 O.2    95  PHE95      -0.2715
     79  CB        73.3830   57.6680   21.6050 C.3    95  PHE95       0.0574
     80  CG        73.5440   56.5970   22.6480 C.ar   95  PHE95      -0.0200
     81  CD1       74.6610   55.7850   22.6630 C.ar   95  PHE95      -0.0042
     82  CD2       72.5530   56.3650   23.5930 C.ar   95  PHE95      -0.0042
     83  CE1       74.7890   54.7680   23.6130 C.ar   95  PHE95      -0.0003
     84  CE2       72.6930   55.3560   24.5480 C.ar   95  PHE95      -0.0003
     85  CZ        73.8090   54.5680   24.5560 C.ar   95  PHE95      -0.0000
     86  N         71.5490   55.2280   19.7000 N.am   96  CYS96      -0.1954
     87  CA        70.2760   54.5060   19.6420 C.3    96  CYS96       0.1843
     88  C         70.1360   53.7770   20.9910 C.2    96  CYS96       0.2626
     89  O         70.6120   52.6540   21.1500 O.2    96  CYS96      -0.2714
     90  CB        70.2440   53.5400   18.4590 C.3    96  CYS96       0.0997
     91  SG        70.6710   54.2790   16.8590 S.3    96  CYS96      -0.0797
     92  N         69.5680   54.4840   21.9620 N.am   97  GLY97      -0.1954
     93  CA        69.4080   54.0930   23.3590 C.3    97  GLY97       0.1869
     94  C         68.6390   52.8360   23.6740 C.2    97  GLY97       0.2309
     95  O         68.9130   52.2440   24.7170 O.2    97  GLY97      -0.2863
     96  N         68.9690   50.0090   22.4060 N.3    99  GLY99      -0.1210
     97  CA        69.9280   48.9480   22.1340 C.3    99  GLY99       0.1956
     98  C         69.7860   48.3790   20.7500 C.2    99  GLY99       0.2612
     99  O         69.3810   49.0850   19.8290 O.2    99  GLY99      -0.2717
    100  N         70.1140   47.0830   20.6080 N.am  100  SER100     -0.1952
    101  CA        70.0760   46.3520   19.3400 C.3   100  SER100      0.1924
    102  C         68.9320   45.3590   19.2970 C.2   100  SER100      0.2314
    103  O         68.2800   45.1230   20.3190 O.2   100  SER100     -0.2863
    104  CB        71.4000   45.6300   19.1040 C.3   100  SER100      0.2116
    105  OG        71.6180   44.5780   20.0290 O.3   100  SER100     -0.2180
    106  N         69.3960   42.5690   21.7140 N.3   103  ASP103     -0.1239
    107  CA        68.9070   42.9510   23.0270 C.3   103  ASP103      0.1674
    108  C         67.4170   42.6800   23.1130 C.2   103  ASP103      0.2266
    109  O         66.9720   42.0550   24.0780 O.2   103  ASP103     -0.2867
    110  CB        69.2280   44.4200   23.3220 C.3   103  ASP103      0.1410
    111  CG        70.7060   44.7240   23.3560 C.2   103  ASP103      0.3668
    112  OD1       71.4700   43.8730   23.8480 O.co2 103  ASP103     -0.2456
    113  OD2       71.1000   45.8280   22.9100 O.co2 103  ASP103     -0.2456
    114  N         69.8260   48.6110   15.2890 N.3   148  LEU148     -0.1245
    115  CA        69.4760   49.2530   16.5560 C.3   148  LEU148      0.1561
    116  C         68.1600   49.9880   16.5720 C.2   148  LEU148      0.2260
    117  O         67.6690   50.4340   15.5370 O.2   148  LEU148     -0.2867
    118  CB        70.5990   50.1930   17.0300 C.3   148  LEU148      0.0270
    119  CG        72.0440   49.7700   16.7440 C.3   148  LEU148      0.0019
    120  CD1       72.9100   50.9650   16.5570 C.3   148  LEU148      0.0001
    121  CD2       72.5830   48.8860   17.8180 C.3   148  LEU148      0.0001
    122  N         73.9550   50.2030   11.4580 N.3   158  VAL158     -0.1231
    123  CA        75.3630   50.5690   11.7670 C.3   158  VAL158      0.1692
    124  C         76.3370   49.5420   11.1560 C.2   158  VAL158      0.2592
    125  O         75.9350   48.3990   10.9410 O.2   158  VAL158     -0.2718
    126  CB        75.6910   50.7470   13.2800 C.3   158  VAL158      0.0266
    127  CG1       75.1230   52.0410   13.8380 C.3   158  VAL158      0.0020
    128  CG2       75.2750   49.5290   14.1080 C.3   158  VAL158      0.0020
    129  N         77.6280   49.9380   10.9620 N.am  159  ASP159     -0.1974
    130  CA        78.7400   49.1140   10.4750 C.3   159  ASP159      0.1709
    131  C         78.7020   48.7480    8.9670 C.2   159  ASP159      0.2293
    132  O         78.8520   47.5690    8.6130 O.2   159  ASP159     -0.2864
    133  CB        78.9750   47.8740   11.3910 C.3   159  ASP159      0.1436
    134  CG        80.4140   47.5280   11.7880 C.2   159  ASP159      0.3671
    135  OD1       81.3240   48.3580   11.5350 O.co2 159  ASP159     -0.2456
    136  OD2       80.6170   46.4550   12.4200 O.co2 159  ASP159     -0.2456
@<TRIPOS>BOND
     1    45    46    1
     2    47    48    2
     3    47    46    1
     4    46    49    1
     5   132   131    2
     6    49    50    1
     7   131   130    1
     8    50    52    1
     9    50    51    1
    10   130   129    1
    11   130   133    1
    12   125   124    2
    13   129   124   am
    14   124   123    1
    15   133   134    1
    16   122   123    1
    17    53    54    1
    18   135   134   ar
    19    56    55    2
    20   123   126    1
    21   134   136   ar
    22    55    54    1
    23    54    57    1
    24    44    43    1
    25   126   127    1
    26   126   128    1
    27    65    64    1
    28    74    72   ar
    29    43    42    1
    30    42    41    1
    31    64    63    1
    32    62    59    1
    33    62    63    1
    34   114   115    1
    35    72    73   ar
    36    72    71    1
    37   117   116    2
    38    59    58    1
    39    59    60    1
    40    70    71    1
    41    70    67    1
    42    66    60   am
    43    66    67    1
    44    41    40    1
    45   115   116    1
    46   115   118    1
    47   120   119    1
    48   119   118    1
    49   119   121    1
    50    40    37    1
    51    60    61    2
    52    91    90    1
    53    67    68    1
    54    39    38    2
    55    69    68    2
    56    19    21   ar
    57    19    17   ar
    58    21    22   ar
    59    68    75   am
    60    37    38    1
    61    37    36    1
    62    15    14    2
    63    90    87    1
    64    34    33    2
    65    30    28    1
    66    13    16    1
    67    13    14    1
    68    13    12    1
    69    16    17    1
    70    17    18   ar
    71   104   101    1
    72   104   105    1
    73    22    23    1
    74    22    20   ar
    75    75    76    1
    76   102   101    1
    77   102   103    2
    78   101   100    1
    79    35    32    1
    80    87    86    1
    81    87    88    1
    82    86    77   am
    83    33    32    1
    84    99    98    2
    85    29    28    1
    86    28    25    1
    87    77    76    1
    88    77    78    2
    89    76    79    1
    90    18    20   ar
    91    31    32    1
    92   100    98   am
    93    98    97    1
    94    88    89    2
    95    88    92   am
    96    25    24    1
    97    25    26    1
    98    79    80    1
    99   106   107    1
   100    92    93    1
   101    97    96    1
   102    26    27    2
   103     6     5    1
   104    80    81   ar
   105    80    82   ar
   106    81    83   ar
   107   113   111   ar
   108   107   108    1
   109   107   110    1
   110   108   109    2
   111   110   111    1
   112   111   112   ar
   113    93    94    1
   114    82    84   ar
   115    83    85   ar
   116    94    95    2
   117     5     7    1
   118     5     2    1
   119     4     3    2
   120    84    85   ar
   121     3     2    1
   122     3     8   am
   123     2     1    1
   124     9     8    1
   125     9    10    1
   126    10    11    2
