@<TRIPOS>MOLECULE
tmp/5di3A00.pdb
 169 165 0 0 0
SMALL
GASTEIGER

@<TRIPOS>ATOM
      1  N         12.4280  -10.7520   19.7470 N.3    12  ASP12      -0.1225
      2  CA        11.5150  -10.9250   18.6230 C.3    12  ASP12       0.1805
      3  C         10.2450  -11.6290   19.0900 C.2    12  ASP12       0.2598
      4  O         10.2790  -12.3990   20.0550 O.2    12  ASP12      -0.2718
      5  CB        12.1850  -11.7190   17.4950 C.3    12  ASP12       0.1424
      6  CG        12.5820  -13.1240   17.9270 C.2    12  ASP12       0.3668
      7  OD1       13.6610  -13.2760   18.5470 O.co2  12  ASP12      -0.2456
      8  OD2       11.8110  -14.0730   17.6530 O.co2  12  ASP12      -0.2456
      9  N          9.1340  -11.3290   18.4150 N.am   13  ASN13      -0.1960
     10  CA         7.8160  -11.9120   18.6990 C.3    13  ASN13       0.1819
     11  C          7.1810  -11.3780   19.9970 C.2    13  ASN13       0.2621
     12  O          6.0720  -11.7720   20.3610 O.2    13  ASN13      -0.2715
     13  CB         7.9110  -13.4480   18.7370 C.3    13  ASN13       0.1195
     14  CG         6.5540  -14.1320   18.6330 C.2    13  ASN13       0.2630
     15  OD1        5.8800  -14.0580   17.6020 O.2    13  ASN13      -0.2716
     16  ND2        6.1600  -14.8220   19.6960 N.am   13  ASN13      -0.0877
     17  N          7.8700  -10.4720   20.6860 N.am   14  ALA14      -0.1963
     18  CA         7.3000   -9.8530   21.8850 C.3    14  ALA14       0.1728
     19  C          6.1130   -8.9480   21.5310 C.2    14  ALA14       0.2617
     20  O          5.1510   -8.8550   22.2950 O.2    14  ALA14      -0.2715
     21  CB         8.3590   -9.0690   22.6410 C.3    14  ALA14       0.0334
     22  N          6.1890   -8.2780   20.3780 N.am   15  GLY15      -0.1940
     23  CA         5.0840   -7.4660   19.8880 C.3    15  GLY15       0.2014
     24  C          5.3720   -5.9750   19.8140 C.2    15  GLY15       0.2639
     25  O          4.4620   -5.1500   19.9300 O.2    15  GLY15      -0.2714
     26  N          6.6390   -5.6280   19.6110 N.am   16  LYS16      -0.1963
     27  CA         7.0690   -4.2330   19.5760 C.3    16  LYS16       0.1728
     28  C          6.3830   -3.4260   18.4660 C.2    16  LYS16       0.2617
     29  O          5.8050   -2.3650   18.7250 O.2    16  LYS16      -0.2715
     30  CB         8.5870   -4.1550   19.3960 C.3    16  LYS16       0.0311
     31  CG         9.3840   -4.7280   20.5390 C.3    16  LYS16       0.0038
     32  CD        10.8760   -4.6590   20.2470 C.3    16  LYS16       0.0206
     33  CE        11.2640   -5.5110   19.0580 C.3    16  LYS16       0.1093
     34  NZ        11.3580   -6.9630   19.4010 N.3    16  LYS16      -0.1314
     35  N          6.4510   -3.9290   17.2340 N.am   17  THR17      -0.1937
     36  CA         5.9040   -3.2140   16.0790 C.3    17  THR17       0.2028
     37  C          4.3880   -3.0840   16.1770 C.2    17  THR17       0.2642
     38  O          3.8250   -2.0230   15.9020 O.2    17  THR17      -0.2714
     39  CB         6.2640   -3.9120   14.7450 C.3    17  THR17       0.1808
     40  OG1        7.6870   -3.9530   14.5860 O.3    17  THR17      -0.2208
     41  CG2        5.6570   -3.1580   13.5680 C.3    17  THR17       0.0379
     42  N          3.7350   -4.1700   16.5770 N.am   18  THR18      -0.1950
     43  CA         2.2830   -4.2030   16.7110 C.3    18  THR18       0.1897
     44  C          1.8090   -3.1840   17.7400 C.2    18  THR18       0.2313
     45  O          0.8150   -2.4860   17.5350 O.2    18  THR18      -0.2863
     46  CB         1.8020   -5.6040   17.1250 C.3    18  THR18       0.1794
     47  OG1        2.3830   -6.5800   16.2510 O.3    18  THR18      -0.2208
     48  CG2        0.2800   -5.6980   17.0760 C.3    18  THR18       0.0378
     49  N         -1.0900   -5.6850    9.7770 N.3    30  ASP30      -0.1225
     50  CA        -0.4090   -6.8470   10.3250 C.3    30  ASP30       0.1805
     51  C          1.0840   -6.6780   10.1150 C.2    30  ASP30       0.2598
     52  O          1.5200   -5.7540    9.4270 O.2    30  ASP30      -0.2718
     53  CB        -0.9030   -8.1540    9.7120 C.3    30  ASP30       0.1424
     54  CG        -0.8000   -9.3210   10.6880 C.2    30  ASP30       0.3668
     55  OD1       -0.0130   -9.2230   11.6570 O.co2  30  ASP30      -0.2456
     56  OD2       -1.5130  -10.3290   10.4930 O.co2  30  ASP30      -0.2456
     57  N          1.8650   -7.5690   10.7180 N.am   31  THR31      -0.1939
     58  CA         3.2850   -7.3110   10.8990 C.3    31  THR31       0.2028
     59  C          4.1840   -8.4570   10.4640 C.2    31  THR31       0.2643
     60  O          3.8220   -9.6240   10.5640 O.2    31  THR31      -0.2714
     61  CB         3.5910   -6.9840   12.3770 C.3    31  THR31       0.1808
     62  OG1        2.9610   -7.9580   13.2200 O.3    31  THR31      -0.2208
     63  CG2        3.0740   -5.5920   12.7500 C.3    31  THR31       0.0379
     64  N          5.3660   -8.0960    9.9830 N.am   32  THR32      -0.1937
     65  CA         6.4100   -9.0500    9.6540 C.3    32  THR32       0.2013
     66  C          7.5690   -8.7690   10.5940 C.2    32  THR32       0.2484
     67  O          7.6520   -7.6690   11.1310 O.2    32  THR32      -0.2729
     68  CB         6.8660   -8.9130    8.1910 C.3    32  THR32       0.1807
     69  OG1        7.5780   -7.6790    8.0320 O.3    32  THR32      -0.2208
     70  CG2        5.6650   -8.9240    7.2600 C.3    32  THR32       0.0379
     71  N          8.4640   -9.7520   10.8020 N.am   33  PRO33      -0.2715
     72  CA         9.6410   -9.5050   11.6490 C.3    33  PRO33       0.1536
     73  C         10.4190   -8.2550   11.2260 C.2    33  PRO33       0.2599
     74  O         10.4450   -7.9220   10.0370 O.2    33  PRO33      -0.2715
     75  CB        10.4880  -10.7660   11.4450 C.3    33  PRO33       0.0310
     76  CG         9.4860  -11.8380   11.1250 C.3    33  PRO33       0.0237
     77  CD         8.4020  -11.1500   10.3280 C.3    33  PRO33       0.0939
     78  N         11.0300   -7.5670   12.1870 N.am   34  THR34      -0.1937
     79  CA        11.8270   -6.3820   11.8880 C.3    34  THR34       0.2028
     80  C         13.3140   -6.7190   11.8910 C.2    34  THR34       0.2642
     81  O         13.8260   -7.2980   12.8510 O.2    34  THR34      -0.2714
     82  CB        11.5670   -5.2370   12.9020 C.3    34  THR34       0.1808
     83  OG1       10.1640   -4.9460   12.9510 O.3    34  THR34      -0.2208
     84  CG2       12.3330   -3.9790   12.5030 C.3    34  THR34       0.0379
     85  N         13.9980   -6.3660   10.8080 N.am   35  PHE35      -0.1973
     86  CA        15.4440   -6.5500   10.7180 C.3    35  PHE35       0.1639
     87  C         16.0990   -5.2610   10.2480 C.2    35  PHE35       0.2290
     88  O         16.7020   -5.2130    9.1790 O.2    35  PHE35      -0.2864
     89  CB        15.7930   -7.7010    9.7740 C.3    35  PHE35       0.0560
     90  CG        15.6290   -9.0600   10.3920 C.ar   35  PHE35      -0.0200
     91  CD1       14.4180   -9.7320   10.3160 C.ar   35  PHE35      -0.0042
     92  CD2       16.6870   -9.6640   11.0550 C.ar   35  PHE35      -0.0042
     93  CE1       14.2650  -10.9890   10.8880 C.ar   35  PHE35      -0.0003
     94  CE2       16.5450  -10.9180   11.6300 C.ar   35  PHE35      -0.0003
     95  CZ        15.3310  -11.5810   11.5470 C.ar   35  PHE35      -0.0000
     96  N         13.0270   -1.2910   16.4570 N.3    54  LEU54      -0.1231
     97  CA        14.1300   -2.1540   16.0590 C.3    54  LEU54       0.1693
     98  C         13.7530   -3.6190   16.1550 C.2    54  LEU54       0.2593
     99  O         12.7700   -3.9720   16.8010 O.2    54  LEU54      -0.2718
    100  CB        15.3640   -1.8790   16.9170 C.3    54  LEU54       0.0284
    101  CG        15.9090   -0.4520   16.8230 C.3    54  LEU54       0.0019
    102  CD1       17.2530   -0.3380   17.5090 C.3    54  LEU54       0.0001
    103  CD2       16.0100    0.0000   15.3840 C.3    54  LEU54       0.0001
    104  N         14.5350   -4.4670   15.4950 N.am   55  GLY55      -0.1942
    105  CA        14.3340   -5.9010   15.5730 C.3    55  GLY55       0.2014
    106  C         14.9980   -6.4830   16.8030 C.2    55  GLY55       0.2639
    107  O         15.9780   -5.9350   17.3190 O.2    55  GLY55      -0.2714
    108  N         14.4650   -7.6030   17.2780 N.am   56  GLY56      -0.1939
    109  CA        15.0030   -8.2360   18.4630 C.3    56  GLY56       0.2014
    110  C         15.4440   -9.6630   18.2270 C.2    56  GLY56       0.2639
    111  O         15.7470  -10.3870   19.1760 O.2    56  GLY56      -0.2714
    112  N         15.4680  -10.0740   16.9630 N.am   57  GLY57      -0.1954
    113  CA        15.9420  -11.3990   16.6110 C.3    57  GLY57       0.1869
    114  C         17.4160  -11.5280   16.9380 C.2    57  GLY57       0.2309
    115  O         18.1380  -10.5280   16.9630 O.2    57  GLY57      -0.2863
    116  N          3.0790   -7.9540   27.4170 N.3   112  ASN112     -0.1225
    117  CA         2.1470   -7.9840   26.2990 C.3   112  ASN112      0.1785
    118  C          1.5100   -9.3640   26.1060 C.2   112  ASN112      0.2597
    119  O          2.0000  -10.3600   26.6430 O.2   112  ASN112     -0.2718
    120  CB         2.8760   -7.5320   25.0260 C.3   112  ASN112      0.1169
    121  CG         1.9640   -7.4470   23.8170 C.2   112  ASN112      0.2627
    122  OD1        0.7980   -7.0630   23.9280 O.2   112  ASN112     -0.2716
    123  ND2        2.4920   -7.8050   22.6530 N.am  112  ASN112     -0.0877
    124  N          0.4130   -9.3900   25.3430 N.am  113  LYS113     -0.1980
    125  CA        -0.3410  -10.5940   24.9790 C.3   113  LYS113      0.1596
    126  C         -1.1280  -11.1260   26.1710 C.2   113  LYS113      0.2287
    127  O         -1.2460  -12.3340   26.3720 O.2   113  LYS113     -0.2864
    128  CB         0.5830  -11.6730   24.4070 C.3   113  LYS113      0.0298
    129  CG         1.4820  -11.1670   23.2830 C.3   113  LYS113      0.0038
    130  CD         2.0090  -12.3070   22.4370 C.3   113  LYS113      0.0206
    131  CE         3.1570  -11.8440   21.5570 C.3   113  LYS113      0.1093
    132  NZ         3.5410  -12.8600   20.5270 N.3   113  LYS113     -0.1314
    133  N         -4.1020  -11.2490   26.3480 N.3   115  ASP115     -0.1225
    134  CA        -5.3000  -11.9060   25.8410 C.3   115  ASP115      0.1805
    135  C         -5.1450  -13.4240   25.9040 C.2   115  ASP115      0.2597
    136  O         -6.1220  -14.1440   26.0890 O.2   115  ASP115     -0.2718
    137  CB        -5.6010  -11.4610   24.4060 C.3   115  ASP115      0.1424
    138  CG        -4.4370  -11.7060   23.4550 C.2   115  ASP115      0.3668
    139  OD1       -3.3250  -11.2020   23.7280 O.co2 115  ASP115     -0.2456
    140  OD2       -4.6300  -12.4120   22.4390 O.co2 115  ASP115     -0.2456
    141  N         -3.9130  -13.9020   25.7580 N.am  116  LEU116     -0.1979
    142  CA        -3.6330  -15.3370   25.7170 C.3   116  LEU116      0.1596
    143  C         -3.7720  -16.0000   27.0900 C.2   116  LEU116      0.2287
    144  O         -3.3820  -15.4240   28.1010 O.2   116  LEU116     -0.2864
    145  CB        -2.2270  -15.5820   25.1620 C.3   116  LEU116      0.0297
    146  CG        -1.9920  -15.1640   23.7130 C.3   116  LEU116      0.0022
    147  CD1       -0.5590  -15.4380   23.2970 C.3   116  LEU116      0.0001
    148  CD2       -2.9560  -15.8910   22.8040 C.3   116  LEU116      0.0001
    149  N         -2.6470   -5.6990   25.9020 N.3   144  THR144     -0.1203
    150  CA        -2.9330   -6.4960   24.7240 C.3   144  THR144      0.1994
    151  C         -2.7490   -5.6060   23.5000 C.2   144  THR144      0.2618
    152  O         -3.6090   -4.7850   23.1820 O.2   144  THR144     -0.2717
    153  CB        -4.3570   -7.0810   24.7580 C.3   144  THR144      0.1784
    154  OG1       -4.5030   -7.9120   25.9180 O.3   144  THR144     -0.2211
    155  CG2       -4.6360   -7.9040   23.5040 C.3   144  THR144      0.0376
    156  N         -1.6150   -5.7600   22.8260 N.am  145  ALA145     -0.1965
    157  CA        -1.2940   -4.9170   21.6850 C.3   145  ALA145      0.1728
    158  C         -2.1860   -5.2440   20.4910 C.2   145  ALA145      0.2616
    159  O         -2.4630   -4.3800   19.6540 O.2   145  ALA145     -0.2715
    160  CB         0.1660   -5.0690   21.3170 C.3   145  ALA145      0.0334
    161  N         -2.6370   -6.4920   20.4140 N.am  146  LYS146     -0.1977
    162  CA        -3.5040   -6.9110   19.3210 C.3   146  LYS146      0.1596
    163  C         -4.9170   -7.1960   19.8250 C.2   146  LYS146      0.2287
    164  O         -5.3000   -8.3530   20.0180 O.2   146  LYS146     -0.2864
    165  CB        -2.9250   -8.1390   18.6140 C.3   146  LYS146      0.0298
    166  CG        -3.5340   -8.4080   17.2420 C.3   146  LYS146      0.0038
    167  CD        -2.5880   -9.1970   16.3380 C.3   146  LYS146      0.0206
    168  CE        -3.0370  -10.6420   16.1560 C.3   146  LYS146      0.1093
    169  NZ        -2.2090  -11.3890   15.1530 N.3   146  LYS146     -0.1314
@<TRIPOS>BOND
     1    70    68    1
     2    69    68    1
     3    68    65    1
     4    88    87    2
     5    52    51    2
     6    65    64    1
     7    65    66    1
     8    53    50    1
     9    53    54    1
    10    89    90    1
    11    89    86    1
    12    49    50    1
    13    64    59   am
    14    74    73    2
    15    51    50    1
    16    51    57   am
    17    87    86    1
    18    91    90   ar
    19    91    93   ar
    20    77    71    1
    21    77    76    1
    22    90    92   ar
    23    59    60    2
    24    59    58    1
    25    56    54   ar
    26    66    71   am
    27    66    67    2
    28    54    55   ar
    29    57    58    1
    30    86    85    1
    31    71    72    1
    32    85    80   am
    33    93    95   ar
    34    58    61    1
    35    92    94   ar
    36    76    75    1
    37    73    72    1
    38    73    78   am
    39    75    72    1
    40    95    94   ar
    41    79    80    1
    42    79    78    1
    43    79    82    1
    44    80    81    2
    45    61    63    1
    46    61    62    1
    47    84    82    1
    48    82    83    1
    49    41    39    1
    50    40    39    1
    51    39    36    1
    52   169   168    1
    53   103   101    1
    54   104   105    1
    55   104    98   am
    56   105   106    1
    57    38    37    2
    58    97    98    1
    59    97    96    1
    60    97   100    1
    61    36    37    1
    62    36    35    1
    63    98    99    2
    64   168   167    1
    65    37    42   am
    66    47    46    1
    67   167   166    1
    68    42    43    1
    69   113   114    1
    70   113   112    1
    71    43    46    1
    72    43    44    1
    73   106   108   am
    74   106   107    2
    75   101   100    1
    76   101   102    1
    77   114   115    2
    78   112   110   am
    79    48    46    1
    80    35    28   am
    81   166   165    1
    82   108   109    1
    83     5     6    1
    84     5     2    1
    85    45    44    2
    86    15    14    2
    87     8     6   ar
    88     6     7   ar
    89   110   109    1
    90   110   111    2
    91     9    10    1
    92     9     3   am
    93    28    29    2
    94    28    27    1
    95   165   162    1
    96     2     3    1
    97     2     1    1
    98    14    13    1
    99    14    16   am
   100    10    13    1
   101    10    11    1
   102    33    34    1
   103    33    32    1
   104     3     4    2
   105   162   163    1
   106   162   161    1
   107    30    27    1
   108    30    31    1
   109    27    26    1
   110    26    24   am
   111   159   158    2
   112    24    23    1
   113    24    25    2
   114   163   164    2
   115    23    22    1
   116    11    12    2
   117    11    17   am
   118    32    31    1
   119    22    19   am
   120   161   158   am
   121   158   157    1
   122   132   131    1
   123    17    18    1
   124   160   157    1
   125    19    18    1
   126    19    20    2
   127   131   130    1
   128   157   156    1
   129    18    21    1
   130   130   129    1
   131   140   138   ar
   132   123   121   am
   133   148   146    1
   134   156   151   am
   135   152   151    2
   136   129   128    1
   137   147   146    1
   138   138   139   ar
   139   138   137    1
   140   151   150    1
   141   155   153    1
   142   146   145    1
   143   121   122    2
   144   121   120    1
   145   137   134    1
   146   128   125    1
   147   150   153    1
   148   150   149    1
   149   153   154    1
   150   125   124    1
   151   125   126    1
   152   120   117    1
   153   145   142    1
   154   124   118   am
   155   142   141    1
   156   142   143    1
   157   141   135   am
   158   134   135    1
   159   134   133    1
   160   135   136    2
   161   118   117    1
   162   118   119    2
   163   126   127    2
   164   117   116    1
   165   143   144    2
