@<TRIPOS>MOLECULE
tmp/5diaA00.pdb
 161 151 0 0 0
SMALL
GASTEIGER

@<TRIPOS>ATOM
      1  N         16.9180  -38.2820    5.3460 N.3    12  LEU12      -0.1231
      2  CA        18.3110  -38.0770    5.7250 C.3    12  LEU12       0.1693
      3  C         18.4640  -36.8050    6.5510 C.2    12  LEU12       0.2592
      4  O         19.3300  -36.7180    7.4230 O.2    12  LEU12      -0.2718
      5  CB        19.2040  -38.0160    4.4830 C.3    12  LEU12       0.0284
      6  CG        19.2780  -39.2970    3.6500 C.3    12  LEU12       0.0019
      7  CD1       20.0880  -39.0660    2.3830 C.3    12  LEU12       0.0001
      8  CD2       19.8670  -40.4370    4.4690 C.3    12  LEU12       0.0001
      9  N         17.6160  -35.8210    6.2730 N.am   13  GLY13      -0.1957
     10  CA        17.6420  -34.5650    6.9980 C.3    13  GLY13       0.1869
     11  C         16.8110  -33.4870    6.3290 C.2    13  GLY13       0.2309
     12  O         16.3580  -33.6510    5.1950 O.2    13  GLY13      -0.2863
     13  N         17.4510  -25.8340    3.2940 N.3    17  PHE17      -0.1241
     14  CA        17.6040  -26.3610    1.9400 C.3    17  PHE17       0.1605
     15  C         16.3780  -27.1480    1.4830 C.2    17  PHE17       0.2264
     16  O         16.1690  -27.3490    0.2860 O.2    17  PHE17      -0.2867
     17  CB        18.8460  -27.2510    1.8630 C.3    17  PHE17       0.0534
     18  CG        18.8560  -28.3610    2.8770 C.ar   17  PHE17      -0.0203
     19  CD1       18.1870  -29.5460    2.6300 C.ar   17  PHE17      -0.0042
     20  CD2       19.5310  -28.2130    4.0770 C.ar   17  PHE17      -0.0042
     21  CE1       18.1910  -30.5690    3.5620 C.ar   17  PHE17      -0.0003
     22  CE2       19.5400  -29.2340    5.0150 C.ar   17  PHE17      -0.0003
     23  CZ        18.8700  -30.4110    4.7550 C.ar   17  PHE17      -0.0000
     24  N         15.5970  -33.9220    2.3780 N.3    20  VAL20      -0.1245
     25  CA        16.3670  -34.8640    1.5760 C.3    20  VAL20       0.1561
     26  C         16.1890  -36.2960    2.0660 C.2    20  VAL20       0.2260
     27  O         16.3840  -36.5910    3.2450 O.2    20  VAL20      -0.2867
     28  CB        17.8710  -34.5100    1.5840 C.3    20  VAL20       0.0252
     29  CG1       18.6570  -35.5290    0.7770 C.3    20  VAL20       0.0019
     30  CG2       18.0880  -33.1030    1.0390 C.3    20  VAL20       0.0019
     31  N         19.8180  -39.8990   -3.6980 N.3    33  ALA33      -0.1245
     32  CA        19.2560  -38.9830   -2.7170 C.3    33  ALA33       0.1562
     33  C         18.1310  -38.2050   -3.3800 C.2    33  ALA33       0.2260
     34  O         18.2690  -37.7460   -4.5160 O.2    33  ALA33      -0.2867
     35  CB        20.3230  -38.0400   -2.2000 C.3    33  ALA33       0.0290
     36  N         15.7610  -34.9750   -3.1240 N.3    35  LYS35      -0.1245
     37  CA        15.6300  -33.6740   -2.4800 C.3    35  LYS35       0.1561
     38  C         14.3570  -32.9370   -2.8870 C.2    35  LYS35       0.2260
     39  O         14.0940  -32.7380   -4.0730 O.2    35  LYS35      -0.2867
     40  CB        16.8550  -32.8100   -2.7880 C.3    35  LYS35       0.0271
     41  CG        16.7700  -31.4030   -2.2350 C.3    35  LYS35       0.0035
     42  CD        18.0550  -30.6340   -2.4900 C.3    35  LYS35       0.0206
     43  CE        17.9610  -29.2130   -1.9590 C.3    35  LYS35       0.1093
     44  NZ        19.2450  -28.4680   -2.1080 N.3    35  LYS35      -0.1314
     45  N         19.3550  -23.6320   -8.6890 N.3    57  GLU57      -0.1245
     46  CA        20.0780  -24.7980   -8.1970 C.3    57  GLU57       0.1567
     47  C         20.2090  -25.8650   -9.2790 C.2    57  GLU57       0.2260
     48  O         21.2680  -26.4740   -9.4390 O.2    57  GLU57      -0.2867
     49  CB        19.3770  -25.3760   -6.9670 C.3    57  GLU57       0.0388
     50  CG        20.0460  -26.6150   -6.4040 C.3    57  GLU57       0.1160
     51  CD        19.3350  -27.1580   -5.1780 C.2    57  GLU57       0.3649
     52  OE1       18.4130  -26.4850   -4.6720 O.co2  57  GLU57      -0.2457
     53  OE2       19.6990  -28.2610   -4.7240 O.co2  57  GLU57      -0.2457
     54  N         28.6480  -33.9050   -5.9730 N.3    72  ILE72      -0.1245
     55  CA        27.5450  -34.8460   -6.1300 C.3    72  ILE72       0.1561
     56  C         26.7310  -34.4700   -7.3600 C.2    72  ILE72       0.2260
     57  O         26.2490  -33.3440   -7.4750 O.2    72  ILE72      -0.2867
     58  CB        26.6350  -34.8740   -4.8890 C.3    72  ILE72       0.0252
     59  CG1       27.3510  -35.5640   -3.7270 C.3    72  ILE72       0.0019
     60  CG2       25.3400  -35.6020   -5.2010 C.3    72  ILE72       0.0019
     61  CD1       27.6900  -37.0120   -4.0020 C.3    72  ILE72       0.0001
     62  N         19.6200  -37.1210   -6.8930 N.3    88  LEU88      -0.1231
     63  CA        21.0660  -36.9370   -6.8440 C.3    88  LEU88       0.1693
     64  C         21.8230  -38.2270   -6.5240 C.2    88  LEU88       0.2592
     65  O         21.3070  -39.1140   -5.8430 O.2    88  LEU88      -0.2718
     66  CB        21.4200  -35.8550   -5.8180 C.3    88  LEU88       0.0284
     67  CG        20.8100  -34.4710   -6.0680 C.3    88  LEU88       0.0019
     68  CD1       20.2250  -33.8840   -4.7890 C.3    88  LEU88       0.0001
     69  CD2       21.8370  -33.5310   -6.6740 C.3    88  LEU88       0.0001
     70  N         23.0510  -38.3170   -7.0300 N.am   89  GLU89      -0.1966
     71  CA        23.9460  -39.4250   -6.7140 C.3    89  GLU89       0.1733
     72  C         24.1460  -39.5310   -5.2110 C.2    89  GLU89       0.2616
     73  O         24.2940  -38.5180   -4.5380 O.2    89  GLU89      -0.2715
     74  CB        25.3060  -39.2050   -7.3790 C.3    89  GLU89       0.0429
     75  CG        26.4860  -39.5600   -6.4820 C.3    89  GLU89       0.1163
     76  CD        27.8100  -39.0080   -6.9870 C.2    89  GLU89       0.3649
     77  OE1       27.8320  -37.8730   -7.5060 O.co2  89  GLU89      -0.2457
     78  OE2       28.8330  -39.7150   -6.8610 O.co2  89  GLU89      -0.2457
     79  N         24.1680  -40.7520   -4.6850 N.am   90  ARG90      -0.1964
     80  CA        24.3940  -40.9560   -3.2540 C.3    90  ARG90       0.1714
     81  C         25.4540  -42.0160   -2.9690 C.2    90  ARG90       0.2458
     82  O         25.2330  -43.2020   -3.2150 O.2    90  ARG90      -0.2730
     83  CB        23.0920  -41.3280   -2.5400 C.3    90  ARG90       0.0347
     84  CG        23.3110  -41.8300   -1.1160 C.3    90  ARG90       0.0492
     85  CD        22.0020  -41.9960   -0.3620 C.3    90  ARG90       0.2205
     86  NE        21.1740  -43.0710   -0.9030 N.pl3  90  ARG90      -0.0865
     87  CZ        21.2770  -44.3460   -0.5430 C.cat  90  ARG90       0.5346
     88  NH1       22.1820  -44.7130    0.3540 N.pl3  90  ARG90       0.1354
     89  NH2       20.4790  -45.2560   -1.0840 N.pl3  90  ARG90       0.1354
     90  N         26.6100  -41.5880   -2.4410 N.am   91  PRO91      -0.2727
     91  CA        27.6790  -42.5150   -2.0560 C.3    91  PRO91       0.1402
     92  C         27.2610  -43.3640   -0.8590 C.2    91  PRO91       0.2269
     93  O         26.3830  -42.9580   -0.0970 O.2    91  PRO91      -0.2865
     94  CB        28.8310  -41.5800   -1.6620 C.3    91  PRO91       0.0296
     95  CG        28.4880  -40.2530   -2.2610 C.3    91  PRO91       0.0237
     96  CD        26.9990  -40.1840   -2.2350 C.3    91  PRO91       0.0939
     97  N         28.3870  -43.4380    3.7430 N.3    94  VAL94      -0.1231
     98  CA        28.7320  -42.0420    3.7680 C.3    94  VAL94       0.1692
     99  C         28.4450  -41.3670    5.1110 C.2    94  VAL94       0.2592
    100  O         27.5830  -41.7790    5.8340 O.2    94  VAL94      -0.2718
    101  CB        27.9660  -41.3500    2.6470 C.3    94  VAL94       0.0266
    102  CG1       26.6180  -40.9880    3.0750 C.3    94  VAL94       0.0020
    103  CG2       28.6470  -40.2120    2.1360 C.3    94  VAL94       0.0020
    104  N         29.2030  -40.3310    5.4250 N.am   95  GLN95      -0.1966
    105  CA        28.9850  -39.4620    6.5700 C.3    95  GLN95       0.1733
    106  C         29.3470  -38.0230    6.1820 C.2    95  GLN95       0.2616
    107  O         30.3270  -37.8420    5.5210 O.2    95  GLN95      -0.2715
    108  CB        29.8600  -39.9080    7.7300 C.3    95  GLN95       0.0408
    109  CG        29.5390  -39.2850    9.0360 C.3    95  GLN95       0.0908
    110  CD        30.4210  -39.7600   10.1560 C.2    95  GLN95       0.2608
    111  OE1       31.5570  -40.0620    9.9660 O.2    95  GLN95      -0.2717
    112  NE2       29.8950  -39.7800   11.3220 N.am   95  GLN95      -0.0878
    113  N         28.6040  -37.0120    6.6090 N.am   96  ASP96      -0.1971
    114  CA        29.0100  -35.6470    6.2970 C.3    96  ASP96       0.1709
    115  C         30.1600  -35.2120    7.2000 C.2    96  ASP96       0.2293
    116  O         30.3620  -35.7690    8.2800 O.2    96  ASP96      -0.2864
    117  CB        27.8350  -34.6640    6.3520 C.3    96  ASP96       0.1436
    118  CG        27.4130  -34.3190    7.7690 C.2    96  ASP96       0.3671
    119  OD1       26.4440  -33.5470    7.9100 O.co2  96  ASP96      -0.2456
    120  OD2       28.0330  -34.8120    8.7340 O.co2  96  ASP96      -0.2456
    121  N         29.0110  -29.2090    6.9250 N.3   139  GLU139     -0.1231
    122  CA        27.6930  -29.8170    6.7510 C.3   139  GLU139      0.1699
    123  C         27.3880  -30.0940    5.2840 C.2   139  GLU139      0.2592
    124  O         26.5670  -30.9550    4.9670 O.2   139  GLU139     -0.2718
    125  CB        26.5990  -28.9170    7.3370 C.3   139  GLU139      0.0402
    126  CG        26.6260  -28.7960    8.8510 C.3   139  GLU139      0.1161
    127  CD        25.5460  -27.8680    9.3760 C.2   139  GLU139      0.3649
    128  OE1       24.3930  -28.3220    9.5380 O.co2 139  GLU139     -0.2457
    129  OE2       25.8510  -26.6830    9.6240 O.co2 139  GLU139     -0.2457
    130  N         28.0530  -29.3640    4.3920 N.am  140  ASN140     -0.1974
    131  CA        27.7810  -29.4730    2.9600 C.3   140  ASN140      0.1688
    132  C         28.8210  -30.2610    2.1650 C.2   140  ASN140      0.2292
    133  O         28.9530  -30.0800    0.9550 O.2   140  ASN140     -0.2864
    134  CB        27.5810  -28.0890    2.3400 C.3   140  ASN140      0.1181
    135  CG        26.2340  -27.4860    2.6850 C.2   140  ASN140      0.2629
    136  OD1       25.2910  -28.2030    3.0200 O.2   140  ASN140     -0.2716
    137  ND2       26.1350  -26.1630    2.5970 N.am  140  ASN140     -0.0877
    138  N         30.2400  -34.3980    1.8190 N.3   142  LEU142     -0.1245
    139  CA        30.0670  -35.7900    2.2090 C.3   142  LEU142      0.1561
    140  C         31.3680  -36.5710    2.0870 C.2   142  LEU142      0.2260
    141  O         32.1890  -36.2990    1.2100 O.2   142  LEU142     -0.2867
    142  CB        28.9840  -36.4490    1.3530 C.3   142  LEU142      0.0270
    143  CG        27.5820  -35.8420    1.4420 C.3   142  LEU142      0.0019
    144  CD1       26.6340  -36.5670    0.4940 C.3   142  LEU142      0.0001
    145  CD2       27.0630  -35.8850    2.8760 C.3   142  LEU142      0.0001
    146  N         27.9900  -30.7590   -1.6610 N.3   153  ILE153     -0.1231
    147  CA        26.5360  -30.8300   -1.8000 C.3   153  ILE153      0.1692
    148  C         25.8200  -29.5020   -1.5600 C.2   153  ILE153      0.2592
    149  O         26.3800  -28.5700   -0.9810 O.2   153  ILE153     -0.2718
    150  CB        25.9160  -31.9020   -0.8710 C.3   153  ILE153      0.0266
    151  CG1       26.2550  -31.6100    0.5930 C.3   153  ILE153      0.0019
    152  CG2       26.3910  -33.2880   -1.2700 C.3   153  ILE153      0.0020
    153  CD1       25.5650  -32.5280    1.5810 C.3   153  ILE153      0.0001
    154  N         24.5730  -29.4400   -2.0190 N.am  154  ASP154     -0.1974
    155  CA        23.7000  -28.2810   -1.8310 C.3   154  ASP154      0.1709
    156  C         24.1720  -27.0210   -2.5520 C.2   154  ASP154      0.2293
    157  O         24.9960  -26.2650   -2.0370 O.2   154  ASP154     -0.2864
    158  CB        23.4760  -27.9890   -0.3470 C.3   154  ASP154      0.1436
    159  CG        22.4150  -26.9270   -0.1180 C.2   154  ASP154      0.3671
    160  OD1       21.6420  -26.6460   -1.0580 O.co2 154  ASP154     -0.2456
    161  OD2       22.3470  -26.3820    1.0010 O.co2 154  ASP154     -0.2456
@<TRIPOS>BOND
     1    48    47    2
     2    47    46    1
     3    45    46    1
     4    46    49    1
     5    77    76   ar
     6    57    56    2
     7    74    71    1
     8    74    75    1
     9    56    55    1
    10    70    71    1
    11    70    64   am
    12    76    78   ar
    13    76    75    1
    14    49    50    1
    15    62    63    1
    16    63    64    1
    17    63    66    1
    18    71    72    1
    19    69    67    1
    20    64    65    2
    21    50    51    1
    22    55    54    1
    23    55    58    1
    24    67    66    1
    25    67    68    1
    26    72    79   am
    27    72    73    2
    28    60    58    1
    29    51    53   ar
    30    51    52   ar
    31    58    59    1
    32    79    80    1
    33    34    33    2
    34    39    38    2
    35    61    59    1
    36    31    32    1
    37    33    32    1
    38    80    81    1
    39    80    83    1
    40    82    81    2
    41    36    37    1
    42    81    90   am
    43    38    37    1
    44    40    37    1
    45    40    41    1
    46    32    35    1
    47   156   157    2
    48   156   155    1
    49    83    84    1
    50    42    41    1
    51    42    43    1
    52    90    96    1
    53    90    91    1
    54    95    96    1
    55    95    94    1
    56    44    43    1
    57    91    94    1
    58    91    92    1
    59   154   155    1
    60   154   148   am
    61   155   158    1
    62   147   146    1
    63   147   148    1
    64   147   150    1
    65   148   149    2
    66   152   150    1
    67    84    85    1
    68    89    87    1
    69   160   159   ar
    70    86    87    2
    71    86    85    1
    72   150   151    1
    73    92    93    2
    74    87    88    1
    75   158   159    1
    76   159   161   ar
    77    16    15    2
    78   144   143    1
    79   151   153    1
    80    29    28    1
    81   133   132    2
    82    30    28    1
    83   141   140    2
    84   142   143    1
    85   142   139    1
    86   143   145    1
    87    15    14    1
    88    25    28    1
    89    25    26    1
    90    25    24    1
    91   138   139    1
    92    17    14    1
    93    17    18    1
    94    14    13    1
    95    26    27    2
    96   140   139    1
    97   103   101    1
    98   132   131    1
    99   134   135    1
   100   134   131    1
   101     7     6    1
   102   137   135   am
   103    19    18   ar
   104    19    21   ar
   105   101   102    1
   106   101    98    1
   107   135   136    2
   108    18    20   ar
   109   131   130    1
   110    21    23   ar
   111     6     8    1
   112     6     5    1
   113    97    98    1
   114    98    99    1
   115    20    22   ar
   116   130   123   am
   117     5     2    1
   118    23    22   ar
   119   124   123    2
   120    99   104   am
   121    99   100    2
   122    12    11    2
   123   123   122    1
   124     1     2    1
   125   104   105    1
   126   107   106    2
   127     2     3    1
   128   106   105    1
   129   106   113   am
   130     9     3   am
   131     9    10    1
   132   114   117    1
   133   114   113    1
   134   114   115    1
   135    11    10    1
   136   117   118    1
   137     3     4    2
   138   105   108    1
   139   122   121    1
   140   122   125    1
   141   115   116    2
   142   125   126    1
   143   108   109    1
   144   118   119   ar
   145   118   120   ar
   146   126   127    1
   147   109   110    1
   148   127   128   ar
   149   127   129   ar
   150   111   110    2
   151   110   112   am
