@<TRIPOS>MOLECULE
tmp/5dicA00.pdb
 161 152 0 0 0
SMALL
GASTEIGER

@<TRIPOS>ATOM
      1  N         33.0630  -19.0140   -2.0940 N.3     2  LEU2       -0.1245
      2  CA        32.9420  -20.3030   -2.7270 C.3     2  LEU2        0.1561
      3  C         34.2250  -21.1040   -2.6690 C.2     2  LEU2        0.2260
      4  O         35.3000  -20.6530   -3.0730 O.2     2  LEU2       -0.2867
      5  CB        32.5400  -20.1400   -4.1920 C.3     2  LEU2        0.0270
      6  CG        31.1300  -19.6410   -4.4580 C.3     2  LEU2        0.0019
      7  CD1       30.9260  -19.4860   -5.9540 C.3     2  LEU2        0.0001
      8  CD2       30.0770  -20.5680   -3.8550 C.3     2  LEU2        0.0001
      9  N         35.0420  -24.1950   -4.5830 N.3     4  LEU4       -0.1245
     10  CA        34.5070  -24.9920   -5.6780 C.3     4  LEU4        0.1561
     11  C         34.8880  -26.4390   -5.4770 C.2     4  LEU4        0.2260
     12  O         36.0000  -26.7690   -5.0340 O.2     4  LEU4       -0.2867
     13  CB        35.0500  -24.5520   -7.0370 C.3     4  LEU4        0.0270
     14  CG        34.7850  -23.1130   -7.4560 C.3     4  LEU4        0.0019
     15  CD1       35.1730  -22.9370   -8.9140 C.3     4  LEU4        0.0001
     16  CD2       33.3330  -22.7150   -7.2420 C.3     4  LEU4        0.0001
     17  N         32.9270  -28.7690  -10.0560 N.3     8  GLN8       -0.1245
     18  CA        32.7440  -27.3730  -10.4800 C.3     8  GLN8        0.1566
     19  C         33.9980  -26.8150  -11.1390 C.2     8  GLN8        0.2260
     20  O         33.9140  -26.0920  -12.1350 O.2     8  GLN8       -0.2867
     21  CB        32.3500  -26.5040   -9.2980 C.3     8  GLN8        0.0367
     22  CG        30.9410  -26.7680   -8.7770 C.3     8  GLN8        0.0905
     23  CD        30.6480  -25.9530   -7.5500 C.2     8  GLN8        0.2608
     24  OE1       31.4010  -25.9940   -6.5670 O.2     8  GLN8       -0.2717
     25  NE2       29.5530  -25.1990   -7.5880 N.am    8  GLN8       -0.0878
     26  N         34.0480  -27.9370  -14.6760 N.3    11  LYS11      -0.1231
     27  CA        33.0670  -27.1620  -15.4600 C.3    11  LYS11       0.1693
     28  C         33.5460  -25.7520  -15.7580 C.2    11  LYS11       0.2591
     29  O         33.3310  -25.2540  -16.8510 O.2    11  LYS11      -0.2718
     30  CB        31.7290  -27.1150  -14.7270 C.3    11  LYS11       0.0285
     31  CG        30.9760  -28.4260  -14.7350 C.3    11  LYS11       0.0035
     32  CD        29.6560  -28.3290  -13.9870 C.3    11  LYS11       0.0206
     33  CE        28.9010  -29.6320  -14.0590 C.3    11  LYS11       0.1093
     34  NZ        27.6630  -29.6100  -13.2350 N.3    11  LYS11      -0.1314
     35  N         34.1960  -25.1250  -14.7990 N.am   12  VAL12      -0.1980
     36  CA        34.7130  -23.7940  -15.0240 C.3    12  VAL12       0.1595
     37  C         35.6680  -23.8170  -16.2290 C.2    12  VAL12       0.2287
     38  O         35.6000  -22.9550  -17.1130 O.2    12  VAL12      -0.2864
     39  CB        35.4440  -23.2240  -13.7900 C.3    12  VAL12       0.0276
     40  CG1       36.2250  -21.9730  -14.1230 C.3    12  VAL12       0.0022
     41  CG2       34.4460  -22.9160  -12.6850 C.3    12  VAL12       0.0022
     42  N         33.7870  -24.2300  -19.5820 N.3    15  HIS15      -0.1241
     43  CA        33.0940  -23.0110  -20.0180 C.3    15  HIS15       0.1621
     44  C         34.0730  -21.9000  -20.3380 C.2    15  HIS15       0.2264
     45  O         33.8260  -21.0670  -21.2320 O.2    15  HIS15      -0.2867
     46  CB        32.0540  -22.5850  -18.9850 C.3    15  HIS15       0.0745
     47  CG        31.0080  -23.6090  -18.7370 C.ar   15  HIS15       0.0817
     48  ND1       30.3080  -24.2280  -19.7460 N.ar   15  HIS15      -0.2268
     49  CD2       30.5250  -24.1100  -17.5730 C.ar   15  HIS15       0.1154
     50  CE1       29.4270  -25.0620  -19.2150 C.ar   15  HIS15       0.1986
     51  NE2       29.5490  -25.0150  -17.8990 N.ar   15  HIS15      -0.2212
     52  N         30.3810  -16.4650  -19.9610 N.3    52  PHE52      -0.1227
     53  CA        30.5660  -17.4330  -18.9030 C.3    52  PHE52       0.1736
     54  C         29.2710  -17.5700  -18.1170 C.2    52  PHE52       0.2595
     55  O         28.8330  -18.6830  -17.8120 O.2    52  PHE52      -0.2718
     56  CB        31.7520  -17.0240  -18.0450 C.3    52  PHE52       0.0547
     57  CG        32.0760  -18.0190  -16.9800 C.ar   52  PHE52      -0.0202
     58  CD1       32.9110  -19.0920  -17.2550 C.ar   52  PHE52      -0.0042
     59  CD2       31.5360  -17.9090  -15.7220 C.ar   52  PHE52      -0.0042
     60  CE1       33.1920  -20.0310  -16.2900 C.ar   52  PHE52      -0.0003
     61  CE2       31.8050  -18.8590  -14.7420 C.ar   52  PHE52      -0.0003
     62  CZ        32.6290  -19.9140  -15.0540 C.ar   52  PHE52      -0.0000
     63  N         28.6980  -16.4430  -17.7220 N.am   53  PHE53      -0.1976
     64  CA        27.4510  -16.4800  -16.9710 C.3    53  PHE53       0.1639
     65  C         26.2810  -17.0340  -17.7320 C.2    53  PHE53       0.2290
     66  O         25.3940  -17.6560  -17.1350 O.2    53  PHE53      -0.2864
     67  CB        27.1980  -15.1000  -16.3350 C.3    53  PHE53       0.0560
     68  CG        28.2210  -14.7930  -15.2560 C.ar   53  PHE53      -0.0200
     69  CD1       28.3400  -15.6080  -14.1390 C.ar   53  PHE53      -0.0042
     70  CD2       29.0960  -13.7430  -15.4000 C.ar   53  PHE53      -0.0042
     71  CE1       29.3210  -15.3760  -13.1970 C.ar   53  PHE53      -0.0003
     72  CE2       30.0760  -13.4800  -14.4640 C.ar   53  PHE53      -0.0003
     73  CZ        30.1920  -14.3120  -13.3620 C.ar   53  PHE53      -0.0000
     74  N         26.9210  -21.0260  -17.7250 N.3    56  ILE56      -0.1245
     75  CA        26.5920  -21.6940  -16.4660 C.3    56  ILE56       0.1561
     76  C         25.1110  -21.5500  -16.1120 C.2    56  ILE56       0.2260
     77  O         24.7070  -22.0420  -15.0610 O.2    56  ILE56      -0.2867
     78  CB        27.5000  -21.2630  -15.3020 C.3    56  ILE56       0.0252
     79  CG1       27.2580  -19.8200  -14.8670 C.3    56  ILE56       0.0019
     80  CG2       28.9570  -21.4720  -15.6600 C.3    56  ILE56       0.0019
     81  CD1       27.8990  -19.4730  -13.5400 C.3    56  ILE56       0.0001
     82  N         23.1880  -18.8040  -15.5990 N.3    58  THR58      -0.1203
     83  CA        22.7770  -17.7360  -14.7140 C.3    58  THR58       0.1994
     84  C         22.2770  -16.4660  -15.4080 C.2    58  THR58       0.2617
     85  O         21.7160  -15.5880  -14.7470 O.2    58  THR58      -0.2717
     86  CB        23.9040  -17.3550  -13.7160 C.3    58  THR58       0.1784
     87  OG1       25.0750  -16.8860  -14.4080 O.3    58  THR58      -0.2211
     88  CG2       24.2100  -18.5200  -12.7650 C.3    58  THR58       0.0376
     89  N         22.4950  -16.3590  -16.7070 N.am   59  LEU59      -0.1979
     90  CA        22.1570  -15.1670  -17.4590 C.3    59  LEU59       0.1596
     91  C         21.6740  -15.5630  -18.8330 C.2    59  LEU59       0.2287
     92  O         22.2630  -16.4290  -19.4720 O.2    59  LEU59      -0.2864
     93  CB        23.3950  -14.2730  -17.5960 C.3    59  LEU59       0.0297
     94  CG        23.2120  -12.9000  -18.2390 C.3    59  LEU59       0.0022
     95  CD1       22.4040  -11.9850  -17.3540 C.3    59  LEU59       0.0001
     96  CD2       24.5550  -12.2640  -18.5850 C.3    59  LEU59       0.0001
     97  N         18.7490  -12.2010  -15.4310 N.3    64  VAL64      -0.1245
     98  CA        19.3250  -13.1140  -14.4520 C.3    64  VAL64       0.1561
     99  C         18.3910  -14.2810  -14.1940 C.2    64  VAL64       0.2260
    100  O         17.1810  -14.0880  -13.9690 O.2    64  VAL64      -0.2867
    101  CB        19.6950  -12.3750  -13.1680 C.3    64  VAL64       0.0252
    102  CG1       20.2330  -13.3460  -12.1460 C.3    64  VAL64       0.0019
    103  CG2       20.6840  -11.2490  -13.4480 C.3    64  VAL64       0.0019
    104  N         20.9660  -19.0160   -9.9730 N.3    69  VAL69      -0.1245
    105  CA        21.8000  -18.2440   -9.0570 C.3    69  VAL69       0.1561
    106  C         21.5980  -18.7400   -7.6260 C.2    69  VAL69       0.2260
    107  O         22.5630  -18.9220   -6.9020 O.2    69  VAL69      -0.2867
    108  CB        21.5050  -16.7390   -9.2060 C.3    69  VAL69       0.0252
    109  CG1       22.1980  -15.9610   -8.1000 C.3    69  VAL69       0.0019
    110  CG2       21.9380  -16.2540  -10.5780 C.3    69  VAL69       0.0019
    111  N         23.1940  -22.1790   -6.9900 N.3    72  LYS72      -0.1231
    112  CA        24.6420  -22.1480   -6.9490 C.3    72  LYS72       0.1693
    113  C         25.2160  -21.3840   -5.7790 C.2    72  LYS72       0.2591
    114  O         26.2980  -21.7260   -5.2880 O.2    72  LYS72      -0.2718
    115  CB        25.2200  -21.6850   -8.2650 C.3    72  LYS72       0.0285
    116  CG        24.9290  -22.6630   -9.4040 C.3    72  LYS72       0.0035
    117  CD        25.5660  -22.2040  -10.7080 C.3    72  LYS72       0.0206
    118  CE        25.1930  -23.1020  -11.8510 C.3    72  LYS72       0.1093
    119  NZ        25.9310  -24.3710  -11.8280 N.3    72  LYS72      -0.1314
    120  N         24.5510  -20.3170   -5.3280 N.am   73  LEU73      -0.1980
    121  CA        25.1130  -19.4450   -4.3240 C.3    73  LEU73       0.1596
    122  C         24.4950  -19.5750   -2.9430 C.2    73  LEU73       0.2287
    123  O         25.1620  -19.2570   -1.9490 O.2    73  LEU73      -0.2864
    124  CB        25.0150  -17.9800   -4.7320 C.3    73  LEU73       0.0297
    125  CG        25.7300  -17.5450   -5.9950 C.3    73  LEU73       0.0022
    126  CD1       25.5560  -16.0490   -6.1550 C.3    73  LEU73       0.0001
    127  CD2       27.2010  -17.9050   -5.9410 C.3    73  LEU73       0.0001
    128  N         26.2480   -7.6320  -18.9290 N.3   101  GLY101     -0.1225
    129  CA        26.7350   -8.7510  -18.1280 C.3   101  GLY101      0.1811
    130  C         27.8080   -8.3080  -17.1520 C.2   101  GLY101      0.2280
    131  O         27.7830   -8.6950  -15.9810 O.2   101  GLY101     -0.2866
    132  N         26.1630   -6.3000  -14.2440 N.3   104  ILE104     -0.1231
    133  CA        25.4720   -7.1860  -13.2930 C.3   104  ILE104      0.1692
    134  C         26.4830   -7.9070  -12.4030 C.2   104  ILE104      0.2592
    135  O         26.3300   -7.9640  -11.1790 O.2   104  ILE104     -0.2718
    136  CB        24.5650   -8.1760  -14.0300 C.3   104  ILE104      0.0266
    137  CG1       23.4440   -7.4520  -14.7710 C.3   104  ILE104      0.0019
    138  CG2       23.9640   -9.1770  -13.0500 C.3   104  ILE104      0.0020
    139  CD1       22.6970   -8.3080  -15.7590 C.3   104  ILE104      0.0001
    140  N         27.5230   -8.4370  -13.0230 N.am  105  PHE105     -0.1976
    141  CA        28.5960   -9.0860  -12.2610 C.3   105  PHE105      0.1639
    142  C         29.1960   -8.1450  -11.2120 C.2   105  PHE105      0.2290
    143  O         29.4100   -8.5280  -10.0630 O.2   105  PHE105     -0.2864
    144  CB        29.6650   -9.5910  -13.2340 C.3   105  PHE105      0.0560
    145  CG        30.9620   -9.9770  -12.5910 C.ar  105  PHE105     -0.0200
    146  CD1       31.0830  -11.1670  -11.8830 C.ar  105  PHE105     -0.0042
    147  CD2       32.0870   -9.1560  -12.7090 C.ar  105  PHE105     -0.0042
    148  CE1       32.2900  -11.5230  -11.2960 C.ar  105  PHE105     -0.0003
    149  CE2       33.2960   -9.5180  -12.1460 C.ar  105  PHE105     -0.0003
    150  CZ        33.3890  -10.6950  -11.4300 C.ar  105  PHE105     -0.0000
    151  N         26.9240   -7.8820   -8.2460 N.3   108  PHE108     -0.1241
    152  CA        27.0060   -9.0510   -7.3600 C.3   108  PHE108      0.1605
    153  C         28.2990   -9.0480   -6.5410 C.2   108  PHE108      0.2264
    154  O         28.2960   -9.4280   -5.3770 O.2   108  PHE108     -0.2867
    155  CB        26.8580  -10.3510   -8.1400 C.3   108  PHE108      0.0534
    156  CG        25.4300  -10.7590   -8.3510 C.ar  108  PHE108     -0.0203
    157  CD1       24.7210  -11.4680   -7.3760 C.ar  108  PHE108     -0.0042
    158  CD2       24.7940  -10.4710   -9.5350 C.ar  108  PHE108     -0.0042
    159  CE1       23.4180  -11.8490   -7.5850 C.ar  108  PHE108     -0.0003
    160  CE2       23.4850  -10.8690   -9.7480 C.ar  108  PHE108     -0.0003
    161  CZ        22.8050  -11.5450   -8.7710 C.ar  108  PHE108     -0.0000
@<TRIPOS>BOND
     1    45    44    2
     2    44    43    1
     3    43    42    1
     4    43    46    1
     5    52    53    1
     6    48    50   ar
     7    48    47   ar
     8    92    91    2
     9    50    51   ar
    10    46    47    1
    11   128   129    1
    12    53    54    1
    13    53    56    1
    14    91    90    1
    15    47    49   ar
    16    96    94    1
    17    94    93    1
    18    94    95    1
    19   129   130    1
    20    54    55    2
    21    54    63   am
    22    56    57    1
    23    51    49   ar
    24    65    66    2
    25    65    64    1
    26    74    75    1
    27    63    64    1
    28    93    90    1
    29    90    89    1
    30    58    57   ar
    31    58    60   ar
    32   130   131    2
    33    38    37    2
    34    57    59   ar
    35    64    67    1
    36    29    28    2
    37    89    84   am
    38    75    76    1
    39    75    78    1
    40    67    68    1
    41    60    62   ar
    42    37    36    1
    43    76    77    2
    44   139   137    1
    45    28    27    1
    46    28    35   am
    47    59    61   ar
    48    80    78    1
    49    82    83    1
    50    27    30    1
    51    27    26    1
    52    97    98    1
    53    84    85    2
    54    84    83    1
    55    70    68   ar
    56    70    72   ar
    57    78    79    1
    58    68    69   ar
    59    62    61   ar
    60    36    35    1
    61    36    39    1
    62    79    81    1
    63   137   136    1
    64    31    30    1
    65    31    32    1
    66    83    86    1
    67    72    73   ar
    68    98    99    1
    69    98   101    1
    70    87    86    1
    71   132   133    1
    72    99   100    2
    73    69    71   ar
    74    40    39    1
    75    33    32    1
    76    33    34    1
    77   136   133    1
    78   136   138    1
    79    39    41    1
    80    86    88    1
    81   103   101    1
    82    73    71   ar
    83   133   134    1
    84   144   145    1
    85   144   141    1
    86   101   102    1
    87   140   134   am
    88   140   141    1
    89   147   145   ar
    90   147   149   ar
    91   145   146   ar
    92   134   135    2
    93   141   142    1
    94   149   150   ar
    95    20    19    2
    96   146   148   ar
    97   118   119    1
    98   118   117    1
    99   150   148   ar
   100   142   143    2
   101    19    18    1
   102   117   116    1
   103   110   108    1
   104    18    17    1
   105    18    21    1
   106   104   105    1
   107   160   158   ar
   108   160   161   ar
   109   158   156   ar
   110   116   115    1
   111    21    22    1
   112   108   105    1
   113   108   109    1
   114   105   106    1
   115    15    14    1
   116    22    23    1
   117   161   159   ar
   118   156   155    1
   119   156   157   ar
   120   115   112    1
   121   151   152    1
   122   155   152    1
   123   106   107    2
   124    25    23   am
   125   159   157   ar
   126    23    24    2
   127    14    16    1
   128    14    13    1
   129   152   153    1
   130    13    10    1
   131   111   112    1
   132   112   113    1
   133   153   154    2
   134   126   125    1
   135   125   127    1
   136   125   124    1
   137     7     6    1
   138   113   120   am
   139   113   114    2
   140    10    11    1
   141    10     9    1
   142    11    12    2
   143   120   121    1
   144   124   121    1
   145     6     5    1
   146     6     8    1
   147   121   122    1
   148     5     2    1
   149     4     3    2
   150   122   123    2
   151     2     3    1
   152     2     1    1
