@<TRIPOS>MOLECULE
tmp/5dicA01.pdb
 186 177 0 0 0
SMALL
GASTEIGER

@<TRIPOS>ATOM
      1  N         33.8240  -17.3080    1.0760 N.3     1  HIS1       -0.1226
      2  CA        33.6460  -17.3980   -0.4070 C.3     1  HIS1        0.1752
      3  C         33.5080  -18.8500   -0.8600 C.2     1  HIS1        0.2595
      4  O         33.7410  -19.7900   -0.0970 O.2     1  HIS1       -0.2718
      5  CB        34.8210  -16.7080   -1.1240 C.3     1  HIS1        0.0759
      6  CG        34.5480  -16.3280   -2.5540 C.ar    1  HIS1        0.0818
      7  ND1       35.5430  -15.9110   -3.4130 N.ar    1  HIS1       -0.2268
      8  CD2       33.4030  -16.3110   -3.2790 C.ar    1  HIS1        0.1154
      9  CE1       35.0200  -15.6450   -4.5970 C.ar    1  HIS1        0.1986
     10  NE2       33.7220  -15.8850   -4.5430 N.ar    1  HIS1       -0.2212
     11  N         33.0630  -19.0140   -2.0940 N.am    2  LEU2       -0.1980
     12  CA        32.9420  -20.3030   -2.7270 C.3     2  LEU2        0.1596
     13  C         34.2250  -21.1040   -2.6690 C.2     2  LEU2        0.2287
     14  O         35.3000  -20.6530   -3.0730 O.2     2  LEU2       -0.2864
     15  CB        32.5400  -20.1400   -4.1920 C.3     2  LEU2        0.0297
     16  CG        31.1300  -19.6410   -4.4580 C.3     2  LEU2        0.0022
     17  CD1       30.9260  -19.4860   -5.9540 C.3     2  LEU2        0.0001
     18  CD2       30.0770  -20.5680   -3.8550 C.3     2  LEU2        0.0001
     19  N         35.0420  -24.1950   -4.5830 N.3     4  LEU4       -0.1245
     20  CA        34.5070  -24.9920   -5.6780 C.3     4  LEU4        0.1561
     21  C         34.8880  -26.4390   -5.4770 C.2     4  LEU4        0.2260
     22  O         36.0000  -26.7690   -5.0340 O.2     4  LEU4       -0.2867
     23  CB        35.0500  -24.5520   -7.0370 C.3     4  LEU4        0.0270
     24  CG        34.7850  -23.1130   -7.4560 C.3     4  LEU4        0.0019
     25  CD1       35.1730  -22.9370   -8.9140 C.3     4  LEU4        0.0001
     26  CD2       33.3330  -22.7150   -7.2420 C.3     4  LEU4        0.0001
     27  N         35.1700  -27.1410  -10.6070 N.3     9  LYS9       -0.1245
     28  CA        36.4090  -26.6400  -11.2240 C.3     9  LYS9        0.1561
     29  C         36.5240  -27.1220  -12.6680 C.2     9  LYS9        0.2260
     30  O         36.9590  -26.3600  -13.5430 O.2     9  LYS9       -0.2867
     31  CB        37.6490  -27.0840  -10.4550 C.3     9  LYS9        0.0271
     32  CG        37.7920  -26.4630   -9.0780 C.3     9  LYS9        0.0035
     33  CD        38.9670  -27.1040   -8.3400 C.3     9  LYS9        0.0206
     34  CE        39.0960  -26.6560   -6.9030 C.3     9  LYS9        0.1093
     35  NZ        40.2170  -27.3740   -6.2380 N.3     9  LYS9       -0.1314
     36  N         34.1960  -25.1250  -14.7990 N.3    12  VAL12      -0.1245
     37  CA        34.7130  -23.7940  -15.0240 C.3    12  VAL12       0.1561
     38  C         35.6680  -23.8170  -16.2290 C.2    12  VAL12       0.2260
     39  O         35.6000  -22.9550  -17.1130 O.2    12  VAL12      -0.2867
     40  CB        35.4440  -23.2240  -13.7900 C.3    12  VAL12       0.0252
     41  CG1       36.2250  -21.9730  -14.1230 C.3    12  VAL12       0.0019
     42  CG2       34.4460  -22.9160  -12.6850 C.3    12  VAL12       0.0019
     43  N         42.5980  -14.0850  -13.0580 N.3    36  LYS36      -0.1245
     44  CA        41.6690  -13.2230  -12.3180 C.3    36  LYS36       0.1561
     45  C         42.1180  -11.7730  -12.3290 C.2    36  LYS36       0.2260
     46  O         41.8670  -11.0290  -11.3870 O.2    36  LYS36      -0.2867
     47  CB        41.4250  -13.7620  -10.8950 C.3    36  LYS36       0.0271
     48  CG        40.8360  -15.1620  -10.8820 C.3    36  LYS36       0.0035
     49  CD        40.6490  -15.6700   -9.4650 C.3    36  LYS36       0.0206
     50  CE        39.8220  -16.9430   -9.4440 C.3    36  LYS36       0.1093
     51  NZ        39.6780  -17.4650   -8.0590 N.3    36  LYS36      -0.1314
     52  N         40.9620   -8.9200  -13.5110 N.3    38  TYR38      -0.1241
     53  CA        39.6960   -8.4060  -14.0150 C.3    38  TYR38       0.1605
     54  C         39.5630   -6.8970  -14.0380 C.2    38  TYR38       0.2264
     55  O         38.5660   -6.3960  -14.5320 O.2    38  TYR38      -0.2867
     56  CB        38.5410   -8.9080  -13.1470 C.3    38  TYR38       0.0534
     57  CG        38.3760  -10.3880  -13.0370 C.ar   38  TYR38      -0.0201
     58  CD1       38.7280  -11.2410  -14.0770 C.ar   38  TYR38      -0.0009
     59  CD2       37.7960  -10.9420  -11.8970 C.ar   38  TYR38      -0.0009
     60  CE1       38.5350  -12.6000  -13.9680 C.ar   38  TYR38       0.0417
     61  CE2       37.6200  -12.3030  -11.7740 C.ar   38  TYR38       0.0417
     62  CZ        37.9830  -13.1250  -12.8120 C.ar   38  TYR38       0.1957
     63  OH        37.7960  -14.4740  -12.6750 O.3    38  TYR38      -0.2866
     64  N         30.3810  -16.4650  -19.9610 N.3    52  PHE52      -0.1227
     65  CA        30.5660  -17.4330  -18.9030 C.3    52  PHE52       0.1736
     66  C         29.2710  -17.5700  -18.1170 C.2    52  PHE52       0.2595
     67  O         28.8330  -18.6830  -17.8120 O.2    52  PHE52      -0.2718
     68  CB        31.7520  -17.0240  -18.0450 C.3    52  PHE52       0.0547
     69  CG        32.0760  -18.0190  -16.9800 C.ar   52  PHE52      -0.0202
     70  CD1       32.9110  -19.0920  -17.2550 C.ar   52  PHE52      -0.0042
     71  CD2       31.5360  -17.9090  -15.7220 C.ar   52  PHE52      -0.0042
     72  CE1       33.1920  -20.0310  -16.2900 C.ar   52  PHE52      -0.0003
     73  CE2       31.8050  -18.8590  -14.7420 C.ar   52  PHE52      -0.0003
     74  CZ        32.6290  -19.9140  -15.0540 C.ar   52  PHE52      -0.0000
     75  N         28.6980  -16.4430  -17.7220 N.am   53  PHE53      -0.1976
     76  CA        27.4510  -16.4800  -16.9710 C.3    53  PHE53       0.1639
     77  C         26.2810  -17.0340  -17.7320 C.2    53  PHE53       0.2290
     78  O         25.3940  -17.6560  -17.1350 O.2    53  PHE53      -0.2864
     79  CB        27.1980  -15.1000  -16.3350 C.3    53  PHE53       0.0560
     80  CG        28.2210  -14.7930  -15.2560 C.ar   53  PHE53      -0.0200
     81  CD1       28.3400  -15.6080  -14.1390 C.ar   53  PHE53      -0.0042
     82  CD2       29.0960  -13.7430  -15.4000 C.ar   53  PHE53      -0.0042
     83  CE1       29.3210  -15.3760  -13.1970 C.ar   53  PHE53      -0.0003
     84  CE2       30.0760  -13.4800  -14.4640 C.ar   53  PHE53      -0.0003
     85  CZ        30.1920  -14.3120  -13.3620 C.ar   53  PHE53      -0.0000
     86  N         26.9210  -21.0260  -17.7250 N.3    56  ILE56      -0.1245
     87  CA        26.5920  -21.6940  -16.4660 C.3    56  ILE56       0.1561
     88  C         25.1110  -21.5500  -16.1120 C.2    56  ILE56       0.2260
     89  O         24.7070  -22.0420  -15.0610 O.2    56  ILE56      -0.2867
     90  CB        27.5000  -21.2630  -15.3020 C.3    56  ILE56       0.0252
     91  CG1       27.2580  -19.8200  -14.8670 C.3    56  ILE56       0.0019
     92  CG2       28.9570  -21.4720  -15.6600 C.3    56  ILE56       0.0019
     93  CD1       27.8990  -19.4730  -13.5400 C.3    56  ILE56       0.0001
     94  N         24.5510  -20.3170   -5.3280 N.3    73  LEU73      -0.1245
     95  CA        25.1130  -19.4450   -4.3240 C.3    73  LEU73       0.1561
     96  C         24.4950  -19.5750   -2.9430 C.2    73  LEU73       0.2260
     97  O         25.1620  -19.2570   -1.9490 O.2    73  LEU73      -0.2867
     98  CB        25.0150  -17.9800   -4.7320 C.3    73  LEU73       0.0270
     99  CG        25.7300  -17.5450   -5.9950 C.3    73  LEU73       0.0019
    100  CD1       25.5560  -16.0490   -6.1550 C.3    73  LEU73       0.0001
    101  CD2       27.2010  -17.9050   -5.9410 C.3    73  LEU73       0.0001
    102  N         26.4080  -18.7790    0.6760 N.3    77  PHE77      -0.1241
    103  CA        26.2290  -17.3620    1.0270 C.3    77  PHE77       0.1605
    104  C         24.9650  -17.0820    1.8440 C.2    77  PHE77       0.2264
    105  O         24.8510  -16.0120    2.4320 O.2    77  PHE77      -0.2867
    106  CB        26.2620  -16.4910   -0.2290 C.3    77  PHE77       0.0534
    107  CG        27.6180  -16.4030   -0.8560 C.ar   77  PHE77      -0.0203
    108  CD1       28.5640  -15.5590   -0.3060 C.ar   77  PHE77      -0.0042
    109  CD2       27.9500  -17.1120   -1.9810 C.ar   77  PHE77      -0.0042
    110  CE1       29.8100  -15.4190   -0.8780 C.ar   77  PHE77      -0.0003
    111  CE2       29.1890  -16.9970   -2.5520 C.ar   77  PHE77      -0.0003
    112  CZ        30.1190  -16.1570   -1.9920 C.ar   77  PHE77      -0.0000
    113  N         20.4150  -13.7750    1.8290 N.3    81  LYS81      -0.1231
    114  CA        21.4590  -12.8840    1.3250 C.3    81  LYS81       0.1693
    115  C         21.5560  -12.8960   -0.2090 C.2    81  LYS81       0.2591
    116  O         21.7140  -11.8500   -0.8520 O.2    81  LYS81      -0.2718
    117  CB        22.8050  -13.2080    1.9760 C.3    81  LYS81       0.0285
    118  CG        22.7780  -12.8780    3.4730 C.3    81  LYS81       0.0035
    119  CD        23.8530  -13.5370    4.3170 C.3    81  LYS81       0.0206
    120  CE        23.6970  -13.1630    5.7970 C.3    81  LYS81       0.1093
    121  NZ        24.4190  -14.0550    6.7490 N.3    81  LYS81      -0.1314
    122  N         21.4040  -14.0710   -0.7980 N.am   82  VAL82      -0.1980
    123  CA        21.4420  -14.1780   -2.2390 C.3    82  VAL82       0.1595
    124  C         20.1740  -13.5540   -2.8380 C.2    82  VAL82       0.2287
    125  O         20.2440  -12.8370   -3.8390 O.2    82  VAL82      -0.2864
    126  CB        21.6280  -15.6300   -2.7000 C.3    82  VAL82       0.0276
    127  CG1       21.5670  -15.7150   -4.2190 C.3    82  VAL82       0.0022
    128  CG2       22.9840  -16.1330   -2.2310 C.3    82  VAL82       0.0022
    129  N         20.7010   -9.8750   -2.8960 N.3    85  ALA85      -0.1245
    130  CA        21.6040   -9.4810   -3.9890 C.3    85  ALA85       0.1562
    131  C         20.8910   -9.5330   -5.3380 C.2    85  ALA85       0.2260
    132  O         21.0680   -8.6480   -6.1820 O.2    85  ALA85      -0.2867
    133  CB        22.7980  -10.4030   -4.0230 C.3    85  ALA85       0.0290
    134  N         27.5230   -8.4370  -13.0230 N.3   105  PHE105     -0.1241
    135  CA        28.5960   -9.0860  -12.2610 C.3   105  PHE105      0.1605
    136  C         29.1960   -8.1450  -11.2120 C.2   105  PHE105      0.2264
    137  O         29.4100   -8.5280  -10.0630 O.2   105  PHE105     -0.2867
    138  CB        29.6650   -9.5910  -13.2340 C.3   105  PHE105      0.0534
    139  CG        30.9620   -9.9770  -12.5910 C.ar  105  PHE105     -0.0203
    140  CD1       31.0830  -11.1670  -11.8830 C.ar  105  PHE105     -0.0042
    141  CD2       32.0870   -9.1560  -12.7090 C.ar  105  PHE105     -0.0042
    142  CE1       32.2900  -11.5230  -11.2960 C.ar  105  PHE105     -0.0003
    143  CE2       33.2960   -9.5180  -12.1460 C.ar  105  PHE105     -0.0003
    144  CZ        33.3890  -10.6950  -11.4300 C.ar  105  PHE105     -0.0000
    145  N         26.9240   -7.8820   -8.2460 N.3   108  PHE108     -0.1227
    146  CA        27.0060   -9.0510   -7.3600 C.3   108  PHE108      0.1736
    147  C         28.2990   -9.0480   -6.5410 C.2   108  PHE108      0.2595
    148  O         28.2960   -9.4280   -5.3770 O.2   108  PHE108     -0.2718
    149  CB        26.8580  -10.3510   -8.1400 C.3   108  PHE108      0.0547
    150  CG        25.4300  -10.7590   -8.3510 C.ar  108  PHE108     -0.0202
    151  CD1       24.7210  -11.4680   -7.3760 C.ar  108  PHE108     -0.0042
    152  CD2       24.7940  -10.4710   -9.5350 C.ar  108  PHE108     -0.0042
    153  CE1       23.4180  -11.8490   -7.5850 C.ar  108  PHE108     -0.0003
    154  CE2       23.4850  -10.8690   -9.7480 C.ar  108  PHE108     -0.0003
    155  CZ        22.8050  -11.5450   -8.7710 C.ar  108  PHE108     -0.0000
    156  N         29.3990   -8.6240   -7.1550 N.am  109  GLU109     -0.1979
    157  CA        30.6580   -8.5450   -6.4310 C.3   109  GLU109      0.1602
    158  C         30.5640   -7.5200   -5.3100 C.2   109  GLU109      0.2287
    159  O         31.1210   -7.7190   -4.2310 O.2   109  GLU109     -0.2864
    160  CB        31.8300   -8.2440   -7.3650 C.3   109  GLU109      0.0415
    161  CG        32.2850   -9.4260   -8.2110 C.3   109  GLU109      0.1163
    162  CD        32.8040  -10.6120   -7.3940 C.2   109  GLU109      0.3649
    163  OE1       33.2370  -10.4210   -6.2400 O.co2 109  GLU109     -0.2457
    164  OE2       32.7910  -11.7470   -7.9000 O.co2 109  GLU109     -0.2457
    165  N         27.7930   -6.7260   -3.7310 N.3   111  ALA111     -0.1231
    166  CA        26.9480   -7.3860   -2.7300 C.3   111  ALA111      0.1694
    167  C         27.7740   -8.3570   -1.8820 C.2   111  ALA111      0.2591
    168  O         27.6330   -8.4010   -0.6610 O.2   111  ALA111     -0.2718
    169  CB        25.7790   -8.0980   -3.3970 C.3   111  ALA111      0.0304
    170  N         28.6670   -9.0960   -2.5270 N.am  112  LYS112     -0.1980
    171  CA        29.5400  -10.0060   -1.8060 C.3   112  LYS112      0.1596
    172  C         30.4400   -9.2420   -0.8440 C.2   112  LYS112      0.2287
    173  O         30.5930   -9.6330    0.3080 O.2   112  LYS112     -0.2864
    174  CB        30.3870  -10.7850   -2.7980 C.3   112  LYS112      0.0298
    175  CG        31.1730  -11.9080   -2.1600 C.3   112  LYS112      0.0038
    176  CD        32.0830  -12.5860   -3.1570 C.3   112  LYS112      0.0206
    177  CE        33.3210  -11.7350   -3.3620 C.3   112  LYS112      0.1093
    178  NZ        34.4490  -12.5130   -3.9230 N.3   112  LYS112     -0.1314
    179  N         28.8530   -8.1800    2.4790 N.3   115  LEU115     -0.1245
    180  CA        28.7120   -9.1870    3.5090 C.3   115  LEU115      0.1561
    181  C         29.6900   -8.9730    4.6490 C.2   115  LEU115      0.2260
    182  O         29.4050   -9.4460    5.7400 O.2   115  LEU115     -0.2867
    183  CB        28.8840  -10.5930    2.8990 C.3   115  LEU115      0.0270
    184  CG        27.8810  -11.0030    1.8220 C.3   115  LEU115      0.0019
    185  CD1       28.3000  -12.3280    1.2000 C.3   115  LEU115      0.0001
    186  CD2       26.4740  -11.0760    2.3950 C.3   115  LEU115      0.0001
@<TRIPOS>BOND
     1    64    65    1
     2    65    66    1
     3    65    68    1
     4    66    67    2
     5    66    75   am
     6    68    69    1
     7    77    78    2
     8    77    76    1
     9    86    87    1
    10    75    76    1
    11    70    69   ar
    12    70    72   ar
    13    39    38    2
    14    69    71   ar
    15    76    79    1
    16    87    88    1
    17    87    90    1
    18    79    80    1
    19    72    74   ar
    20    38    37    1
    21    88    89    2
    22    71    73   ar
    23    92    90    1
    24    82    80   ar
    25    82    84   ar
    26    90    91    1
    27    80    81   ar
    28    74    73   ar
    29    37    36    1
    30    37    40    1
    31    91    93    1
    32    55    54    2
    33    84    85   ar
    34    81    83   ar
    35    41    40    1
    36    58    60   ar
    37    58    57   ar
    38    54    53    1
    39    53    52    1
    40    53    56    1
    41    60    62   ar
    42    40    42    1
    43    30    29    2
    44    85    83   ar
    45   138   139    1
    46   138   135    1
    47    56    57    1
    48    43    44    1
    49    57    59   ar
    50   134   135    1
    51    62    63    1
    52    62    61   ar
    53   141   139   ar
    54   141   143   ar
    55    29    28    1
    56   139   140   ar
    57    45    44    1
    58    45    46    2
    59    44    47    1
    60   135   136    1
    61   143   144   ar
    62    59    61   ar
    63   140   142   ar
    64   144   142   ar
    65    28    27    1
    66    28    31    1
    67   136   137    2
    68    47    48    1
    69    48    49    1
    70    31    32    1
    71   154   152   ar
    72   154   155   ar
    73   152   150   ar
    74    49    50    1
    75    50    51    1
    76    32    33    1
    77    25    24    1
    78   155   153   ar
    79   150   149    1
    80   150   151   ar
    81    33    34    1
    82   145   146    1
    83   161   162    1
    84   161   160    1
    85   149   146    1
    86   164   162   ar
    87   153   151   ar
    88    24    26    1
    89    24    23    1
    90   162   163   ar
    91   160   157    1
    92   146   147    1
    93   156   147   am
    94   156   157    1
    95    23    20    1
    96    34    35    1
    97   147   148    2
    98   157   158    1
    99   132   131    2
   100   100    99    1
   101    99   101    1
   102    99    98    1
   103    17    16    1
   104    20    21    1
   105    20    19    1
   106    21    22    2
   107   131   130    1
   108    94    95    1
   109   158   159    2
   110    98    95    1
   111     9    10   ar
   112     9     7   ar
   113    10     8   ar
   114    16    15    1
   115    16    18    1
   116    95    96    1
   117   127   126    1
   118    15    12    1
   119   133   130    1
   120   130   129    1
   121   178   177    1
   122   125   124    2
   123   165   166    1
   124     7     6   ar
   125   169   166    1
   126   177   176    1
   127     8     6   ar
   128   176   175    1
   129    14    13    2
   130    96    97    2
   131   124   123    1
   132   174   175    1
   133   174   171    1
   134   166   167    1
   135    12    13    1
   136    12    11    1
   137   126   123    1
   138   126   128    1
   139     6     5    1
   140   111   112   ar
   141   111   109   ar
   142   170   167   am
   143   170   171    1
   144   123   122    1
   145    11     3   am
   146   112   110   ar
   147   109   107   ar
   148   167   168    2
   149   171   172    1
   150     5     2    1
   151   110   108   ar
   152     3     2    1
   153     3     4    2
   154   107   108   ar
   155   107   106    1
   156   116   115    2
   157   172   173    2
   158   122   115   am
   159     2     1    1
   160   106   103    1
   161   115   114    1
   162   102   103    1
   163   103   104    1
   164   185   184    1
   165   114   113    1
   166   114   117    1
   167   184   186    1
   168   184   183    1
   169   104   105    2
   170   117   118    1
   171   179   180    1
   172   183   180    1
   173   118   119    1
   174   180   181    1
   175   119   120    1
   176   181   182    2
   177   120   121    1
