@<TRIPOS>MOLECULE
tmp/5dieA00.pdb
 170 161 0 0 0
SMALL
GASTEIGER

@<TRIPOS>ATOM
      1  N        -13.4290   -6.7390   21.5720 N.3    39  MET39      -0.1245
      2  CA       -13.1120   -5.4020   21.0850 C.3    39  MET39       0.1570
      3  C        -13.4330   -4.3600   22.1580 C.2    39  MET39       0.2261
      4  O        -12.6830   -3.4040   22.3500 O.2    39  MET39      -0.2867
      5  CB       -13.8750   -5.0980   19.7940 C.3    39  MET39       0.0387
      6  CG       -13.2990   -5.7750   18.5520 C.3    39  MET39       0.0595
      7  SD       -11.6320   -5.2140   18.1520 S.3    39  MET39      -0.1393
      8  CE       -11.9120   -3.4470   18.0580 C.3    39  MET39       0.0692
      9  N        -10.5360   -4.7430   24.8170 N.3    42  LEU42      -0.1231
     10  CA        -9.2320   -4.2550   24.3830 C.3    42  LEU42       0.1693
     11  C         -9.1870   -2.7350   24.2600 C.2    42  LEU42       0.2592
     12  O         -8.1920   -2.1070   24.6220 O.2    42  LEU42      -0.2718
     13  CB        -8.8460   -4.8970   23.0490 C.3    42  LEU42       0.0284
     14  CG        -8.6970   -6.4190   23.0820 C.3    42  LEU42       0.0019
     15  CD1       -8.4460   -6.9690   21.6840 C.3    42  LEU42       0.0001
     16  CD2       -7.5870   -6.8330   24.0360 C.3    42  LEU42       0.0001
     17  N        -10.2660   -2.1470   23.7530 N.am   43  THR43      -0.1953
     18  CA       -10.3260   -0.7010   23.5800 C.3    43  THR43       0.1897
     19  C        -10.5520    0.0180   24.9110 C.2    43  THR43       0.2313
     20  O        -10.0380    1.1180   25.1180 O.2    43  THR43      -0.2863
     21  CB       -11.4270   -0.2950   22.5810 C.3    43  THR43       0.1794
     22  OG1      -12.6760   -0.8710   22.9750 O.3    43  THR43      -0.2208
     23  CG2      -11.0720   -0.7820   21.1810 C.3    43  THR43       0.0378
     24  N         -9.3270   -1.0130   27.7260 N.3    45  LEU45      -0.1231
     25  CA        -7.9700   -1.0300   28.2660 C.3    45  LEU45       0.1693
     26  C         -7.1000    0.0680   27.6550 C.2    45  LEU45       0.2591
     27  O         -6.4740    0.8430   28.3790 O.2    45  LEU45      -0.2718
     28  CB        -7.3210   -2.3970   28.0350 C.3    45  LEU45       0.0284
     29  CG        -5.9050   -2.5880   28.5770 C.3    45  LEU45       0.0019
     30  CD1       -5.8480   -2.2520   30.0570 C.3    45  LEU45       0.0001
     31  CD2       -5.4330   -4.0130   28.3380 C.3    45  LEU45       0.0001
     32  N         -7.0740    0.1300   26.3250 N.am   46  ALA46      -0.1980
     33  CA        -6.2690    1.1150   25.6050 C.3    46  ALA46       0.1597
     34  C         -6.6080    2.5350   26.0330 C.2    46  ALA46       0.2287
     35  O         -5.7200    3.3750   26.1770 O.2    46  ALA46      -0.2864
     36  CB        -6.4560    0.9640   24.0960 C.3    46  ALA46       0.0319
     37  N         -5.0850    3.1990   29.3870 N.3    49  GLU49      -0.1245
     38  CA        -3.6380    3.2970   29.2160 C.3    49  GLU49       0.1567
     39  C         -3.2340    4.6510   28.6190 C.2    49  GLU49       0.2260
     40  O         -2.1930    5.2050   28.9740 O.2    49  GLU49      -0.2867
     41  CB        -3.1190    2.1470   28.3440 C.3    49  GLU49       0.0388
     42  CG        -3.0730    0.8000   29.0610 C.3    49  GLU49       0.1160
     43  CD        -2.5820   -0.3350   28.1770 C.2    49  GLU49       0.3649
     44  OE1       -3.1480   -0.5320   27.0810 O.co2  49  GLU49      -0.2457
     45  OE2       -1.6300   -1.0380   28.5790 O.co2  49  GLU49      -0.2457
     46  N          0.7680    6.9900   19.3650 N.3    79  TRP79      -0.1227
     47  CA         0.0950    6.3840   20.5220 C.3    79  TRP79       0.1737
     48  C         -0.0650    4.8680   20.4240 C.2    79  TRP79       0.2595
     49  O          0.2050    4.1540   21.3920 O.2    79  TRP79      -0.2718
     50  CB        -1.2760    7.0310   20.7600 C.3    79  TRP79       0.0564
     51  CG        -2.3350    6.7530   19.7250 C.ar   79  TRP79       0.0003
     52  CD1       -2.5940    7.4830   18.6040 C.ar   79  TRP79       0.0946
     53  CD2       -3.3000    5.6890   19.7380 C.ar   79  TRP79       0.0152
     54  NE1       -3.6460    6.9360   17.9110 N.ar   79  TRP79      -0.2442
     55  CE2       -4.0960    5.8330   18.5850 C.ar   79  TRP79       0.0810
     56  CE3       -3.5560    4.6230   20.6040 C.ar   79  TRP79       0.0012
     57  CZ2       -5.1330    4.9540   18.2770 C.ar   79  TRP79       0.0191
     58  CZ3       -4.5910    3.7520   20.2980 C.ar   79  TRP79       0.0001
     59  CH2       -5.3650    3.9230   19.1440 C.ar   79  TRP79       0.0015
     60  N         -0.4840    4.3690   19.2660 N.am   80  LEU80      -0.1980
     61  CA        -0.6780    2.9330   19.1190 C.3    80  LEU80       0.1596
     62  C          0.6660    2.2010   19.1050 C.2    80  LEU80       0.2287
     63  O          0.7780    1.0990   19.6440 O.2    80  LEU80      -0.2864
     64  CB        -1.4820    2.6180   17.8540 C.3    80  LEU80       0.0297
     65  CG        -1.9330    1.1620   17.6900 C.3    80  LEU80       0.0022
     66  CD1       -2.5860    0.6440   18.9690 C.3    80  LEU80       0.0001
     67  CD2       -2.8890    1.0190   16.5070 C.3    80  LEU80       0.0001
     68  N          1.7340    1.9300   22.7450 N.3    83  LEU83      -0.1231
     69  CA         0.9680    0.8670   23.3840 C.3    83  LEU83       0.1693
     70  C          1.5010   -0.5060   22.9920 C.2    83  LEU83       0.2591
     71  O          1.6900   -1.3770   23.8420 O.2    83  LEU83      -0.2718
     72  CB        -0.5150    0.9660   23.0170 C.3    83  LEU83       0.0284
     73  CG        -1.3230    2.0920   23.6590 C.3    83  LEU83       0.0019
     74  CD1       -2.7710    2.0160   23.2120 C.3    83  LEU83       0.0001
     75  CD2       -1.2220    2.0260   25.1770 C.3    83  LEU83       0.0001
     76  N          1.7490   -0.6880   21.6990 N.am   84  MET84      -0.1979
     77  CA         2.1590   -1.9860   21.1790 C.3    84  MET84       0.1605
     78  C          3.5540   -2.4030   21.6340 C.2    84  MET84       0.2287
     79  O          3.7860   -3.5820   21.8990 O.2    84  MET84      -0.2864
     80  CB         2.0880   -1.9890   19.6500 C.3    84  MET84       0.0413
     81  CG         0.6800   -2.1860   19.1160 C.3    84  MET84       0.0598
     82  SD         0.5780   -2.0700   17.3220 S.3    84  MET84      -0.1393
     83  CE        -1.1350   -2.5300   17.0610 C.3    84  MET84       0.0692
     84  N          3.0880   -3.5260   25.1270 N.3    87  LEU87      -0.1245
     85  CA         2.4500   -4.8390   25.1250 C.3    87  LEU87       0.1561
     86  C          3.4440   -5.9470   24.7980 C.2    87  LEU87       0.2260
     87  O          3.5260   -6.9620   25.4920 O.2    87  LEU87      -0.2867
     88  CB         1.3010   -4.8640   24.1190 C.3    87  LEU87       0.0270
     89  CG         0.6680   -6.2300   23.8550 C.3    87  LEU87       0.0019
     90  CD1       -0.0400   -6.7290   25.0900 C.3    87  LEU87       0.0001
     91  CD2       -0.2860   -6.1630   22.6730 C.3    87  LEU87       0.0001
     92  N          5.9640   -6.5190   27.7500 N.3    90  ARG90      -0.1245
     93  CA         5.4960   -7.2480   28.9240 C.3    90  ARG90       0.1563
     94  C          5.0180   -8.6520   28.5570 C.2    90  ARG90       0.2260
     95  O          4.7540   -9.4710   29.4350 O.2    90  ARG90      -0.2867
     96  CB         4.3910   -6.4680   29.6590 C.3    90  ARG90       0.0307
     97  CG         3.1310   -6.1360   28.8660 C.3    90  ARG90       0.0489
     98  CD         2.1440   -5.3560   29.7520 C.3    90  ARG90       0.2205
     99  NE         0.8780   -5.0650   29.0830 N.pl3  90  ARG90      -0.0865
    100  CZ         0.6370   -3.9600   28.3850 C.cat  90  ARG90       0.5346
    101  NH1        1.5750   -3.0310   28.2610 N.pl3  90  ARG90       0.1354
    102  NH2       -0.5440   -3.7830   27.8090 N.pl3  90  ARG90       0.1354
    103  N         -1.9520   -8.4350   27.5830 N.3   100  PHE100     -0.1241
    104  CA        -2.6050   -7.1320   27.5480 C.3   100  PHE100      0.1605
    105  C         -2.7410   -6.6000   28.9630 C.2   100  PHE100      0.2264
    106  O         -2.5560   -5.4100   29.2150 O.2   100  PHE100     -0.2867
    107  CB        -3.9740   -7.2260   26.8680 C.3   100  PHE100      0.0534
    108  CG        -3.8970   -7.3460   25.3730 C.ar  100  PHE100     -0.0203
    109  CD1       -3.8280   -6.2140   24.5780 C.ar  100  PHE100     -0.0042
    110  CD2       -3.8850   -8.5900   24.7620 C.ar  100  PHE100     -0.0042
    111  CE1       -3.7530   -6.3190   23.2020 C.ar  100  PHE100     -0.0003
    112  CE2       -3.8070   -8.7010   23.3840 C.ar  100  PHE100     -0.0003
    113  CZ        -3.7410   -7.5640   22.6040 C.ar  100  PHE100     -0.0000
    114  N         -8.2040   -9.8080   13.2520 N.3   117  MET117     -0.1245
    115  CA        -7.3310   -9.4350   14.3630 C.3   117  MET117      0.1570
    116  C         -6.2050  -10.4400   14.6060 C.2   117  MET117      0.2261
    117  O         -5.1610  -10.0770   15.1460 O.2   117  MET117     -0.2867
    118  CB        -8.1390   -9.2450   15.6520 C.3   117  MET117      0.0387
    119  CG        -7.3940   -8.4310   16.7110 C.3   117  MET117      0.0595
    120  SD        -8.3890   -7.9380   18.1370 S.3   117  MET117     -0.1393
    121  CE        -8.6420   -9.5230   18.9210 C.3   117  MET117      0.0692
    122  N         -2.9420   -9.4280   13.2660 N.3   120  ILE120     -0.1231
    123  CA        -2.2890   -8.4260   14.0970 C.3   120  ILE120      0.1692
    124  C         -1.6620   -9.0650   15.3370 C.2   120  ILE120      0.2592
    125  O         -0.5640   -8.6860   15.7460 O.2   120  ILE120     -0.2718
    126  CB        -3.2810   -7.3190   14.5010 C.3   120  ILE120      0.0266
    127  CG1       -3.7530   -6.5750   13.2490 C.3   120  ILE120      0.0019
    128  CG2       -2.6460   -6.3510   15.4890 C.3   120  ILE120      0.0020
    129  CD1       -4.7430   -5.4760   13.5170 C.3   120  ILE120      0.0001
    130  N         -2.3480  -10.0450   15.9210 N.am  121  PHE121     -0.1976
    131  CA        -1.7820  -10.7930   17.0420 C.3   121  PHE121      0.1639
    132  C         -0.5000  -11.5070   16.6190 C.2   121  PHE121      0.2290
    133  O          0.4840  -11.5180   17.3550 O.2   121  PHE121     -0.2864
    134  CB        -2.7830  -11.8130   17.5970 C.3   121  PHE121      0.0560
    135  CG        -3.7470  -11.2410   18.6020 C.ar  121  PHE121     -0.0200
    136  CD1       -3.9990   -9.8810   18.6510 C.ar  121  PHE121     -0.0042
    137  CD2       -4.3900  -12.0700   19.5090 C.ar  121  PHE121     -0.0042
    138  CE1       -4.8850   -9.3570   19.5790 C.ar  121  PHE121     -0.0003
    139  CE2       -5.2730  -11.5550   20.4390 C.ar  121  PHE121     -0.0003
    140  CZ        -5.5220  -10.1960   20.4740 C.ar  121  PHE121     -0.0000
    141  N          2.3960   -9.0610   16.4620 N.3   124  LEU124     -0.1245
    142  CA         2.7820   -8.6710   17.8140 C.3   124  LEU124      0.1561
    143  C          3.5370   -9.8000   18.5050 C.2   124  LEU124      0.2260
    144  O          4.5200   -9.5640   19.2080 O.2   124  LEU124     -0.2867
    145  CB         1.5530   -8.2730   18.6330 C.3   124  LEU124      0.0270
    146  CG         0.9090   -6.9360   18.2590 C.3   124  LEU124      0.0019
    147  CD1       -0.5280   -6.8710   18.7560 C.3   124  LEU124      0.0001
    148  CD2        1.7240   -5.7760   18.8160 C.3   124  LEU124      0.0001
    149  N         -2.9850   -1.9840   12.7000 N.3   209  GLY209     -0.1225
    150  CA        -3.8790   -1.9110   13.8380 C.3   209  GLY209      0.1811
    151  C         -4.8110   -0.7180   13.7480 C.2   209  GLY209      0.2280
    152  O         -5.9700   -0.7870   14.1670 O.2   209  GLY209     -0.2866
    153  N         -7.5420   -1.4630   11.1420 N.3   212  HIS212     -0.1226
    154  CA        -8.4210   -2.5000   11.6730 C.3   212  HIS212      0.1752
    155  C         -9.3690   -1.9180   12.7150 C.2   212  HIS212      0.2595
    156  O        -10.5530   -2.2500   12.7400 O.2   212  HIS212     -0.2718
    157  CB        -7.6260   -3.6510   12.2890 C.3   212  HIS212      0.0759
    158  CG        -8.4900   -4.7070   12.9070 C.ar  212  HIS212      0.0818
    159  ND1       -8.9810   -4.6100   14.1920 N.ar  212  HIS212     -0.2268
    160  CD2       -8.9670   -5.8730   12.4100 C.ar  212  HIS212      0.1154
    161  CE1       -9.7150   -5.6740   14.4630 C.ar  212  HIS212      0.1986
    162  NE2       -9.7230   -6.4560   13.3980 N.ar  212  HIS212     -0.2212
    163  N         -8.8400   -1.0590   13.5810 N.am  213  LEU213     -0.1980
    164  CA        -9.6580   -0.3910   14.5840 C.3   213  LEU213      0.1596
    165  C        -10.6950    0.5000   13.9110 C.2   213  LEU213      0.2287
    166  O        -11.8490    0.5540   14.3330 O.2   213  LEU213     -0.2864
    167  CB        -8.7880    0.4340   15.5340 C.3   213  LEU213      0.0297
    168  CG        -9.5240    1.1980   16.6370 C.3   213  LEU213      0.0022
    169  CD1      -10.4380    0.2650   17.4190 C.3   213  LEU213      0.0001
    170  CD2       -8.5270    1.8740   17.5660 C.3   213  LEU213      0.0001
@<TRIPOS>BOND
     1   153   154    1
     2   154   157    1
     3   154   155    1
     4   157   158    1
     5   160   158   ar
     6   160   162   ar
     7   149   150    1
     8   155   156    2
     9   155   163   am
    10   158   159   ar
    11   127   129    1
    12   127   126    1
    13   114   115    1
    14   122   123    1
    15   162   161   ar
    16   163   164    1
    17   151   150    1
    18   151   152    2
    19   165   166    2
    20   165   164    1
    21   123   126    1
    22   123   124    1
    23   159   161   ar
    24   115   116    1
    25   115   118    1
    26   126   128    1
    27   164   167    1
    28   116   117    2
    29   124   125    2
    30   124   130   am
    31   167   168    1
    32   118   119    1
    33   130   131    1
    34   141   142    1
    35    67    65    1
    36   132   131    1
    37   132   133    2
    38   168   169    1
    39   168   170    1
    40   119   120    1
    41   131   134    1
    42    83    82    1
    43    82    81    1
    44   134   135    1
    45    65    64    1
    46    65    66    1
    47   142   143    1
    48   142   145    1
    49    64    61    1
    50    54    55   ar
    51    54    52   ar
    52     8     7    1
    53   120   121    1
    54     7     6    1
    55   146   145    1
    56   146   147    1
    57   146   148    1
    58    57    55   ar
    59    57    59   ar
    60   143   144    2
    61     6     5    1
    62    55    53   ar
    63   135   136   ar
    64   135   137   ar
    65    52    51   ar
    66   136   138   ar
    67    62    61    1
    68    62    63    2
    69    81    80    1
    70    61    60    1
    71    59    58   ar
    72    60    48   am
    73    46    47    1
    74   137   139   ar
    75   138   140   ar
    76    80    77    1
    77    51    53   ar
    78    51    50    1
    79    53    56   ar
    80     5     2    1
    81    58    56   ar
    82    48    47    1
    83    48    49    2
    84   139   140   ar
    85    47    50    1
    86     2     1    1
    87     2     3    1
    88    77    78    1
    89    77    76    1
    90    23    21    1
    91    78    79    2
    92    15    14    1
    93    76    70   am
    94     3     4    2
    95    21    22    1
    96    21    18    1
    97   113   111   ar
    98   113   112   ar
    99    91    89    1
   100    68    69    1
   101    70    69    1
   102    70    71    2
   103    72    69    1
   104    72    73    1
   105    13    14    1
   106    13    10    1
   107    14    16    1
   108   111   109   ar
   109    74    73    1
   110   112   110   ar
   111    18    17    1
   112    18    19    1
   113    73    75    1
   114    17    11   am
   115    89    88    1
   116    89    90    1
   117    36    33    1
   118    88    85    1
   119    11    10    1
   120    11    12    2
   121    10     9    1
   122   109   108   ar
   123   110   108   ar
   124    86    85    1
   125    86    87    2
   126    19    20    2
   127    85    84    1
   128   108   107    1
   129    33    34    1
   130    33    32    1
   131    34    35    2
   132    32    26   am
   133   107   104    1
   134    44    43   ar
   135   104   103    1
   136   104   105    1
   137    26    25    1
   138    26    27    2
   139    24    25    1
   140    92    93    1
   141   102   100    1
   142    28    25    1
   143    28    29    1
   144    43    45   ar
   145    43    42    1
   146   101   100    1
   147    31    29    1
   148    41    42    1
   149    41    38    1
   150   100    99    2
   151    94    93    1
   152    94    95    2
   153    29    30    1
   154    39    40    2
   155    39    38    1
   156    97    96    1
   157    97    98    1
   158    93    96    1
   159   105   106    2
   160    99    98    1
   161    38    37    1
