@<TRIPOS>MOLECULE
tmp/5digA01.pdb
 170 161 0 0 0
SMALL
GASTEIGER

@<TRIPOS>ATOM
      1  N        -13.8790   -8.1510   21.8300 N.3    41  MET41      -0.1245
      2  CA       -13.5150   -6.8270   21.3360 C.3    41  MET41       0.1570
      3  C        -13.7570   -5.7700   22.4090 C.2    41  MET41       0.2261
      4  O        -12.9680   -4.8400   22.5630 O.2    41  MET41      -0.2867
      5  CB       -14.2970   -6.4840   20.0660 C.3    41  MET41       0.0387
      6  CG       -13.7100   -7.0840   18.7970 C.3    41  MET41       0.0595
      7  SD       -12.0290   -6.5110   18.4840 S.3    41  MET41      -0.1393
      8  CE       -12.2830   -4.7360   18.4700 C.3    41  MET41       0.0692
      9  N        -10.8980   -6.0700   25.1340 N.3    44  LEU44      -0.1231
     10  CA        -9.5990   -5.5530   24.7140 C.3    44  LEU44       0.1693
     11  C         -9.5910   -4.0330   24.5680 C.2    44  LEU44       0.2592
     12  O         -8.6070   -3.3760   24.9120 O.2    44  LEU44      -0.2718
     13  CB        -9.1760   -6.2060   23.3950 C.3    44  LEU44       0.0284
     14  CG        -8.9970   -7.7250   23.4480 C.3    44  LEU44       0.0019
     15  CD1       -8.7990   -8.3030   22.0550 C.3    44  LEU44       0.0001
     16  CD2       -7.8330   -8.0940   24.3550 C.3    44  LEU44       0.0001
     17  N        -10.6830   -3.4750   24.0540 N.am   45  THR45      -0.1953
     18  CA       -10.7720   -2.0310   23.8740 C.3    45  THR45       0.1897
     19  C        -10.9820   -1.3160   25.2090 C.2    45  THR45       0.2313
     20  O        -10.5070   -0.1960   25.3980 O.2    45  THR45      -0.2863
     21  CB       -11.9000   -1.6470   22.8970 C.3    45  THR45       0.1794
     22  OG1      -13.1230   -2.2740   23.2970 O.3    45  THR45      -0.2208
     23  CG2      -11.5470   -2.0920   21.4820 C.3    45  THR45       0.0378
     24  N         -9.6500   -2.3590   27.9830 N.3    47  LEU47      -0.1231
     25  CA        -8.2960   -2.3890   28.5240 C.3    47  LEU47       0.1693
     26  C         -7.4130   -1.3120   27.9010 C.2    47  LEU47       0.2591
     27  O         -6.7090   -0.5860   28.6060 O.2    47  LEU47      -0.2718
     28  CB        -7.6660   -3.7660   28.3000 C.3    47  LEU47       0.0284
     29  CG        -6.2200   -3.9350   28.7680 C.3    47  LEU47       0.0019
     30  CD1       -6.1270   -3.7760   30.2770 C.3    47  LEU47       0.0001
     31  CD2       -5.6720   -5.2850   28.3340 C.3    47  LEU47       0.0001
     32  N         -7.4520   -1.2240   26.5750 N.am   48  ALA48      -0.1980
     33  CA        -6.6620   -0.2450   25.8370 C.3    48  ALA48       0.1597
     34  C         -6.9730    1.1750   26.2990 C.2    48  ALA48       0.2287
     35  O         -6.0740    2.0070   26.4300 O.2    48  ALA48      -0.2864
     36  CB        -6.9120   -0.3810   24.3410 C.3    48  ALA48       0.0319
     37  N         -5.3530    1.7740   29.6370 N.3    51  GLU51      -0.1245
     38  CA        -3.9130    1.8490   29.4070 C.3    51  GLU51       0.1567
     39  C         -3.5180    3.1940   28.7950 C.2    51  GLU51       0.2260
     40  O         -2.4530    3.7340   29.0980 O.2    51  GLU51      -0.2867
     41  CB        -3.4460    0.7060   28.5010 C.3    51  GLU51       0.0388
     42  CG        -3.3650   -0.6480   29.1910 C.3    51  GLU51       0.1160
     43  CD        -2.8430   -1.7420   28.2770 C.2    51  GLU51       0.3649
     44  OE1       -3.5930   -2.1790   27.3800 O.co2  51  GLU51      -0.2457
     45  OE2       -1.6800   -2.1660   28.4540 O.co2  51  GLU51      -0.2457
     46  N          0.4190    5.5290   19.5400 N.3    81  TRP81      -0.1227
     47  CA        -0.2650    4.9190   20.6870 C.3    81  TRP81       0.1737
     48  C         -0.4490    3.4060   20.5620 C.2    81  TRP81       0.2595
     49  O         -0.2450    2.6770   21.5330 O.2    81  TRP81      -0.2718
     50  CB        -1.6270    5.5860   20.9350 C.3    81  TRP81       0.0564
     51  CG        -2.6800    5.3400   19.8900 C.ar   81  TRP81       0.0003
     52  CD1       -2.9300    6.1010   18.7850 C.ar   81  TRP81       0.0946
     53  CD2       -3.6450    4.2800   19.8720 C.ar   81  TRP81       0.0152
     54  NE1       -3.9800    5.5730   18.0720 N.ar   81  TRP81      -0.2442
     55  CE2       -4.4360    4.4530   18.7180 C.ar   81  TRP81       0.0810
     56  CE3       -3.9080    3.1930   20.7110 C.ar   81  TRP81       0.0012
     57  CZ2       -5.4760    3.5860   18.3870 C.ar   81  TRP81       0.0191
     58  CZ3       -4.9410    2.3320   20.3800 C.ar   81  TRP81       0.0001
     59  CH2       -5.7120    2.5340   19.2280 C.ar   81  TRP81       0.0015
     60  N         -0.8180    2.9300   19.3790 N.am   82  LEU82      -0.1980
     61  CA        -1.0230    1.4980   19.1950 C.3    82  LEU82       0.1596
     62  C          0.3160    0.7650   19.1630 C.2    82  LEU82       0.2287
     63  O          0.4270   -0.3500   19.6690 O.2    82  LEU82      -0.2864
     64  CB        -1.8210    1.2170   17.9210 C.3    82  LEU82       0.0297
     65  CG        -2.2320   -0.2460   17.7300 C.3    82  LEU82       0.0022
     66  CD1       -2.9650   -0.7640   18.9620 C.3    82  LEU82       0.0001
     67  CD2       -3.0870   -0.4180   16.4830 C.3    82  LEU82       0.0001
     68  N          1.3000    0.3450   22.7710 N.3    85  LEU85      -0.1231
     69  CA         0.5170   -0.7220   23.3810 C.3    85  LEU85       0.1693
     70  C          1.0520   -2.0850   22.9580 C.2    85  LEU85       0.2591
     71  O          1.0650   -3.0310   23.7440 O.2    85  LEU85      -0.2718
     72  CB        -0.9640   -0.6020   23.0020 C.3    85  LEU85       0.0284
     73  CG        -1.7860    0.5130   23.6490 C.3    85  LEU85       0.0019
     74  CD1       -3.2330    0.4550   23.1780 C.3    85  LEU85       0.0001
     75  CD2       -1.7110    0.4260   25.1660 C.3    85  LEU85       0.0001
     76  N          1.5020   -2.1730   21.7100 N.am   86  MET86      -0.1979
     77  CA         1.9740   -3.4350   21.1520 C.3    86  MET86       0.1605
     78  C          3.3430   -3.8470   21.6840 C.2    86  MET86       0.2287
     79  O          3.5510   -5.0140   22.0160 O.2    86  MET86      -0.2864
     80  CB         2.0120   -3.3550   19.6250 C.3    86  MET86       0.0413
     81  CG         0.6360   -3.4310   18.9870 C.3    86  MET86       0.0598
     82  SD         0.6710   -3.2850   17.1950 S.3    86  MET86      -0.1393
     83  CE        -1.0440   -3.6140   16.8030 C.3    86  MET86       0.0692
     84  N          2.7660   -5.0240   25.2100 N.3    89  LEU89      -0.1245
     85  CA         2.1480   -6.3460   25.2130 C.3    89  LEU89       0.1561
     86  C          3.1700   -7.4250   24.8870 C.2    89  LEU89       0.2260
     87  O          3.2490   -8.4510   25.5640 O.2    89  LEU89      -0.2867
     88  CB         0.9960   -6.4050   24.2080 C.3    89  LEU89       0.0270
     89  CG         0.4000   -7.7970   23.9720 C.3    89  LEU89       0.0019
     90  CD1       -0.2860   -8.3080   25.2290 C.3    89  LEU89       0.0001
     91  CD2       -0.5620   -7.7930   22.7940 C.3    89  LEU89       0.0001
     92  N          5.6250   -7.9810   27.8650 N.3    92  ARG92      -0.1245
     93  CA         5.1310   -8.7300   29.0160 C.3    92  ARG92       0.1563
     94  C          4.6360  -10.1220   28.6190 C.2    92  ARG92       0.2260
     95  O          4.2660  -10.9220   29.4760 O.2    92  ARG92      -0.2867
     96  CB         4.0280   -7.9490   29.7490 C.3    92  ARG92       0.0307
     97  CG         2.7990   -7.5720   28.9300 C.3    92  ARG92       0.0489
     98  CD         1.8180   -6.7770   29.8000 C.3    92  ARG92       0.2205
     99  NE         0.5680   -6.4590   29.1130 N.pl3  92  ARG92      -0.0865
    100  CZ         0.3570   -5.3430   28.4220 C.cat  92  ARG92       0.5346
    101  NH1        1.3140   -4.4310   28.3200 N.pl3  92  ARG92       0.1354
    102  NH2       -0.8120   -5.1380   27.8300 N.pl3  92  ARG92       0.1354
    103  N         -2.2420   -9.8820   27.8140 N.3   102  PHE102     -0.1241
    104  CA        -2.9140   -8.5870   27.8010 C.3   102  PHE102      0.1605
    105  C         -3.0530   -8.0610   29.2200 C.2   102  PHE102      0.2264
    106  O         -2.8620   -6.8730   29.4830 O.2   102  PHE102     -0.2867
    107  CB        -4.2890   -8.6930   27.1390 C.3   102  PHE102      0.0534
    108  CG        -4.2350   -8.7940   25.6440 C.ar  102  PHE102     -0.0203
    109  CD1       -4.1360   -7.6530   24.8630 C.ar  102  PHE102     -0.0042
    110  CD2       -4.2870  -10.0270   25.0160 C.ar  102  PHE102     -0.0042
    111  CE1       -4.0880   -7.7410   23.4850 C.ar  102  PHE102     -0.0003
    112  CE2       -4.2370  -10.1200   23.6370 C.ar  102  PHE102     -0.0003
    113  CZ        -4.1380   -8.9760   22.8720 C.ar  102  PHE102     -0.0000
    114  N         -8.6770  -11.1290   13.5600 N.3   119  MET119     -0.1245
    115  CA        -7.7900  -10.7170   14.6430 C.3   119  MET119      0.1570
    116  C         -6.6430  -11.7030   14.8600 C.2   119  MET119      0.2261
    117  O         -5.5990  -11.3370   15.3990 O.2   119  MET119     -0.2867
    118  CB        -8.5770  -10.5390   15.9460 C.3   119  MET119      0.0387
    119  CG        -7.8140   -9.7670   17.0230 C.3   119  MET119      0.0595
    120  SD        -8.7670   -9.4400   18.5200 S.3   119  MET119     -0.1393
    121  CE        -8.9680  -11.0980   19.1710 C.3   119  MET119      0.0692
    122  N         -3.3780  -10.7260   13.4340 N.3   122  ILE122     -0.1231
    123  CA        -2.6970   -9.7460   14.2680 C.3   122  ILE122      0.1692
    124  C         -2.0110  -10.4200   15.4520 C.2   122  ILE122      0.2592
    125  O         -0.8670  -10.1000   15.7760 O.2   122  ILE122     -0.2718
    126  CB        -3.6740   -8.6710   14.7790 C.3   122  ILE122      0.0266
    127  CG1       -4.3080   -7.9350   13.5990 C.3   122  ILE122      0.0019
    128  CG2       -2.9610   -7.6900   15.6960 C.3   122  ILE122      0.0020
    129  CD1       -5.2700   -6.8500   14.0080 C.3   122  ILE122      0.0001
    130  N         -2.7110  -11.3550   16.0890 N.am  123  PHE123     -0.1976
    131  CA        -2.1380  -12.1240   17.1920 C.3   123  PHE123      0.1639
    132  C         -0.8520  -12.8290   16.7720 C.2   123  PHE123      0.2290
    133  O          0.1390  -12.8120   17.5030 O.2   123  PHE123     -0.2864
    134  CB        -3.1370  -13.1580   17.7170 C.3   123  PHE123      0.0560
    135  CG        -4.0480  -12.6360   18.7930 C.ar  123  PHE123     -0.0200
    136  CD1       -4.2980  -11.2790   18.9160 C.ar  123  PHE123     -0.0042
    137  CD2       -4.6420  -13.5070   19.6940 C.ar  123  PHE123     -0.0042
    138  CE1       -5.1350  -10.8000   19.9050 C.ar  123  PHE123     -0.0003
    139  CE2       -5.4770  -13.0350   20.6880 C.ar  123  PHE123     -0.0003
    140  CZ        -5.7240  -11.6790   20.7940 C.ar  123  PHE123     -0.0000
    141  N          2.0340  -10.4250   16.5730 N.3   126  LEU126     -0.1245
    142  CA         2.4300  -10.0390   17.9240 C.3   126  LEU126      0.1561
    143  C          3.2030  -11.1570   18.6170 C.2   126  LEU126      0.2260
    144  O          4.2110  -10.9090   19.2820 O.2   126  LEU126     -0.2867
    145  CB         1.2020   -9.6570   18.7560 C.3   126  LEU126      0.0270
    146  CG         0.4740   -8.3750   18.3480 C.3   126  LEU126      0.0019
    147  CD1       -0.9200   -8.3360   18.9540 C.3   126  LEU126      0.0001
    148  CD2        1.2760   -7.1440   18.7590 C.3   126  LEU126      0.0001
    149  N         -3.3490   -3.2650   12.7650 N.3   212  GLY212     -0.1225
    150  CA        -4.2400   -3.2480   13.9100 C.3   212  GLY212      0.1811
    151  C         -5.1820   -2.0610   13.8660 C.2   212  GLY212      0.2280
    152  O         -6.3230   -2.1430   14.3210 O.2   212  GLY212     -0.2866
    153  N         -7.9220   -2.8610   11.4100 N.3   215  HIS215     -0.1226
    154  CA        -8.8130   -3.8610   11.9850 C.3   215  HIS215      0.1752
    155  C         -9.7690   -3.2320   12.9900 C.2   215  HIS215      0.2595
    156  O        -10.9690   -3.5080   12.9770 O.2   215  HIS215     -0.2718
    157  CB        -8.0100   -4.9750   12.6560 C.3   215  HIS215      0.0759
    158  CG        -8.8590   -6.0260   13.3000 C.ar  215  HIS215      0.0818
    159  ND1       -9.2950   -5.9340   14.6040 N.ar  215  HIS215     -0.2268
    160  CD2       -9.3580   -7.1880   12.8170 C.ar  215  HIS215      0.1154
    161  CE1      -10.0240   -6.9960   14.8980 C.ar  215  HIS215      0.1986
    162  NE2      -10.0790   -7.7720   13.8310 N.ar  215  HIS215     -0.2212
    163  N         -9.2260   -2.3900   13.8640 N.am  216  LEU216     -0.1980
    164  CA       -10.0270   -1.6910   14.8610 C.3   216  LEU216      0.1596
    165  C        -11.0620   -0.8050   14.1810 C.2   216  LEU216      0.2287
    166  O        -12.2020   -0.6960   14.6330 O.2   216  LEU216     -0.2864
    167  CB        -9.1320   -0.8560   15.7790 C.3   216  LEU216      0.0297
    168  CG        -9.8180   -0.0830   16.9060 C.3   216  LEU216      0.0022
    169  CD1      -10.5180   -1.0390   17.8630 C.3   216  LEU216      0.0001
    170  CD2       -8.8090    0.7840   17.6460 C.3   216  LEU216      0.0001
@<TRIPOS>BOND
     1   153   154    1
     2   154   157    1
     3   154   155    1
     4   157   158    1
     5   149   150    1
     6   160   158   ar
     7   160   162   ar
     8   156   155    2
     9   155   163   am
    10   158   159   ar
    11   122   123    1
    12   114   115    1
    13   127   129    1
    14   127   126    1
    15   162   161   ar
    16   163   164    1
    17   151   150    1
    18   151   152    2
    19   165   166    2
    20   165   164    1
    21   123   126    1
    22   123   124    1
    23   159   161   ar
    24   115   116    1
    25   115   118    1
    26   126   128    1
    27   116   117    2
    28   164   167    1
    29   124   125    2
    30   124   130   am
    31   167   168    1
    32   118   119    1
    33   130   131    1
    34    67    65    1
    35   141   142    1
    36   132   131    1
    37   132   133    2
    38    83    82    1
    39   168   170    1
    40   168   169    1
    41   119   120    1
    42   131   134    1
    43    82    81    1
    44   134   135    1
    45    65    64    1
    46    65    66    1
    47    64    61    1
    48   142   143    1
    49   142   145    1
    50    54    55   ar
    51    54    52   ar
    52   146   145    1
    53   146   148    1
    54   146   147    1
    55    57    55   ar
    56    57    59   ar
    57     8     7    1
    58     7     6    1
    59   120   121    1
    60   143   144    2
    61    55    53   ar
    62    52    51   ar
    63   135   136   ar
    64   135   137   ar
    65     6     5    1
    66   136   138   ar
    67    81    80    1
    68    62    61    1
    69    62    63    2
    70    61    60    1
    71    59    58   ar
    72    60    48   am
    73    46    47    1
    74    80    77    1
    75   137   139   ar
    76    53    51   ar
    77    53    56   ar
    78    51    50    1
    79   138   140   ar
    80     5     2    1
    81    58    56   ar
    82    48    47    1
    83    48    49    2
    84    47    50    1
    85   139   140   ar
    86    77    78    1
    87    77    76    1
    88     2     1    1
    89     2     3    1
    90    23    21    1
    91    78    79    2
    92    76    70   am
    93    15    14    1
    94     3     4    2
    95    68    69    1
    96    91    89    1
    97   113   111   ar
    98   113   112   ar
    99    21    22    1
   100    21    18    1
   101    70    69    1
   102    70    71    2
   103    72    69    1
   104    72    73    1
   105    74    73    1
   106    13    14    1
   107    13    10    1
   108    14    16    1
   109   111   109   ar
   110   112   110   ar
   111    73    75    1
   112    18    17    1
   113    18    19    1
   114    89    88    1
   115    89    90    1
   116    17    11   am
   117    88    85    1
   118    36    33    1
   119    11    10    1
   120    11    12    2
   121    10     9    1
   122   109   108   ar
   123    86    85    1
   124    86    87    2
   125   110   108   ar
   126    19    20    2
   127    84    85    1
   128   108   107    1
   129    33    34    1
   130    33    32    1
   131    34    35    2
   132    32    26   am
   133   107   104    1
   134    44    43   ar
   135   104   103    1
   136   104   105    1
   137   102   100    1
   138    92    93    1
   139    26    25    1
   140    26    27    2
   141    24    25    1
   142    43    45   ar
   143    43    42    1
   144    28    25    1
   145    28    29    1
   146   101   100    1
   147    31    29    1
   148   100    99    2
   149    41    42    1
   150    41    38    1
   151    94    93    1
   152    94    95    2
   153    29    30    1
   154    39    40    2
   155    39    38    1
   156    97    96    1
   157    97    98    1
   158    93    96    1
   159    99    98    1
   160   105   106    2
   161    38    37    1
