@<TRIPOS>MOLECULE
tmp/5diqA00.pdb
 132 123 0 0 0
SMALL
GASTEIGER

@<TRIPOS>ATOM
      1  N         -5.9270   75.8080   23.0420 N.3     3  TYR3       -0.1241
      2  CA        -4.6120   75.7780   22.4100 C.3     3  TYR3        0.1605
      3  C         -4.6290   74.8860   21.1730 C.2     3  TYR3        0.2264
      4  O         -4.2070   75.3380   20.1050 O.2     3  TYR3       -0.2867
      5  CB        -3.5310   75.3400   23.4150 C.3     3  TYR3        0.0534
      6  CG        -3.0940   76.4650   24.3280 C.ar    3  TYR3       -0.0201
      7  CD1       -3.8960   76.8830   25.3860 C.ar    3  TYR3       -0.0009
      8  CD2       -1.8780   77.1140   24.1340 C.ar    3  TYR3       -0.0009
      9  CE1       -3.5060   77.9270   26.2210 C.ar    3  TYR3        0.0417
     10  CE2       -1.4740   78.1560   24.9660 C.ar    3  TYR3        0.0417
     11  CZ        -2.2940   78.5610   26.0050 C.ar    3  TYR3        0.1957
     12  OH        -1.9080   79.5740   26.8330 O.3     3  TYR3       -0.2866
     13  N          6.4110   73.3110   20.5420 N.3    50  LYS50      -0.1245
     14  CA         4.9800   73.1730   20.8540 C.3    50  LYS50       0.1561
     15  C          4.2170   74.4870   20.6150 C.2    50  LYS50       0.2260
     16  O          2.9880   74.4810   20.5950 O.2    50  LYS50      -0.2867
     17  CB         4.7760   72.6910   22.3000 C.3    50  LYS50       0.0271
     18  CG         5.3190   71.2870   22.5930 C.3    50  LYS50       0.0035
     19  CD         5.4940   71.1020   24.0990 C.3    50  LYS50       0.0206
     20  CE         6.4060   69.9580   24.4480 C.3    50  LYS50       0.1093
     21  NZ         6.6760   69.9020   25.9090 N.3    50  LYS50      -0.1314
     22  N          3.6990   77.0010   22.5460 N.3    52  ASN52      -0.1225
     23  CA         2.8210   77.3830   23.6630 C.3    52  ASN52       0.1785
     24  C          2.8680   78.8550   23.9970 C.2    52  ASN52       0.2597
     25  O          1.8230   79.4350   24.2520 O.2    52  ASN52      -0.2718
     26  CB         3.0900   76.5200   24.9020 C.3    52  ASN52       0.1169
     27  CG         2.5470   75.1290   24.7490 C.2    52  ASN52       0.2627
     28  OD1        1.4510   74.9200   24.2310 O.2    52  ASN52      -0.2716
     29  ND2        3.3030   74.1550   25.1810 N.am   52  ASN52      -0.0877
     30  N          4.0520   79.4680   23.9580 N.am   53  ARG53      -0.1979
     31  CA         4.2040   80.9000   24.2300 C.3    53  ARG53       0.1597
     32  C          3.5070   81.7610   23.1780 C.2    53  ARG53       0.2287
     33  O          2.7460   82.6540   23.5380 O.2    53  ARG53      -0.2864
     34  CB         5.6820   81.2820   24.3740 C.3    53  ARG53       0.0334
     35  CG         6.3330   80.7340   25.6480 C.3    53  ARG53       0.0492
     36  CD         7.8580   80.7560   25.5190 C.3    53  ARG53       0.2205
     37  NE         8.5050   80.0370   26.6180 N.pl3  53  ARG53      -0.0865
     38  CZ         8.5370   78.7160   26.7680 C.cat  53  ARG53       0.5346
     39  NH1        7.9670   77.9180   25.8670 N.pl3  53  ARG53       0.1354
     40  NH2        9.1320   78.1800   27.8230 N.pl3  53  ARG53       0.1354
     41  N         -0.2480   81.4450   23.3430 N.3    56  THR56      -0.1218
     42  CA        -0.7730   82.1740   24.5080 C.3    56  THR56       0.1862
     43  C         -1.1890   83.5940   24.1030 C.2    56  THR56       0.2287
     44  O         -2.2020   84.0900   24.5950 O.2    56  THR56      -0.2866
     45  CB         0.2170   82.1280   25.6760 C.3    56  THR56       0.1770
     46  OG1        0.3910   80.7730   26.0310 O.3    56  THR56      -0.2211
     47  CG2       -0.2790   82.8870   26.9140 C.3    56  THR56       0.0375
     48  N          8.5860   84.0230   29.0190 N.3   198  SER198     -0.1202
     49  CA         7.7040   82.8900   28.8070 C.3   198  SER198      0.2020
     50  C          6.2620   83.1180   29.2280 C.2   198  SER198      0.2618
     51  O          5.3580   82.5560   28.6120 O.2   198  SER198     -0.2717
     52  CB         8.2590   81.6330   29.4850 C.3   198  SER198      0.2103
     53  OG         9.5120   81.2590   28.9380 O.3   198  SER198     -0.2182
     54  N          6.0600   83.8810   30.2980 N.am  199  PHE199     -0.1975
     55  CA         4.7480   84.0790   30.9180 C.3   199  PHE199      0.1639
     56  C          4.2840   85.5070   30.8850 C.2   199  PHE199      0.2290
     57  O          3.1470   85.7640   30.4900 O.2   199  PHE199     -0.2864
     58  CB         4.7710   83.5250   32.3720 C.3   199  PHE199      0.0560
     59  CG         4.8490   82.0240   32.3870 C.ar  199  PHE199     -0.0200
     60  CD1        6.0770   81.3750   32.3400 C.ar  199  PHE199     -0.0042
     61  CD2        3.6920   81.2530   32.3470 C.ar  199  PHE199     -0.0042
     62  CE1        6.1470   79.9810   32.2490 C.ar  199  PHE199     -0.0003
     63  CE2        3.7660   79.8590   32.2640 C.ar  199  PHE199     -0.0003
     64  CZ         4.9900   79.2340   32.2160 C.ar  199  PHE199     -0.0000
     65  N          6.6640   76.8960   36.9900 N.3   232  PHE232     -0.1241
     66  CA         6.9480   76.1600   35.7420 C.3   232  PHE232      0.1605
     67  C          8.3670   75.5920   35.7040 C.2   232  PHE232      0.2264
     68  O          8.5450   74.4320   35.3600 O.2   232  PHE232     -0.2867
     69  CB         6.6790   77.0440   34.4980 C.3   232  PHE232      0.0534
     70  CG         7.0240   76.3800   33.1790 C.ar  232  PHE232     -0.0203
     71  CD1        6.2130   75.3810   32.6510 C.ar  232  PHE232     -0.0042
     72  CD2        8.1940   76.7090   32.5010 C.ar  232  PHE232     -0.0042
     73  CE1        6.5620   74.7280   31.4620 C.ar  232  PHE232     -0.0003
     74  CE2        8.5410   76.0520   31.3060 C.ar  232  PHE232     -0.0003
     75  CZ         7.7150   75.0790   30.7940 C.ar  232  PHE232     -0.0000
     76  N          9.7310   71.7820   35.9810 N.3   236  ASP236     -0.1239
     77  CA        10.5940   71.3510   34.8690 C.3   236  ASP236      0.1674
     78  C         11.9010   70.7280   35.4250 C.2   236  ASP236      0.2266
     79  O         12.3120   69.6700   34.9580 O.2   236  ASP236     -0.2867
     80  CB        10.9010   72.5330   33.9260 C.3   236  ASP236      0.1410
     81  CG        11.6610   72.0950   32.6690 C.2   236  ASP236      0.3668
     82  OD1       11.0580   71.4070   31.8140 O.co2 236  ASP236     -0.2456
     83  OD2       12.8550   72.3980   32.5690 O.co2 236  ASP236     -0.2456
     84  N         10.8750   67.3360   37.0790 N.3   239  LEU239     -0.1245
     85  CA        10.5680   66.3340   36.0560 C.3   239  LEU239      0.1561
     86  C         11.7940   65.9340   35.2240 C.2   239  LEU239      0.2260
     87  O         11.8050   64.8430   34.6700 O.2   239  LEU239     -0.2867
     88  CB         9.3950   66.7820   35.1460 C.3   239  LEU239      0.0270
     89  CG         8.0000   66.8840   35.7900 C.3   239  LEU239      0.0019
     90  CD1        7.0200   67.5040   34.8450 C.3   239  LEU239      0.0001
     91  CD2        7.4740   65.5240   36.2430 C.3   239  LEU239      0.0001
     92  N          7.0300   63.0570   29.3700 N.3   248  THR248     -0.1218
     93  CA         7.6750   64.3670   29.2100 C.3   248  THR248      0.1862
     94  C          8.2450   64.6060   27.8110 C.2   248  THR248      0.2287
     95  O          8.4100   65.7620   27.4210 O.2   248  THR248     -0.2866
     96  CB         8.7470   64.6140   30.2920 C.3   248  THR248      0.1770
     97  OG1        9.8640   63.7370   30.0870 O.3   248  THR248     -0.2211
     98  CG2        8.1980   64.5130   31.7180 C.3   248  THR248      0.0375
     99  N         11.2880   63.8100   26.9870 N.3   250  LYS250     -0.1245
    100  CA        12.7060   64.0940   27.1990 C.3   250  LYS250      0.1561
    101  C         13.3540   63.2590   28.3100 C.2   250  LYS250      0.2260
    102  O         12.6990   62.8820   29.2880 O.2   250  LYS250     -0.2867
    103  CB        12.9680   65.6060   27.4270 C.3   250  LYS250      0.0271
    104  CG        12.1660   66.2750   28.5430 C.3   250  LYS250      0.0035
    105  CD        12.4400   67.7920   28.5820 C.3   250  LYS250      0.0206
    106  CE        11.2200   68.6110   28.9710 C.3   250  LYS250      0.1093
    107  NZ        11.4780   70.0830   28.9170 N.3   250  LYS250     -0.1314
    108  N         -4.0390   79.2190   31.6190 N.3   337  LEU337     -0.1245
    109  CA        -2.6030   79.0360   31.7360 C.3   337  LEU337      0.1561
    110  C         -2.2530   78.2010   32.9420 C.2   337  LEU337      0.2260
    111  O         -1.4290   77.3070   32.8180 O.2   337  LEU337     -0.2867
    112  CB        -1.9020   80.4020   31.8300 C.3   337  LEU337      0.0270
    113  CG        -1.0940   80.8810   30.6540 C.3   337  LEU337      0.0019
    114  CD1       -0.4080   82.2040   31.0050 C.3   337  LEU337      0.0001
    115  CD2       -0.0160   79.8720   30.2570 C.3   337  LEU337      0.0001
    116  N         -2.8430   74.4980   32.2840 N.3   340  LYS340     -0.1231
    117  CA        -1.8340   73.9540   31.3670 C.3   340  LYS340      0.1693
    118  C         -0.5080   73.6560   32.0960 C.2   340  LYS340      0.2591
    119  O          0.1150   72.6280   31.8430 O.2   340  LYS340     -0.2718
    120  CB        -1.6240   74.9010   30.1730 C.3   340  LYS340      0.0285
    121  CG        -2.7660   74.8740   29.1610 C.3   340  LYS340      0.0035
    122  CD        -2.4640   73.9380   28.0020 C.3   340  LYS340      0.0206
    123  CE        -3.7110   73.3050   27.4480 C.3   340  LYS340      0.1093
    124  NZ        -3.4050   72.0680   26.6750 N.3   340  LYS340     -0.1314
    125  N         -0.1260   74.5150   33.0430 N.am  341  ILE341     -0.1980
    126  CA         1.1120   74.4080   33.8110 C.3   341  ILE341      0.1595
    127  C          1.0300   73.4200   35.0010 C.2   341  ILE341      0.2287
    128  O          1.9740   72.6660   35.2120 O.2   341  ILE341     -0.2864
    129  CB         1.5580   75.8440   34.2610 C.3   341  ILE341      0.0276
    130  CG1        1.8230   76.7840   33.0480 C.3   341  ILE341      0.0022
    131  CG2        2.7360   75.8540   35.2500 C.3   341  ILE341      0.0022
    132  CD1        2.7320   76.2580   31.9590 C.3   341  ILE341      0.0001
@<TRIPOS>BOND
     1     4     3    2
     2    13    14    1
     3    16    15    2
     4    15    14    1
     5    14    17    1
     6     3     2    1
     7    17    18    1
     8     2     1    1
     9     2     5    1
    10    22    23    1
    11    18    19    1
    12    32    33    2
    13    32    31    1
    14    41    42    1
    15     5     6    1
    16    23    24    1
    17    23    26    1
    18    30    24   am
    19    30    31    1
    20    24    25    2
    21    19    20    1
    22    43    42    1
    23    43    44    2
    24     8     6   ar
    25     8    10   ar
    26    31    34    1
    27    28    27    2
    28     6     7   ar
    29    34    35    1
    30    20    21    1
    31    42    45    1
    32    27    26    1
    33    27    29   am
    34    10    11   ar
    35     7     9   ar
    36    36    35    1
    37    36    37    1
    38    45    46    1
    39    45    47    1
    40    39    38    1
    41    11     9   ar
    42    11    12    1
    43    37    38    2
    44   124   123    1
    45    38    40    1
    46    99   100    1
    47   100   103    1
    48   100   101    1
    49    95    94    2
    50   103   104    1
    51   123   122    1
    52    94    93    1
    53   122   121    1
    54   101   102    2
    55   104   105    1
    56   105   106    1
    57    51    50    2
    58    49    48    1
    59    49    50    1
    60    49    52    1
    61   107   106    1
    62    53    52    1
    63   121   120    1
    64    93    92    1
    65    93    96    1
    66    50    54   am
    67    97    96    1
    68   120   117    1
    69   115   113    1
    70    96    98    1
    71    54    55    1
    72    57    56    2
    73   113   114    1
    74   113   112    1
    75    75    74   ar
    76    75    73   ar
    77    56    55    1
    78    55    58    1
    79    74    72   ar
    80   117   118    1
    81   117   116    1
    82    73    71   ar
    83   108   109    1
    84   109   112    1
    85   109   110    1
    86    82    81   ar
    87   119   118    2
    88   132   130    1
    89   118   125   am
    90    64    62   ar
    91    64    63   ar
    92    62    60   ar
    93    63    61   ar
    94    60    59   ar
    95    61    59   ar
    96    58    59    1
    97    72    70   ar
    98    83    81   ar
    99    71    70   ar
   100    81    80    1
   101   111   110    2
   102   125   126    1
   103   130   129    1
   104    70    69    1
   105   126   129    1
   106   126   127    1
   107    80    77    1
   108   129   131    1
   109    69    66    1
   110    87    86    2
   111    90    89    1
   112    77    78    1
   113    77    76    1
   114    79    78    2
   115   127   128    2
   116    88    89    1
   117    88    85    1
   118    86    85    1
   119    68    67    2
   120    67    66    1
   121    66    65    1
   122    89    91    1
   123    85    84    1
