@<TRIPOS>MOLECULE
tmp/5dirA05.pdb
 115 109 0 0 0
SMALL
GASTEIGER

@<TRIPOS>ATOM
      1  N        -34.8190  -13.9980   12.0500 N.3    14  ILE14      -0.1245
      2  CA       -35.4710  -13.1260   11.0860 C.3    14  ILE14       0.1561
      3  C        -35.8580  -11.8190   11.7750 C.2    14  ILE14       0.2260
      4  O        -35.6840  -10.7380   11.2150 O.2    14  ILE14      -0.2867
      5  CB       -36.7040  -13.7850   10.4580 C.3    14  ILE14       0.0252
      6  CG1      -36.2730  -14.9670    9.5860 C.3    14  ILE14       0.0019
      7  CG2      -37.4780  -12.7790    9.6250 C.3    14  ILE14       0.0019
      8  CD1      -37.4160  -15.6770    8.9120 C.3    14  ILE14       0.0001
      9  N        -41.3150   10.8040   13.9980 N.3    53  ASN53      -0.1240
     10  CA       -42.7180   10.5320   14.2630 C.3    53  ASN53       0.1653
     11  C        -43.0270   10.4020   15.7570 C.2    53  ASN53       0.2266
     12  O        -42.8110    9.3510   16.3550 O.2    53  ASN53      -0.2867
     13  CB       -43.1460    9.2690   13.5100 C.3    53  ASN53       0.1155
     14  CG       -44.6530    9.1250   13.4130 C.2    53  ASN53       0.2627
     15  OD1      -45.3950    9.5790   14.2820 O.2    53  ASN53      -0.2716
     16  ND2      -45.1130    8.5130   12.3300 N.am   53  ASN53      -0.0877
     17  N        -42.7740  -16.9280    9.7190 N.3    99  ILE99      -0.1245
     18  CA       -42.1820  -15.7890    9.0400 C.3    99  ILE99       0.1561
     19  C        -42.9830  -14.5220    9.3050 C.2    99  ILE99       0.2260
     20  O        -42.4210  -13.4780    9.6280 O.2    99  ILE99      -0.2867
     21  CB       -42.0850  -16.0380    7.5330 C.3    99  ILE99       0.0252
     22  CG1      -41.0850  -17.1650    7.2610 C.3    99  ILE99       0.0019
     23  CG2      -41.6980  -14.7580    6.8060 C.3    99  ILE99       0.0019
     24  CD1      -41.0770  -17.6530    5.8360 C.3    99  ILE99       0.0001
     25  N        -41.5970  -11.2490   11.2250 N.3   103  LEU103     -0.1245
     26  CA       -41.5680   -9.9490   10.5610 C.3   103  LEU103      0.1561
     27  C        -42.2060   -8.8750   11.4200 C.2   103  LEU103      0.2260
     28  O        -41.6530   -7.7870   11.5770 O.2   103  LEU103     -0.2867
     29  CB       -42.2690  -10.0010    9.1980 C.3   103  LEU103      0.0270
     30  CG       -41.5290  -10.7200    8.0680 C.3   103  LEU103      0.0019
     31  CD1      -42.3560  -10.7480    6.7910 C.3   103  LEU103      0.0001
     32  CD2      -40.2050  -10.0310    7.8210 C.3   103  LEU103      0.0001
     33  N        -38.2680    8.1510   10.3840 N.3   123  ASP123     -0.1239
     34  CA       -38.9210    7.8020    9.1270 C.3   123  ASP123      0.1674
     35  C        -38.1490    8.3870    7.9470 C.2   123  ASP123      0.2266
     36  O        -37.7760    9.5570    7.9730 O.2   123  ASP123     -0.2867
     37  CB       -40.3630    8.2980    9.1160 C.3   123  ASP123      0.1410
     38  CG       -41.2620    7.5050   10.0470 C.2   123  ASP123      0.3668
     39  OD1      -40.9410    6.3350   10.3250 O.co2 123  ASP123     -0.2456
     40  OD2      -42.2750    8.0620   10.5230 O.co2 123  ASP123     -0.2456
     41  N        -47.8820   10.3010    0.8420 N.3   135  PHE135     -0.1228
     42  CA       -48.0420    9.2030    1.7930 C.3   135  PHE135      0.1721
     43  C        -47.1560    9.4630    3.0170 C.2   135  PHE135      0.2437
     44  O        -46.0190    9.9150    2.8710 O.2   135  PHE135     -0.2733
     45  CB       -47.6860    7.8660    1.1270 C.3   135  PHE135      0.0547
     46  CG       -48.1150    6.6560    1.9130 C.ar  135  PHE135     -0.0202
     47  CD1      -49.4320    6.2190    1.8680 C.ar  135  PHE135     -0.0042
     48  CD2      -47.2070    5.9480    2.6850 C.ar  135  PHE135     -0.0042
     49  CE1      -49.8380    5.1060    2.5850 C.ar  135  PHE135     -0.0003
     50  CE2      -47.6060    4.8330    3.4070 C.ar  135  PHE135     -0.0003
     51  CZ       -48.9240    4.4130    3.3560 C.ar  135  PHE135     -0.0000
     52  N        -47.6810    9.2050    4.2280 N.am  136  PRO136     -0.2718
     53  CA       -46.8910    9.3890    5.4520 C.3   136  PRO136      0.1535
     54  C        -45.5720    8.6240    5.4130 C.2   136  PRO136      0.2598
     55  O        -45.5660    7.4320    5.0990 O.2   136  PRO136     -0.2715
     56  CB       -47.8010    8.8360    6.5500 C.3   136  PRO136      0.0310
     57  CG       -49.1660    8.9200    6.0030 C.3   136  PRO136      0.0237
     58  CD       -49.0740    8.8230    4.5130 C.3   136  PRO136      0.0939
     59  N        -44.4750    9.3040    5.7360 N.am  137  ALA137     -0.1964
     60  CA       -43.1530    8.6920    5.6660 C.3   137  ALA137      0.1728
     61  C        -43.0730    7.4960    6.6030 C.2   137  ALA137      0.2616
     62  O        -43.5510    7.5590    7.7350 O.2   137  ALA137     -0.2715
     63  CB       -42.0760    9.7120    6.0080 C.3   137  ALA137      0.0334
     64  N        -42.4780    6.4060    6.1290 N.am  138  PHE138     -0.1974
     65  CA       -42.3220    5.2210    6.9610 C.3   138  PHE138      0.1639
     66  C        -40.8930    4.6830    6.8800 C.2   138  PHE138      0.2290
     67  O        -40.0000    5.3380    6.3420 O.2   138  PHE138     -0.2864
     68  CB       -43.3180    4.1190    6.5720 C.3   138  PHE138      0.0560
     69  CG       -43.2050    3.6530    5.1460 C.ar  138  PHE138     -0.0200
     70  CD1      -43.6990    4.4100    4.1000 C.ar  138  PHE138     -0.0042
     71  CD2      -42.5750    2.4500    4.8560 C.ar  138  PHE138     -0.0042
     72  CE1      -43.5810    3.9600    2.7880 C.ar  138  PHE138     -0.0003
     73  CE2      -42.4470    2.0000    3.5500 C.ar  138  PHE138     -0.0003
     74  CZ       -42.9490    2.7540    2.5190 C.ar  138  PHE138     -0.0000
     75  N        -41.8310   -0.5610    9.7050 N.3   142  ASP142     -0.1225
     76  CA       -43.2210   -0.4890    9.2740 C.3   142  ASP142      0.1805
     77  C        -43.4960   -1.5050    8.1720 C.2   142  ASP142      0.2598
     78  O        -44.5380   -2.1620    8.1580 O.2   142  ASP142     -0.2718
     79  CB       -43.5650    0.9140    8.7740 C.3   142  ASP142      0.1424
     80  CG       -43.4940    1.9540    9.8650 C.2   142  ASP142      0.3668
     81  OD1      -43.5320    1.5810   11.0570 O.co2 142  ASP142     -0.2456
     82  OD2      -43.4290    3.1520    9.5270 O.co2 142  ASP142     -0.2456
     83  N        -42.5520   -1.6080    7.2410 N.am  143  SER143     -0.1938
     84  CA       -42.6650   -2.5120    6.1070 C.3   143  SER143      0.2055
     85  C        -42.7260   -3.9600    6.5720 C.2   143  SER143      0.2642
     86  O        -43.5480   -4.7420    6.0960 O.2   143  SER143     -0.2714
     87  CB       -41.4890   -2.3050    5.1540 C.3   143  SER143      0.2130
     88  OG       -41.4690   -0.9680    4.6840 O.3   143  SER143     -0.2179
     89  N        -41.8500   -4.3090    7.5050 N.am  144  ALA144     -0.1977
     90  CA       -41.8460   -5.6470    8.0800 C.3   144  ALA144      0.1597
     91  C        -43.1700   -5.9340    8.7830 C.2   144  ALA144      0.2287
     92  O        -43.7450   -7.0130    8.6200 O.2   144  ALA144     -0.2864
     93  CB       -40.6860   -5.8060    9.0490 C.3   144  ALA144      0.0319
     94  N        -46.1210   -4.3740    8.2650 N.3   146  THR146     -0.1203
     95  CA       -47.1870   -4.3770    7.2720 C.3   146  THR146      0.1994
     96  C        -47.2000   -5.6650    6.4580 C.2   146  THR146      0.2617
     97  O        -48.2490   -6.2810    6.2970 O.2   146  THR146     -0.2717
     98  CB       -47.0610   -3.1750    6.3350 C.3   146  THR146      0.1784
     99  OG1      -47.2400   -1.9730    7.0940 O.3   146  THR146     -0.2211
    100  CG2      -48.1060   -3.2410    5.2390 C.3   146  THR146      0.0376
    101  N        -46.0370   -6.0680    5.9500 N.am  147  VAL147     -0.1979
    102  CA       -45.9220   -7.3200    5.2040 C.3   147  VAL147      0.1595
    103  C        -46.2640   -8.4930    6.1180 C.2   147  VAL147      0.2287
    104  O        -46.9890   -9.4100    5.7300 O.2   147  VAL147     -0.2864
    105  CB       -44.5090   -7.5050    4.6100 C.3   147  VAL147      0.0276
    106  CG1      -44.3250   -8.9130    4.0740 C.3   147  VAL147      0.0022
    107  CG2      -44.2650   -6.4810    3.5220 C.3   147  VAL147      0.0022
    108  N        -49.5430  -10.9640    5.6920 N.3   151  MET151     -0.1245
    109  CA       -49.3300  -12.4030    5.5950 C.3   151  MET151      0.1570
    110  C        -50.2520  -13.1290    6.5690 C.2   151  MET151      0.2261
    111  O        -50.7950  -14.1840    6.2510 O.2   151  MET151     -0.2867
    112  CB       -47.8620  -12.7580    5.8530 C.3   151  MET151      0.0387
    113  CG       -46.9310  -12.3610    4.7080 C.3   151  MET151      0.0595
    114  SD       -45.1950  -12.7280    5.0150 S.3   151  MET151     -0.1393
    115  CE       -45.2150  -14.5150    4.9480 C.3   151  MET151      0.0692
@<TRIPOS>BOND
     1    41    42    1
     2    45    42    1
     3    45    46    1
     4    42    43    1
     5    47    46   ar
     6    47    49   ar
     7    46    48   ar
     8    74    72   ar
     9    74    73   ar
    10    49    51   ar
    11    48    50   ar
    12    72    70   ar
    13    44    43    2
    14    43    52   am
    15    51    50   ar
    16   107   105    1
    17    73    71   ar
    18   106   105    1
    19    70    69   ar
    20    52    58    1
    21    52    53    1
    22    58    57    1
    23   105   102    1
    24    88    87    1
    25   113   114    1
    26   113   112    1
    27    71    69   ar
    28   115   114    1
    29    55    54    2
    30    69    68    1
    31    87    84    1
    32   102   101    1
    33   102   103    1
    34   100    98    1
    35    54    53    1
    36    54    59   am
    37    53    56    1
    38   109   108    1
    39   109   112    1
    40   109   110    1
    41    60    59    1
    42    60    63    1
    43    60    61    1
    44   104   103    2
    45    24    22    1
    46   101    96   am
    47    57    56    1
    48    86    85    2
    49    84    85    1
    50    84    83    1
    51    64    61   am
    52    64    65    1
    53   111   110    2
    54    97    96    2
    55    98    99    1
    56    98    95    1
    57    67    66    2
    58    96    95    1
    59    68    65    1
    60    85    89   am
    61    61    62    2
    62    31    30    1
    63    23    21    1
    64    66    65    1
    65    83    77   am
    66    22    21    1
    67    95    94    1
    68    89    90    1
    69    21    18    1
    70    32    30    1
    71    35    36    2
    72    35    34    1
    73    30    29    1
    74    90    91    1
    75    90    93    1
    76    78    77    2
    77    77    76    1
    78    92    91    2
    79    79    76    1
    80    79    80    1
    81     8     6    1
    82    18    19    1
    83    18    17    1
    84    37    34    1
    85    37    38    1
    86    34    33    1
    87    29    26    1
    88    76    75    1
    89    19    20    2
    90    82    80   ar
    91     6     5    1
    92     7     5    1
    93    80    81   ar
    94    38    39   ar
    95    38    40   ar
    96     5     2    1
    97    26    25    1
    98    26    27    1
    99     2     3    1
   100     2     1    1
   101     4     3    2
   102    27    28    2
   103    16    14   am
   104    14    13    1
   105    14    15    2
   106    13    10    1
   107     9    10    1
   108    10    11    1
   109    11    12    2
