@<TRIPOS>MOLECULE
tmp/5dirA06.pdb
 93 90 0 0 0
SMALL
GASTEIGER

@<TRIPOS>ATOM
      1  N        -31.4160   -4.3470   10.2210 N.3    21  LEU21      -0.1245
      2  CA       -31.5540   -3.6110    8.9680 C.3    21  LEU21       0.1561
      3  C        -32.3590   -2.3330    9.1710 C.2    21  LEU21       0.2260
      4  O        -32.0710   -1.3080    8.5590 O.2    21  LEU21      -0.2867
      5  CB       -32.2090   -4.4770    7.8940 C.3    21  LEU21       0.0270
      6  CG       -31.3650   -5.6530    7.4070 C.3    21  LEU21       0.0019
      7  CD1      -32.1200   -6.4460    6.3490 C.3    21  LEU21       0.0001
      8  CD2      -30.0110   -5.1820    6.8850 C.3    21  LEU21       0.0001
      9  N        -29.8720    0.1030   11.0640 N.3    24  VAL24      -0.1231
     10  CA       -28.8210    0.5770   10.1670 C.3    24  VAL24       0.1692
     11  C        -29.3960    1.6040    9.1960 C.2    24  VAL24       0.2592
     12  O        -28.7840    2.6450    8.9310 O.2    24  VAL24      -0.2718
     13  CB       -28.1750   -0.5730    9.3750 C.3    24  VAL24       0.0266
     14  CG1      -27.1410   -0.0260    8.4270 C.3    24  VAL24       0.0020
     15  CG2      -27.5030   -1.5420   10.3140 C.3    24  VAL24       0.0020
     16  N        -30.5810    1.2960    8.6760 N.am   25  SER25      -0.1952
     17  CA       -31.3130    2.2010    7.7980 C.3    25  SER25       0.1924
     18  C        -31.4750    3.5840    8.4120 C.2    25  SER25       0.2314
     19  O        -31.0300    4.5860    7.8540 O.2    25  SER25      -0.2863
     20  CB       -32.6940    1.6300    7.4940 C.3    25  SER25       0.2116
     21  OG       -32.5970    0.3970    6.8160 O.3    25  SER25      -0.2180
     22  N        -28.3210    5.6420    9.1410 N.3    28  PHE28      -0.1227
     23  CA       -27.7660    6.2270    7.9310 C.3    28  PHE28       0.1736
     24  C        -28.4090    7.5630    7.6060 C.2    28  PHE28       0.2595
     25  O        -27.7180    8.5620    7.4050 O.2    28  PHE28      -0.2718
     26  CB       -27.9290    5.2780    6.7420 C.3    28  PHE28       0.0547
     27  CG       -27.4860    5.8730    5.4370 C.ar   28  PHE28      -0.0202
     28  CD1      -26.1460    5.8940    5.0900 C.ar   28  PHE28      -0.0042
     29  CD2      -28.4080    6.4090    4.5540 C.ar   28  PHE28      -0.0042
     30  CE1      -25.7320    6.4450    3.8930 C.ar   28  PHE28      -0.0003
     31  CE2      -27.9990    6.9590    3.3520 C.ar   28  PHE28      -0.0003
     32  CZ       -26.6580    6.9760    3.0230 C.ar   28  PHE28      -0.0000
     33  N        -29.7340    7.5780    7.5490 N.am   29  PHE29      -0.1976
     34  CA       -30.4450    8.7770    7.1470 C.3    29  PHE29       0.1639
     35  C        -30.4380    9.8400    8.2480 C.2    29  PHE29       0.2290
     36  O        -30.5740   11.0270    7.9630 O.2    29  PHE29      -0.2864
     37  CB       -31.8690    8.4190    6.7290 C.3    29  PHE29       0.0560
     38  CG       -31.9310    7.6460    5.4430 C.ar   29  PHE29      -0.0200
     39  CD1      -31.7990    8.2900    4.2230 C.ar   29  PHE29      -0.0042
     40  CD2      -32.1040    6.2700    5.4540 C.ar   29  PHE29      -0.0042
     41  CE1      -31.8450    7.5770    3.0390 C.ar   29  PHE29      -0.0003
     42  CE2      -32.1540    5.5510    4.2720 C.ar   29  PHE29      -0.0003
     43  CZ       -32.0260    6.2050    3.0630 C.ar   29  PHE29      -0.0000
     44  N        -27.0700   11.3420    7.2270 N.3    32  GLU32      -0.1245
     45  CA       -26.9210   11.9220    5.9020 C.3    32  GLU32       0.1567
     46  C        -27.8820   13.0790    5.6400 C.2    32  GLU32       0.2260
     47  O        -27.6520   13.8960    4.7500 O.2    32  GLU32      -0.2867
     48  CB       -27.1230   10.8340    4.8390 C.3    32  GLU32       0.0388
     49  CG       -26.3150   11.0420    3.5690 C.3    32  GLU32       0.1160
     50  CD       -24.8240   10.8410    3.7850 C.2    32  GLU32       0.3649
     51  OE1      -24.4480   10.2380    4.8150 O.co2  32  GLU32      -0.2457
     52  OE2      -24.0290   11.2870    2.9280 O.co2  32  GLU32      -0.2457
     53  N        -34.0930   13.5670   -0.4390 N.3    39  ILE39      -0.1245
     54  CA       -33.2710   13.1680   -1.5700 C.3    39  ILE39       0.1561
     55  C        -34.1400   12.4960   -2.6240 C.2    39  ILE39       0.2260
     56  O        -34.6860   11.4170   -2.4090 O.2    39  ILE39      -0.2867
     57  CB       -32.1600   12.1930   -1.1550 C.3    39  ILE39       0.0252
     58  CG1      -31.1630   12.8750   -0.2180 C.3    39  ILE39       0.0019
     59  CG2      -31.4560   11.6400   -2.3840 C.3    39  ILE39       0.0019
     60  CD1      -30.1540   11.9140    0.3730 C.3    39  ILE39       0.0001
     61  N        -36.1000    9.8150   -0.6520 N.3    48  TRP48      -0.1241
     62  CA       -35.6610    9.5620    0.7150 C.3    48  TRP48       0.1605
     63  C        -35.9450   10.8230    1.5080 C.2    48  TRP48       0.2264
     64  O        -35.9860   11.9080    0.9430 O.2    48  TRP48      -0.2867
     65  CB       -34.1730    9.2170    0.8080 C.3    48  TRP48       0.0550
     66  CG       -33.7130    8.0770   -0.0410 C.ar   48  TRP48       0.0003
     67  CD1      -32.8660    8.1430   -1.1050 C.ar   48  TRP48       0.0946
     68  CD2      -34.0660    6.6950    0.1080 C.ar   48  TRP48       0.0152
     69  NE1      -32.6670    6.8890   -1.6280 N.ar   48  TRP48      -0.2442
     70  CE2      -33.3940    5.9830   -0.9040 C.ar   48  TRP48       0.0810
     71  CE3      -34.8840    5.9910    0.9990 C.ar   48  TRP48       0.0012
     72  CZ2      -33.5140    4.6030   -1.0520 C.ar   48  TRP48       0.0191
     73  CZ3      -35.0030    4.6230    0.8490 C.ar   48  TRP48       0.0001
     74  CH2      -34.3210    3.9430   -0.1700 C.ar   48  TRP48       0.0015
     75  N        -37.8590    7.5650    6.9410 N.3   124  PHE124     -0.1241
     76  CA       -37.0670    8.0290    5.8040 C.3   124  PHE124      0.1605
     77  C        -37.6400    7.7360    4.4120 C.2   124  PHE124      0.2264
     78  O        -37.1400    8.2660    3.4230 O.2   124  PHE124     -0.2867
     79  CB       -35.6440    7.4620    5.9000 C.3   124  PHE124      0.0534
     80  CG       -35.5850    5.9770    6.1200 C.ar  124  PHE124     -0.0203
     81  CD1      -35.5740    5.1030    5.0450 C.ar  124  PHE124     -0.0042
     82  CD2      -35.5220    5.4550    7.4020 C.ar  124  PHE124     -0.0042
     83  CE1      -35.5080    3.7380    5.2460 C.ar  124  PHE124     -0.0003
     84  CE2      -35.4590    4.0890    7.6070 C.ar  124  PHE124     -0.0003
     85  CZ       -35.4540    3.2320    6.5250 C.ar  124  PHE124     -0.0000
     86  N        -38.2990    0.6810    7.3660 N.3   140  LEU140     -0.1245
     87  CA       -38.3030   -0.7660    7.1500 C.3   140  LEU140      0.1561
     88  C        -39.1120   -1.5040    8.2090 C.2   140  LEU140      0.2260
     89  O        -39.7680   -2.5000    7.8980 O.2   140  LEU140     -0.2867
     90  CB       -36.8820   -1.3320    7.0850 C.3   140  LEU140      0.0270
     91  CG       -36.2350   -1.3550    5.6970 C.3   140  LEU140      0.0019
     92  CD1      -36.1360    0.0290    5.0730 C.3   140  LEU140      0.0001
     93  CD2      -34.8710   -2.0040    5.7750 C.3   140  LEU140      0.0001
@<TRIPOS>BOND
     1    55    56    2
     2    55    54    1
     3    59    57    1
     4    69    67   ar
     5    69    70   ar
     6    54    57    1
     7    54    53    1
     8    57    58    1
     9    67    66   ar
    10    72    70   ar
    11    72    74   ar
    12    70    68   ar
    13    61    62    1
    14    58    60    1
    15    74    73   ar
    16    66    68   ar
    17    66    65    1
    18    68    71   ar
    19    62    65    1
    20    62    63    1
    21    73    71   ar
    22    64    63    2
    23    52    50   ar
    24    32    31   ar
    25    32    30   ar
    26    41    43   ar
    27    41    39   ar
    28    43    42   ar
    29    31    29   ar
    30    78    77    2
    31    49    50    1
    32    49    48    1
    33    50    51   ar
    34    30    28   ar
    35    39    38   ar
    36    42    40   ar
    37    77    76    1
    38    29    27   ar
    39    47    46    2
    40    48    45    1
    41    81    83   ar
    42    81    80   ar
    43    92    91    1
    44    28    27   ar
    45    83    85   ar
    46    27    26    1
    47    38    40   ar
    48    38    37    1
    49    46    45    1
    50    91    93    1
    51    91    90    1
    52    76    79    1
    53    76    75    1
    54    79    80    1
    55    45    44    1
    56    80    82   ar
    57     7     6    1
    58    85    84   ar
    59    37    34    1
    60    26    23    1
    61    21    20    1
    62     8     6    1
    63    90    87    1
    64    34    33    1
    65    34    35    1
    66    87    86    1
    67    87    88    1
    68    82    84   ar
    69    25    24    2
    70     6     5    1
    71    20    17    1
    72    33    24   am
    73    24    23    1
    74    17    18    1
    75    17    16    1
    76    19    18    2
    77     5     2    1
    78    89    88    2
    79    23    22    1
    80    36    35    2
    81    14    13    1
    82     4     3    2
    83    16    11   am
    84    12    11    2
    85     2     3    1
    86     2     1    1
    87    11    10    1
    88    13    10    1
    89    13    15    1
    90    10     9    1
