@<TRIPOS>MOLECULE
tmp/5dirC06.pdb
 71 65 0 0 0
SMALL
GASTEIGER

@<TRIPOS>ATOM
      1  N        -52.0240   21.6330   23.9040 N.3    48  ALA48      -0.1231
      2  CA       -53.4280   21.6900   24.2570 C.3    48  ALA48       0.1694
      3  C        -54.2750   21.8760   23.0120 C.2    48  ALA48       0.2592
      4  O        -55.4850   21.6930   23.0530 O.2    48  ALA48      -0.2718
      5  CB       -53.6790   22.8190   25.2500 C.3    48  ALA48       0.0304
      6  N        -53.6360   22.2550   21.9100 N.am   49  PHE49      -0.1976
      7  CA       -54.3380   22.4040   20.6430 C.3    49  PHE49       0.1639
      8  C        -53.8490   21.3670   19.6300 C.2    49  PHE49       0.2290
      9  O        -54.0480   21.5360   18.4310 O.2    49  PHE49      -0.2864
     10  CB       -54.1240   23.8030   20.0600 C.3    49  PHE49       0.0560
     11  CG       -54.6840   24.9150   20.8970 C.ar   49  PHE49      -0.0200
     12  CD1      -56.0260   25.2540   20.8370 C.ar   49  PHE49      -0.0042
     13  CD2      -53.8450   25.6620   21.7110 C.ar   49  PHE49      -0.0042
     14  CE1      -56.5250   26.3010   21.6010 C.ar   49  PHE49      -0.0003
     15  CE2      -54.3310   26.7050   22.4710 C.ar   49  PHE49      -0.0003
     16  CZ       -55.6750   27.0250   22.4180 C.ar   49  PHE49      -0.0000
     17  N        -50.9310   40.6820   15.8450 N.3    70  VAL70      -0.1245
     18  CA       -51.5160   41.3730   16.9930 C.3    70  VAL70       0.1561
     19  C        -50.5770   42.4280   17.5830 C.2    70  VAL70       0.2260
     20  O        -51.0210   43.5080   17.9820 O.2    70  VAL70      -0.2867
     21  CB       -51.9060   40.3690   18.1080 C.3    70  VAL70       0.0252
     22  CG1      -52.2840   41.0920   19.3880 C.3    70  VAL70       0.0019
     23  CG2      -53.0420   39.4670   17.6450 C.3    70  VAL70       0.0019
     24  N        -49.3600   43.9700   27.4010 N.3    95  VAL95      -0.1245
     25  CA       -49.7970   42.9220   26.4860 C.3    95  VAL95       0.1561
     26  C        -48.8150   42.7830   25.3320 C.2    95  VAL95       0.2260
     27  O        -48.4880   41.6700   24.9180 O.2    95  VAL95      -0.2867
     28  CB       -51.2240   43.2020   25.9320 C.3    95  VAL95       0.0252
     29  CG1      -51.6080   42.1920   24.8560 C.3    95  VAL95       0.0019
     30  CG2      -52.2510   43.2030   27.0610 C.3    95  VAL95       0.0019
     31  N        -52.0580   25.2760   34.3500 N.3   127  PRO127     -0.2116
     32  CA       -51.0090   25.2310   33.3280 C.3   127  PRO127      0.1372
     33  C        -49.8740   26.1830   33.6670 C.2   127  PRO127      0.2244
     34  O        -50.1220   27.3170   34.0720 O.2   127  PRO127     -0.2868
     35  CB       -51.7420   25.6540   32.0500 C.3   127  PRO127      0.0268
     36  CG       -53.0000   26.3260   32.5210 C.3   127  PRO127      0.0207
     37  CD       -53.3700   25.5910   33.7660 C.3   127  PRO127      0.0892
     38  N        -49.5220   39.7920   29.9170 N.3   136  ILE136     -0.1245
     39  CA       -50.6690   39.6530   29.0230 C.3   136  ILE136      0.1561
     40  C        -51.9760   39.5800   29.8090 C.2   136  ILE136      0.2260
     41  O        -52.9490   40.2590   29.4770 O.2   136  ILE136     -0.2867
     42  CB       -50.5340   38.4010   28.1330 C.3   136  ILE136      0.0252
     43  CG1      -49.4100   38.5930   27.1180 C.3   136  ILE136      0.0019
     44  CG2      -51.8360   38.1120   27.4050 C.3   136  ILE136      0.0019
     45  CD1      -49.0090   37.3200   26.4150 C.3   136  ILE136      0.0001
     46  N        -54.7640   42.4020   29.8430 N.3   140  ALA140     -0.1245
     47  CA       -56.0790   42.0540   29.3140 C.3   140  ALA140      0.1562
     48  C        -57.1730   42.4730   30.2880 C.2   140  ALA140      0.2260
     49  O        -58.2250   42.9700   29.8860 O.2   140  ALA140     -0.2867
     50  CB       -56.1600   40.5670   29.0280 C.3   140  ALA140      0.0290
     51  N        -57.6850   46.3890   30.1990 N.3   143  LEU143     -0.1231
     52  CA       -58.5630   46.8440   29.1150 C.3   143  LEU143      0.1693
     53  C        -60.0310   46.6330   29.4760 C.2   143  LEU143      0.2591
     54  O        -60.8810   47.4750   29.1880 O.2   143  LEU143     -0.2718
     55  CB       -58.2750   46.1300   27.7910 C.3   143  LEU143      0.0284
     56  CG       -57.1550   46.5800   26.8500 C.3   143  LEU143      0.0019
     57  CD1      -55.7980   46.1330   27.3230 C.3   143  LEU143      0.0001
     58  CD2      -57.4250   46.0650   25.4470 C.3   143  LEU143      0.0001
     59  N        -60.3250   45.4970   30.0990 N.am  144  ALA144     -0.1980
     60  CA       -61.6950   45.1660   30.4630 C.3   144  ALA144      0.1597
     61  C        -62.2140   46.1210   31.5330 C.2   144  ALA144      0.2287
     62  O        -63.4170   46.3540   31.6350 O.2   144  ALA144     -0.2864
     63  CB       -61.7820   43.7270   30.9460 C.3   144  ALA144      0.0319
     64  N        -63.8100   50.0160   30.7590 N.3   147  MET147     -0.1245
     65  CA       -65.2230   50.2630   30.4860 C.3   147  MET147      0.1570
     66  C        -65.9650   50.7620   31.7280 C.2   147  MET147      0.2261
     67  O        -67.1920   50.6770   31.8040 O.2   147  MET147     -0.2867
     68  CB       -65.9010   48.9870   29.9850 C.3   147  MET147      0.0387
     69  CG       -65.4080   48.4610   28.6500 C.3   147  MET147      0.0595
     70  SD       -66.1150   46.8410   28.2540 S.3   147  MET147     -0.1393
     71  CE       -67.7000   46.9080   29.0950 C.3   147  MET147      0.0692
@<TRIPOS>BOND
     1    17    18    1
     2    18    19    1
     3    18    21    1
     4    19    20    2
     5    23    21    1
     6    21    22    1
     7     9     8    2
     8     8     7    1
     9    10     7    1
    10    10    11    1
    11     7     6    1
    12    12    11   ar
    13    12    14   ar
    14    11    13   ar
    15    14    16   ar
    16    13    15   ar
    17     6     3   am
    18    16    15   ar
    19     3     4    2
    20     3     2    1
    21     1     2    1
    22     2     5    1
    23    29    28    1
    24    27    26    2
    25    26    25    1
    26    58    56    1
    27    28    25    1
    28    28    30    1
    29    45    43    1
    30    25    24    1
    31    56    57    1
    32    56    55    1
    33    43    42    1
    34    44    42    1
    35    55    52    1
    36    42    39    1
    37    70    69    1
    38    70    71    1
    39    69    68    1
    40    39    40    1
    41    39    38    1
    42    50    47    1
    43    52    53    1
    44    52    51    1
    45    54    53    2
    46    47    46    1
    47    47    48    1
    48    53    59   am
    49    41    40    2
    50    49    48    2
    51    68    65    1
    52    59    60    1
    53    60    63    1
    54    60    61    1
    55    65    64    1
    56    65    66    1
    57    61    62    2
    58    66    67    2
    59    35    36    1
    60    35    32    1
    61    36    37    1
    62    32    33    1
    63    32    31    1
    64    33    34    2
    65    37    31    1
