@<TRIPOS>MOLECULE
tmp/5dirA09.pdb
 97 95 0 0 0
SMALL
GASTEIGER

@<TRIPOS>ATOM
      1  N        -29.6680  -29.6450   15.9840 N.3     2  ASP2       -0.1225
      2  CA       -29.9380  -28.5300   16.8810 C.3     2  ASP2        0.1805
      3  C        -31.3030  -27.9270   16.5880 C.2     2  ASP2        0.2597
      4  O        -31.9080  -27.2940   17.4520 O.2     2  ASP2       -0.2718
      5  CB       -28.8520  -27.4590   16.7570 C.3     2  ASP2        0.1424
      6  CG       -27.4740  -27.9710   17.1360 C.2     2  ASP2        0.3668
      7  OD1      -27.3900  -29.0030   17.8380 O.co2   2  ASP2       -0.2456
      8  OD2      -26.4700  -27.3410   16.7340 O.co2   2  ASP2       -0.2456
      9  N        -31.7900  -28.1450   15.3690 N.am    3  VAL3       -0.1980
     10  CA       -33.0830  -27.6210   14.9330 C.3     3  VAL3        0.1595
     11  C        -34.2340  -28.0850   15.8330 C.2     3  VAL3        0.2287
     12  O        -35.2690  -27.4250   15.9200 O.2     3  VAL3       -0.2864
     13  CB       -33.3820  -28.0320   13.4590 C.3     3  VAL3        0.0276
     14  CG1      -33.5850  -29.5390   13.3360 C.3     3  VAL3        0.0022
     15  CG2      -34.5890  -27.2870   12.9130 C.3     3  VAL3        0.0022
     16  N        -34.4780  -26.2750   19.9870 N.3     6  PHE6       -0.1241
     17  CA       -34.9000  -24.8930   20.2100 C.3     6  PHE6        0.1605
     18  C        -36.2720  -24.6130   19.6040 C.2     6  PHE6        0.2264
     19  O        -36.7850  -23.5010   19.7120 O.2     6  PHE6       -0.2867
     20  CB       -33.8840  -23.9050   19.6410 C.3     6  PHE6        0.0534
     21  CG       -32.5210  -24.0250   20.2440 C.ar    6  PHE6       -0.0203
     22  CD1      -32.2480  -23.4600   21.4770 C.ar    6  PHE6       -0.0042
     23  CD2      -31.5080  -24.6890   19.5750 C.ar    6  PHE6       -0.0042
     24  CE1      -30.9920  -23.5650   22.0390 C.ar    6  PHE6       -0.0003
     25  CE2      -30.2510  -24.7980   20.1300 C.ar    6  PHE6       -0.0003
     26  CZ       -29.9910  -24.2350   21.3640 C.ar    6  PHE6       -0.0000
     27  N        -37.9370  -21.1590   17.9990 N.3     9  LEU9       -0.1231
     28  CA       -37.1050  -20.0240   18.4030 C.3     9  LEU9        0.1678
     29  C        -36.1250  -19.4800   17.3530 C.2     9  LEU9        0.2434
     30  O        -35.9460  -18.2650   17.2700 O.2     9  LEU9       -0.2733
     31  CB       -36.3110  -20.3860   19.6620 C.3     9  LEU9        0.0284
     32  CG       -36.8990  -19.9440   21.0000 C.3     9  LEU9        0.0019
     33  CD1      -38.3490  -20.3580   21.1130 C.3     9  LEU9        0.0001
     34  CD2      -36.0870  -20.5270   22.1460 C.3     9  LEU9        0.0001
     35  N        -35.4670  -20.3560   16.5650 N.am   10  PRO10      -0.2729
     36  CA       -34.5210  -19.7650   15.6080 C.3    10  PRO10       0.1401
     37  C        -35.1520  -18.8990   14.5130 C.2    10  PRO10       0.2269
     38  O        -34.4120  -18.2410   13.7830 O.2    10  PRO10      -0.2865
     39  CB       -33.8260  -20.9910   15.0070 C.3    10  PRO10       0.0296
     40  CG       -34.7720  -22.1100   15.2230 C.3    10  PRO10       0.0237
     41  CD       -35.4100  -21.8280   16.5390 C.3    10  PRO10       0.0939
     42  N        -36.4730  -16.3170   15.1960 N.3    12  LEU12      -0.1231
     43  CA       -36.2780  -14.9770   15.7260 C.3    12  LEU12       0.1693
     44  C        -35.0390  -14.3430   15.1140 C.2    12  LEU12       0.2592
     45  O        -34.7920  -13.1520   15.2980 O.2    12  LEU12      -0.2718
     46  CB       -36.1520  -15.0090   17.2540 C.3    12  LEU12       0.0284
     47  CG       -37.3630  -15.4780   18.0650 C.3    12  LEU12       0.0019
     48  CD1      -37.0220  -15.5430   19.5450 C.3    12  LEU12       0.0001
     49  CD2      -38.5540  -14.5670   17.8310 C.3    12  LEU12       0.0001
     50  N        -34.2750  -15.1310   14.3630 N.am   13  TRP13      -0.1976
     51  CA       -33.1240  -14.5830   13.6670 C.3    13  TRP13       0.1640
     52  C        -33.6130  -13.7070   12.5280 C.2    13  TRP13       0.2290
     53  O        -32.9230  -12.7810   12.1000 O.2    13  TRP13      -0.2864
     54  CB       -32.1920  -15.6880   13.1720 C.3    13  TRP13       0.0576
     55  CG       -31.3830  -16.2890   14.2770 C.ar   13  TRP13       0.0006
     56  CD1      -31.4380  -17.5720   14.7320 C.ar   13  TRP13       0.0946
     57  CD2      -30.4060  -15.6160   15.0860 C.ar   13  TRP13       0.0152
     58  NE1      -30.5480  -17.7450   15.7700 N.ar   13  TRP13      -0.2442
     59  CE2      -29.9030  -16.5590   16.0060 C.ar   13  TRP13       0.0810
     60  CE3      -29.9060  -14.3090   15.1190 C.ar   13  TRP13       0.0012
     61  CZ2      -28.9250  -16.2390   16.9460 C.ar   13  TRP13       0.0191
     62  CZ3      -28.9340  -13.9920   16.0540 C.ar   13  TRP13       0.0001
     63  CH2      -28.4550  -14.9550   16.9560 C.ar   13  TRP13       0.0015
     64  N        -34.3860  -10.5300   14.4480 N.3    16  VAL16      -0.1245
     65  CA       -33.1350   -9.8150   14.6630 C.3    16  VAL16       0.1561
     66  C        -32.6630   -9.1600   13.3660 C.2    16  VAL16       0.2260
     67  O        -32.2670   -7.9920   13.3560 O.2    16  VAL16      -0.2867
     68  CB       -32.0370  -10.7480   15.2070 C.3    16  VAL16       0.0252
     69  CG1      -30.6910  -10.0440   15.2430 C.3    16  VAL16       0.0019
     70  CG2      -32.4270  -11.2710   16.5820 C.3    16  VAL16       0.0019
     71  N        -34.7270   -6.1530   12.6900 N.3    19  PHE19      -0.1227
     72  CA       -34.3720   -5.1130   13.6480 C.3    19  PHE19       0.1736
     73  C        -33.0980   -4.3870   13.2300 C.2    19  PHE19       0.2595
     74  O        -33.0650   -3.1610   13.1700 O.2    19  PHE19      -0.2718
     75  CB       -34.2060   -5.7090   15.0480 C.3    19  PHE19       0.0547
     76  CG       -33.7600   -4.7170   16.0730 C.ar   19  PHE19      -0.0202
     77  CD1      -34.6810   -3.8970   16.7050 C.ar   19  PHE19      -0.0042
     78  CD2      -32.4220   -4.6010   16.4080 C.ar   19  PHE19      -0.0042
     79  CE1      -34.2740   -2.9780   17.6460 C.ar   19  PHE19      -0.0003
     80  CE2      -32.0090   -3.6810   17.3500 C.ar   19  PHE19      -0.0003
     81  CZ       -32.9360   -2.8690   17.9690 C.ar   19  PHE19      -0.0000
     82  N        -32.0590   -5.1590   12.9310 N.am   20  VAL20      -0.1980
     83  CA       -30.7620   -4.6100   12.5570 C.3    20  VAL20       0.1595
     84  C        -30.8280   -3.7840   11.2720 C.2    20  VAL20       0.2287
     85  O        -30.3490   -2.6500   11.2350 O.2    20  VAL20      -0.2864
     86  CB       -29.7250   -5.7290   12.3710 C.3    20  VAL20       0.0276
     87  CG1      -28.4530   -5.1790   11.7600 C.3    20  VAL20       0.0022
     88  CG2      -29.4450   -6.4160   13.6970 C.3    20  VAL20       0.0022
     89  N        -32.4450   -0.5560   11.9590 N.3    23  GLN23      -0.1245
     90  CA       -31.6300    0.3740   12.7290 C.3    23  GLN23       0.1566
     91  C        -30.4540    0.9250   11.9330 C.2    23  GLN23       0.2260
     92  O        -30.0870    2.0870   12.0980 O.2    23  GLN23      -0.2867
     93  CB       -31.1350   -0.3120   14.0000 C.3    23  GLN23       0.0367
     94  CG       -32.2660   -0.6330   14.9500 C.3    23  GLN23       0.0905
     95  CD       -32.9180    0.6210   15.5060 C.2    23  GLN23       0.2608
     96  OE1      -32.3430    1.7080   15.4510 O.2    23  GLN23      -0.2717
     97  NE2      -34.1420    0.4850   15.9970 N.am   23  GLN23      -0.0878
@<TRIPOS>BOND
     1    85    84    2
     2    84    83    1
     3    87    86    1
     4    91    92    2
     5    91    90    1
     6    89    90    1
     7    53    52    2
     8    86    83    1
     9    86    88    1
    10    52    51    1
    11    83    82    1
    12    71    72    1
    13    90    93    1
    14    15    13    1
    15    82    73   am
    16    74    73    2
    17    54    51    1
    18    54    55    1
    19    73    72    1
    20    14    13    1
    21    67    66    2
    22    66    65    1
    23    13    10    1
    24    72    75    1
    25    51    50    1
    26    38    37    2
    27    93    94    1
    28    55    56   ar
    29    55    57   ar
    30    50    44   am
    31    64    65    1
    32    37    36    1
    33    65    68    1
    34    56    58   ar
    35    10     9    1
    36    10    11    1
    37    94    95    1
    38    39    40    1
    39    39    36    1
    40    75    76    1
    41    57    60   ar
    42    57    59   ar
    43    44    45    2
    44    44    43    1
    45    60    62   ar
    46    42    43    1
    47    68    69    1
    48    68    70    1
    49    40    41    1
    50     9     3   am
    51    96    95    2
    52    95    97   am
    53    36    35    1
    54    43    46    1
    55    58    59   ar
    56    11    12    2
    57     1     2    1
    58    59    61   ar
    59    62    63   ar
    60    76    78   ar
    61    76    77   ar
    62    78    80   ar
    63    41    35    1
    64    35    29   am
    65     3     2    1
    66     3     4    2
    67    77    79   ar
    68     8     6   ar
    69     5     2    1
    70     5     6    1
    71    61    63   ar
    72     6     7   ar
    73    46    47    1
    74    30    29    2
    75    80    81   ar
    76    29    28    1
    77    79    81   ar
    78    49    47    1
    79    27    28    1
    80    47    48    1
    81    28    31    1
    82    23    25   ar
    83    23    21   ar
    84    18    19    2
    85    18    17    1
    86    20    17    1
    87    20    21    1
    88    31    32    1
    89    16    17    1
    90    25    26   ar
    91    21    22   ar
    92    32    33    1
    93    32    34    1
    94    26    24   ar
    95    22    24   ar
