@<TRIPOS>MOLECULE
tmp/5dirA04.pdb
 103 97 0 0 0
SMALL
GASTEIGER

@<TRIPOS>ATOM
      1  N        -41.3150   10.8040   13.9980 N.3    53  ASN53      -0.1240
      2  CA       -42.7180   10.5320   14.2630 C.3    53  ASN53       0.1653
      3  C        -43.0270   10.4020   15.7570 C.2    53  ASN53       0.2266
      4  O        -42.8110    9.3510   16.3550 O.2    53  ASN53      -0.2867
      5  CB       -43.1460    9.2690   13.5100 C.3    53  ASN53       0.1155
      6  CG       -44.6530    9.1250   13.4130 C.2    53  ASN53       0.2627
      7  OD1      -45.3950    9.5790   14.2820 O.2    53  ASN53      -0.2716
      8  ND2      -45.1130    8.5130   12.3300 N.am   53  ASN53      -0.0877
      9  N        -45.9260   10.6600   16.6870 N.3    55  GLY55      -0.1225
     10  CA       -47.3040   10.2050   16.5790 C.3    55  GLY55       0.1811
     11  C        -48.3230   11.3080   16.7950 C.2    55  GLY55       0.2280
     12  O        -48.9620   11.3800   17.8390 O.2    55  GLY55      -0.2866
     13  N        -50.8180   11.6070   14.7540 N.3    57  ALA57      -0.1231
     14  CA       -52.0070   11.0750   14.1110 C.3    57  ALA57       0.1694
     15  C        -53.0460   10.7220   15.1550 C.2    57  ALA57       0.2592
     16  O        -54.2450   10.6920   14.8810 O.2    57  ALA57      -0.2718
     17  CB       -51.6560    9.8560   13.2830 C.3    57  ALA57       0.0304
     18  N        -52.5690   10.4570   16.3630 N.am   58  PHE58      -0.1976
     19  CA       -53.4500   10.1090   17.4610 C.3    58  PHE58       0.1639
     20  C        -53.4670   11.2080   18.5230 C.2    58  PHE58       0.2290
     21  O        -53.7960   10.9640   19.6820 O.2    58  PHE58      -0.2864
     22  CB       -53.0280    8.7590   18.0460 C.3    58  PHE58       0.0560
     23  CG       -53.2190    7.6080   17.0910 C.ar   58  PHE58      -0.0200
     24  CD1      -54.4610    7.0070   16.9510 C.ar   58  PHE58      -0.0042
     25  CD2      -52.1650    7.1400   16.3210 C.ar   58  PHE58      -0.0042
     26  CE1      -54.6470    5.9530   16.0720 C.ar   58  PHE58      -0.0003
     27  CE2      -52.3490    6.0860   15.4380 C.ar   58  PHE58      -0.0003
     28  CZ       -53.5910    5.4920   15.3150 C.ar   58  PHE58      -0.0000
     29  N        -56.6780   12.2940   20.7980 N.3    61  LEU61      -0.1245
     30  CA       -57.0750   11.5950   22.0200 C.3    61  LEU61       0.1561
     31  C        -56.6940   12.2720   23.3410 C.2    61  LEU61       0.2260
     32  O        -57.0180   11.7480   24.4110 O.2    61  LEU61      -0.2867
     33  CB       -56.4790   10.1880   22.0190 C.3    61  LEU61       0.0270
     34  CG       -56.9570    9.2090   20.9500 C.3    61  LEU61       0.0019
     35  CD1      -56.1210    7.9480   20.9930 C.3    61  LEU61       0.0001
     36  CD2      -58.4180    8.8720   21.1950 C.3    61  LEU61       0.0001
     37  N        -47.2800   11.4890   25.2120 N.3    67  TRP67      -0.1241
     38  CA       -47.7380   10.2340   25.8060 C.3    67  TRP67       0.1605
     39  C        -47.6560    9.0840   24.8060 C.2    67  TRP67       0.2264
     40  O        -47.5590    7.9220   25.1950 O.2    67  TRP67      -0.2867
     41  CB       -49.1690   10.3750   26.3280 C.3    67  TRP67       0.0550
     42  CG       -50.1030   10.9340   25.3060 C.ar   67  TRP67       0.0003
     43  CD1      -50.4230   12.2460   25.1210 C.ar   67  TRP67       0.0946
     44  CD2      -50.8020   10.2030   24.2890 C.ar   67  TRP67       0.0152
     45  NE1      -51.2980   12.3770   24.0670 N.ar   67  TRP67      -0.2442
     46  CE2      -51.5460   11.1380   23.5400 C.ar   67  TRP67       0.0810
     47  CE3      -50.8790    8.8480   23.9470 C.ar   67  TRP67       0.0012
     48  CZ2      -52.3570   10.7640   22.4760 C.ar   67  TRP67       0.0191
     49  CZ3      -51.6810    8.4790   22.8860 C.ar   67  TRP67       0.0001
     50  CH2      -52.4100    9.4340   22.1630 C.ar   67  TRP67       0.0015
     51  N        -47.2520    5.1650   25.6520 N.3    71  LEU71      -0.1231
     52  CA       -48.3950    4.3040   25.3720 C.3    71  LEU71       0.1693
     53  C        -48.1050    3.3000   24.2600 C.2    71  LEU71       0.2592
     54  O        -48.4130    2.1140   24.3770 O.2    71  LEU71      -0.2718
     55  CB       -49.6230    5.1360   25.0110 C.3    71  LEU71       0.0284
     56  CG       -50.8460    4.3090   24.5990 C.3    71  LEU71       0.0019
     57  CD1      -51.2820    3.3780   25.7240 C.3    71  LEU71       0.0001
     58  CD2      -51.9940    5.2150   24.1780 C.3    71  LEU71       0.0001
     59  N        -47.5000    3.7910   23.1860 N.am   72  PHE72      -0.1976
     60  CA       -47.1740    2.9700   22.0270 C.3    72  PHE72       0.1639
     61  C        -46.0150    2.0230   22.3060 C.2    72  PHE72       0.2290
     62  O        -45.9520    0.9240   21.7590 O.2    72  PHE72      -0.2864
     63  CB       -46.8830    3.8720   20.8380 C.3    72  PHE72       0.0560
     64  CG       -48.0810    4.6470   20.3790 C.ar   72  PHE72      -0.0200
     65  CD1      -49.3610    4.2110   20.6980 C.ar   72  PHE72      -0.0042
     66  CD2      -47.9390    5.8220   19.6670 C.ar   72  PHE72      -0.0042
     67  CE1      -50.4710    4.9090   20.2850 C.ar   72  PHE72      -0.0003
     68  CE2      -49.0520    6.5310   19.2580 C.ar   72  PHE72      -0.0003
     69  CZ       -50.3170    6.0760   19.5680 C.ar   72  PHE72      -0.0000
     70  N        -47.7020   -0.7160   24.2740 N.3    75  ILE75      -0.1245
     71  CA       -48.4290   -1.6110   23.3800 C.3    75  ILE75       0.1561
     72  C        -47.4550   -2.5110   22.6220 C.2    75  ILE75       0.2260
     73  O        -47.7210   -3.6910   22.4170 O.2    75  ILE75      -0.2867
     74  CB       -49.2890   -0.8260   22.3630 C.3    75  ILE75       0.0252
     75  CG1      -50.3530    0.0070   23.0790 C.3    75  ILE75       0.0019
     76  CG2      -49.9300   -1.7660   21.3560 C.3    75  ILE75       0.0019
     77  CD1      -51.0430    1.0170   22.1800 C.3    75  ILE75       0.0001
     78  N        -47.6590   -6.4910   22.9310 N.3    79  VAL79      -0.1245
     79  CA       -47.9070   -7.2490   21.7100 C.3    79  VAL79       0.1561
     80  C        -46.7180   -8.1400   21.3650 C.2    79  VAL79       0.2260
     81  O        -46.8980   -9.2680   20.9100 O.2    79  VAL79      -0.2867
     82  CB       -48.2220   -6.3130   20.5210 C.3    79  VAL79       0.0252
     83  CG1      -48.2520   -7.0830   19.2110 C.3    79  VAL79       0.0019
     84  CG2      -49.5480   -5.5950   20.7540 C.3    79  VAL79       0.0019
     85  N        -38.7490    4.6060   20.2410 N.3   115  ARG115     -0.1245
     86  CA       -39.5670    5.3560   21.1880 C.3   115  ARG115      0.1563
     87  C        -38.9380    5.4040   22.5840 C.2   115  ARG115      0.2260
     88  O        -39.1350    6.3620   23.3260 O.2   115  ARG115     -0.2867
     89  CB       -40.9760    4.7680   21.2650 C.3   115  ARG115      0.0307
     90  CG       -41.8100    5.0360   20.0250 C.3   115  ARG115      0.0489
     91  CD       -43.2510    4.6020   20.2240 C.3   115  ARG115      0.2205
     92  NE       -44.0700    4.9020   19.0530 N.pl3 115  ARG115     -0.0865
     93  CZ       -44.2790    4.0460   18.0550 C.cat 115  ARG115      0.5346
     94  NH1      -43.7420    2.8340   18.0920 N.pl3 115  ARG115      0.1354
     95  NH2      -45.0330    4.3960   17.0240 N.pl3 115  ARG115      0.1354
     96  N        -43.6450   -4.9640    9.5600 N.3   145  ILE145     -0.1245
     97  CA       -44.9280   -5.0880   10.2420 C.3   145  ILE145      0.1561
     98  C        -46.0870   -5.2470    9.2640 C.2   145  ILE145      0.2260
     99  O        -46.9050   -6.1610    9.3910 O.2   145  ILE145     -0.2867
    100  CB       -45.1990   -3.8620   11.1380 C.3   145  ILE145      0.0252
    101  CG1      -44.2420   -3.8620   12.3330 C.3   145  ILE145      0.0019
    102  CG2      -46.6480   -3.8500   11.6170 C.3   145  ILE145      0.0019
    103  CD1      -44.2380   -2.5660   13.1190 C.3   145  ILE145      0.0001
@<TRIPOS>BOND
     1    98    99    2
     2    98    97    1
     3    96    97    1
     4    97   100    1
     5   100   102    1
     6   100   101    1
     7     8     6   am
     8   101   103    1
     9    17    14    1
    10     6     5    1
    11     6     7    2
    12     5     2    1
    13     1     2    1
    14    14    13    1
    15    14    15    1
    16     2     3    1
    17    16    15    2
    18    15    18   am
    19    28    27   ar
    20    28    26   ar
    21    27    25   ar
    22     3     4    2
    23    26    24   ar
    24    25    23   ar
    25    18    19    1
    26    10     9    1
    27    10    11    1
    28    11    12    2
    29    24    23   ar
    30    95    93    1
    31    23    22    1
    32    19    22    1
    33    19    20    1
    34    93    94    1
    35    93    92    2
    36    20    21    2
    37    92    91    1
    38    83    82    1
    39    68    69   ar
    40    68    66   ar
    41    69    67   ar
    42    66    64   ar
    43    90    91    1
    44    90    89    1
    45    85    86    1
    46    67    65   ar
    47    64    65   ar
    48    64    63    1
    49    82    84    1
    50    82    79    1
    51    29    30    1
    52    63    60    1
    53    81    80    2
    54    34    35    1
    55    34    36    1
    56    34    33    1
    57    86    89    1
    58    86    87    1
    59    76    74    1
    60    80    79    1
    61    79    78    1
    62    62    61    2
    63    33    30    1
    64    30    31    1
    65    60    61    1
    66    60    59    1
    67    50    48   ar
    68    50    49   ar
    69    77    75    1
    70    74    75    1
    71    74    71    1
    72    73    72    2
    73    48    46   ar
    74    87    88    2
    75    72    71    1
    76    49    47   ar
    77    59    53   am
    78    31    32    2
    79    71    70    1
    80    46    45   ar
    81    46    44   ar
    82    47    44   ar
    83    45    43   ar
    84    58    56    1
    85    53    54    2
    86    53    52    1
    87    44    42   ar
    88    56    55    1
    89    56    57    1
    90    39    40    2
    91    39    38    1
    92    55    52    1
    93    43    42   ar
    94    37    38    1
    95    42    41    1
    96    52    51    1
    97    38    41    1
