@<TRIPOS>MOLECULE
tmp/5dirA08.pdb
 126 120 0 0 0
SMALL
GASTEIGER

@<TRIPOS>ATOM
      1  N        -31.7900  -28.1450   15.3690 N.3     3  VAL3       -0.1245
      2  CA       -33.0830  -27.6210   14.9330 C.3     3  VAL3        0.1561
      3  C        -34.2340  -28.0850   15.8330 C.2     3  VAL3        0.2260
      4  O        -35.2690  -27.4250   15.9200 O.2     3  VAL3       -0.2867
      5  CB       -33.3820  -28.0320   13.4590 C.3     3  VAL3        0.0252
      6  CG1      -33.5850  -29.5390   13.3360 C.3     3  VAL3        0.0019
      7  CG2      -34.5890  -27.2870   12.9130 C.3     3  VAL3        0.0019
      8  N        -36.8670  -25.6190   18.9740 N.3     7  GLY7       -0.1210
      9  CA       -38.2230  -25.4900   18.4720 C.3     7  GLY7        0.1956
     10  C        -38.4170  -24.4860   17.3530 C.2     7  GLY7        0.2611
     11  O        -37.8930  -24.6570   16.2520 O.2     7  GLY7       -0.2717
     12  N        -39.1870  -23.4390   17.6340 N.am    8  ARG8       -0.1979
     13  CA       -39.4800  -22.4220   16.6310 C.3     8  ARG8        0.1597
     14  C        -38.6940  -21.1470   16.9050 C.2     8  ARG8        0.2287
     15  O        -38.7690  -20.1850   16.1410 O.2     8  ARG8       -0.2864
     16  CB       -40.9770  -22.1160   16.5960 C.3     8  ARG8        0.0334
     17  CG       -41.8560  -23.3460   16.6000 C.3     8  ARG8        0.0492
     18  CD       -41.6050  -24.2120   15.3790 C.3     8  ARG8        0.2205
     19  NE       -42.3050  -25.4900   15.4800 N.pl3   8  ARG8       -0.0865
     20  CZ       -41.7860  -26.5920   16.0120 C.cat   8  ARG8        0.5346
     21  NH1      -40.5510  -26.5820   16.4910 N.pl3   8  ARG8        0.1354
     22  NH2      -42.5030  -27.7080   16.0610 N.pl3   8  ARG8        0.1354
     23  N        -35.4670  -20.3560   16.5650 N.3    10  PRO10      -0.2102
     24  CA       -34.5210  -19.7650   15.6080 C.3    10  PRO10       0.1504
     25  C        -35.1520  -18.8990   14.5130 C.2    10  PRO10       0.2575
     26  O        -34.4120  -18.2410   13.7830 O.2    10  PRO10      -0.2718
     27  CB       -33.8260  -20.9910   15.0070 C.3    10  PRO10       0.0282
     28  CG       -34.7720  -22.1100   15.2230 C.3    10  PRO10       0.0208
     29  CD       -35.4100  -21.8280   16.5390 C.3    10  PRO10       0.0893
     30  N        -36.4780  -18.8710   14.4100 N.am   11  TRP11      -0.1977
     31  CA       -37.1250  -17.9320   13.4990 C.3    11  TRP11       0.1640
     32  C        -36.9290  -16.4890   13.9580 C.2    11  TRP11       0.2290
     33  O        -37.1660  -15.5430   13.1960 O.2    11  TRP11      -0.2864
     34  CB       -38.6240  -18.2130   13.3870 C.3    11  TRP11       0.0576
     35  CG       -38.9920  -19.4060   12.5630 C.ar   11  TRP11       0.0006
     36  CD1      -39.4750  -20.5980   13.0160 C.ar   11  TRP11       0.0946
     37  CD2      -38.9210  -19.5180   11.1350 C.ar   11  TRP11       0.0152
     38  NE1      -39.7080  -21.4450   11.9590 N.ar   11  TRP11      -0.2442
     39  CE2      -39.3750  -20.8070   10.7940 C.ar   11  TRP11       0.0810
     40  CE3      -38.5140  -18.6550   10.1150 C.ar   11  TRP11       0.0012
     41  CZ2      -39.4340  -21.2540    9.4750 C.ar   11  TRP11       0.0191
     42  CZ3      -38.5720  -19.0990    8.8060 C.ar   11  TRP11       0.0001
     43  CH2      -39.0290  -20.3880    8.4980 C.ar   11  TRP11       0.0015
     44  N        -34.2750  -15.1310   14.3630 N.3    13  TRP13      -0.1227
     45  CA       -33.1240  -14.5830   13.6670 C.3    13  TRP13       0.1737
     46  C        -33.6130  -13.7070   12.5280 C.2    13  TRP13       0.2595
     47  O        -32.9230  -12.7810   12.1000 O.2    13  TRP13      -0.2718
     48  CB       -32.1920  -15.6880   13.1720 C.3    13  TRP13       0.0564
     49  CG       -31.3830  -16.2890   14.2770 C.ar   13  TRP13       0.0003
     50  CD1      -31.4380  -17.5720   14.7320 C.ar   13  TRP13       0.0946
     51  CD2      -30.4060  -15.6160   15.0860 C.ar   13  TRP13       0.0152
     52  NE1      -30.5480  -17.7450   15.7700 N.ar   13  TRP13      -0.2442
     53  CE2      -29.9030  -16.5590   16.0060 C.ar   13  TRP13       0.0810
     54  CE3      -29.9060  -14.3090   15.1190 C.ar   13  TRP13       0.0012
     55  CZ2      -28.9250  -16.2390   16.9460 C.ar   13  TRP13       0.0191
     56  CZ3      -28.9340  -13.9920   16.0540 C.ar   13  TRP13       0.0001
     57  CH2      -28.4550  -14.9550   16.9560 C.ar   13  TRP13       0.0015
     58  N        -34.8190  -13.9980   12.0500 N.am   14  ILE14      -0.1980
     59  CA       -35.4710  -13.1260   11.0860 C.3    14  ILE14       0.1595
     60  C        -35.8580  -11.8190   11.7750 C.2    14  ILE14       0.2287
     61  O        -35.6840  -10.7380   11.2150 O.2    14  ILE14      -0.2864
     62  CB       -36.7040  -13.7850   10.4580 C.3    14  ILE14       0.0276
     63  CG1      -36.2730  -14.9670    9.5860 C.3    14  ILE14       0.0022
     64  CG2      -37.4780  -12.7790    9.6250 C.3    14  ILE14       0.0022
     65  CD1      -37.4160  -15.6770    8.9120 C.3    14  ILE14       0.0001
     66  N        -32.7430   -9.9050   12.2670 N.3    17  LEU17      -0.1231
     67  CA       -32.2870   -9.4070   10.9740 C.3    17  LEU17       0.1693
     68  C        -33.0880   -8.1750   10.5540 C.2    17  LEU17       0.2591
     69  O        -32.5300   -7.2050   10.0390 O.2    17  LEU17      -0.2718
     70  CB       -32.3990  -10.5010    9.9140 C.3    17  LEU17       0.0284
     71  CG       -32.0660  -10.0960    8.4810 C.3    17  LEU17       0.0019
     72  CD1      -30.6470   -9.5660    8.3840 C.3    17  LEU17       0.0001
     73  CD2      -32.2630  -11.2730    7.5460 C.3    17  LEU17       0.0001
     74  N        -34.3970   -8.2230   10.7770 N.am   18  VAL18      -0.1980
     75  CA       -35.2740   -7.0850   10.5200 C.3    18  VAL18       0.1595
     76  C        -34.9050   -5.8920   11.4000 C.2    18  VAL18       0.2287
     77  O        -34.7880   -4.7650   10.9220 O.2    18  VAL18      -0.2864
     78  CB       -36.7490   -7.4470   10.7650 C.3    18  VAL18       0.0276
     79  CG1      -37.6100   -6.1960   10.7900 C.3    18  VAL18       0.0022
     80  CG2      -37.2370   -8.4390    9.7240 C.3    18  VAL18       0.0022
     81  N        -31.4160   -4.3470   10.2210 N.3    21  LEU21      -0.1245
     82  CA       -31.5540   -3.6110    8.9680 C.3    21  LEU21       0.1561
     83  C        -32.3590   -2.3330    9.1710 C.2    21  LEU21       0.2260
     84  O        -32.0710   -1.3080    8.5590 O.2    21  LEU21      -0.2867
     85  CB       -32.2090   -4.4770    7.8940 C.3    21  LEU21       0.0270
     86  CG       -31.3650   -5.6530    7.4070 C.3    21  LEU21       0.0019
     87  CD1      -32.1200   -6.4460    6.3490 C.3    21  LEU21       0.0001
     88  CD2      -30.0110   -5.1820    6.8850 C.3    21  LEU21       0.0001
     89  N        -43.5160  -27.2160   13.2340 N.3    92  LYS92      -0.1245
     90  CA       -42.7280  -27.2070   12.0090 C.3    92  LYS92       0.1561
     91  C        -43.6530  -27.4840   10.8350 C.2    92  LYS92       0.2260
     92  O        -44.5810  -28.2820   10.9430 O.2    92  LYS92      -0.2867
     93  CB       -41.6000  -28.2420   12.0500 C.3    92  LYS92       0.0271
     94  CG       -40.5120  -27.9680   13.0730 C.3    92  LYS92       0.0035
     95  CD       -39.4460  -29.0590   13.0340 C.3    92  LYS92       0.0206
     96  CE       -40.0200  -30.4300   13.3600 C.3    92  LYS92       0.1093
     97  NZ       -40.4750  -30.5320   14.7760 N.3    92  LYS92      -0.1314
     98  N        -42.7740  -16.9280    9.7190 N.3    99  ILE99      -0.1245
     99  CA       -42.1820  -15.7890    9.0400 C.3    99  ILE99       0.1561
    100  C        -42.9830  -14.5220    9.3050 C.2    99  ILE99       0.2260
    101  O        -42.4210  -13.4780    9.6280 O.2    99  ILE99      -0.2867
    102  CB       -42.0850  -16.0380    7.5330 C.3    99  ILE99       0.0252
    103  CG1      -41.0850  -17.1650    7.2610 C.3    99  ILE99       0.0019
    104  CG2      -41.6980  -14.7580    6.8060 C.3    99  ILE99       0.0019
    105  CD1      -41.0770  -17.6530    5.8360 C.3    99  ILE99       0.0001
    106  N        -41.5970  -11.2490   11.2250 N.3   103  LEU103     -0.1245
    107  CA       -41.5680   -9.9490   10.5610 C.3   103  LEU103      0.1561
    108  C        -42.2060   -8.8750   11.4200 C.2   103  LEU103      0.2260
    109  O        -41.6530   -7.7870   11.5770 O.2   103  LEU103     -0.2867
    110  CB       -42.2690  -10.0010    9.1980 C.3   103  LEU103      0.0270
    111  CG       -41.5290  -10.7200    8.0680 C.3   103  LEU103      0.0019
    112  CD1      -42.3560  -10.7480    6.7910 C.3   103  LEU103      0.0001
    113  CD2      -40.2050  -10.0310    7.8210 C.3   103  LEU103      0.0001
    114  N        -38.2990    0.6810    7.3660 N.3   140  LEU140     -0.1245
    115  CA       -38.3030   -0.7660    7.1500 C.3   140  LEU140      0.1561
    116  C        -39.1120   -1.5040    8.2090 C.2   140  LEU140      0.2260
    117  O        -39.7680   -2.5000    7.8980 O.2   140  LEU140     -0.2867
    118  CB       -36.8820   -1.3320    7.0850 C.3   140  LEU140      0.0270
    119  CG       -36.2350   -1.3550    5.6970 C.3   140  LEU140      0.0019
    120  CD1      -36.1360    0.0290    5.0730 C.3   140  LEU140      0.0001
    121  CD2      -34.8710   -2.0040    5.7750 C.3   140  LEU140      0.0001
    122  N        -41.8500   -4.3090    7.5050 N.3   144  ALA144     -0.1245
    123  CA       -41.8460   -5.6470    8.0800 C.3   144  ALA144      0.1562
    124  C        -43.1700   -5.9340    8.7830 C.2   144  ALA144      0.2260
    125  O        -43.7450   -7.0130    8.6200 O.2   144  ALA144     -0.2867
    126  CB       -40.6860   -5.8060    9.0490 C.3   144  ALA144      0.0290
@<TRIPOS>BOND
     1   120   119    1
     2   119   121    1
     3   119   118    1
     4   105   103    1
     5    87    86    1
     6   112   111    1
     7   104   102    1
     8    88    86    1
     9   118   115    1
    10   115   114    1
    11   115   116    1
    12   103   102    1
    13    86    85    1
    14   122   123    1
    15   102    99    1
    16    73    71    1
    17   113   111    1
    18    85    82    1
    19   117   116    2
    20   111   110    1
    21   123   124    1
    22   123   126    1
    23    72    71    1
    24    71    70    1
    25    43    42   ar
    26    43    41   ar
    27    84    83    2
    28   125   124    2
    29    42    40   ar
    30    65    63    1
    31    82    83    1
    32    82    81    1
    33    99   100    1
    34    99    98    1
    35   110   107    1
    36   100   101    2
    37    41    39   ar
    38    63    62    1
    39    64    62    1
    40    80    78    1
    41    70    67    1
    42    69    68    2
    43    40    37   ar
    44    62    59    1
    45    75    78    1
    46    75    74    1
    47    75    76    1
    48    68    74   am
    49    68    67    1
    50   107   106    1
    51   107   108    1
    52    78    79    1
    53    39    37   ar
    54    39    38   ar
    55    91    92    2
    56    91    90    1
    57    77    76    2
    58    67    66    1
    59    59    60    1
    60    59    58    1
    61    37    35   ar
    62    61    60    2
    63   108   109    2
    64    38    36   ar
    65    90    93    1
    66    90    89    1
    67    93    94    1
    68    58    46   am
    69    47    46    2
    70    46    45    1
    71    35    36   ar
    72    35    34    1
    73     7     5    1
    74    95    94    1
    75    95    96    1
    76    48    45    1
    77    48    49    1
    78    33    32    2
    79     6     5    1
    80    96    97    1
    81    34    31    1
    82     5     2    1
    83    31    32    1
    84    31    30    1
    85    45    44    1
    86    26    25    2
    87    49    50   ar
    88    49    51   ar
    89    30    25   am
    90    25    24    1
    91    50    52   ar
    92     2     1    1
    93     2     3    1
    94    27    28    1
    95    27    24    1
    96    51    54   ar
    97    51    53   ar
    98    54    56   ar
    99    28    29    1
   100    18    19    1
   101    18    17    1
   102    19    20    2
   103    24    23    1
   104    52    53   ar
   105     3     4    2
   106    53    55   ar
   107    20    22    1
   108    20    21    1
   109    56    57   ar
   110    15    14    2
   111    11    10    2
   112    29    23    1
   113    16    17    1
   114    16    13    1
   115    13    14    1
   116    13    12    1
   117    55    57   ar
   118    10    12   am
   119    10     9    1
   120     9     8    1
