@<TRIPOS>MOLECULE
tmp/5dirC09.pdb
 105 97 0 0 0
SMALL
GASTEIGER

@<TRIPOS>ATOM
      1  N        -43.0100   53.5800   25.5350 N.3     3  LEU3       -0.1245
      2  CA       -43.0200   52.1210   25.3990 C.3     3  LEU3        0.1561
      3  C        -41.9760   51.4210   26.2690 C.2     3  LEU3        0.2260
      4  O        -41.7040   50.2390   26.0710 O.2     3  LEU3       -0.2867
      5  CB       -42.8160   51.7160   23.9320 C.3     3  LEU3        0.0270
      6  CG       -41.6210   52.2080   23.0990 C.3     3  LEU3        0.0019
      7  CD1      -40.2610   51.7110   23.5870 C.3     3  LEU3        0.0001
      8  CD2      -41.8200   51.8140   21.6390 C.3     3  LEU3        0.0001
      9  N        -43.0010   48.1430   27.8030 N.3     6  THR6       -0.1218
     10  CA       -42.8950   46.9870   26.9200 C.3     6  THR6        0.1862
     11  C        -41.4950   46.3860   26.9030 C.2     6  THR6        0.2287
     12  O        -41.3330   45.1660   26.9950 O.2     6  THR6       -0.2866
     13  CB       -43.2920   47.3520   25.4850 C.3     6  THR6        0.1770
     14  OG1      -44.6930   47.6500   25.4490 O.3     6  THR6       -0.2211
     15  CG2      -43.0090   46.1960   24.5450 C.3     6  THR6        0.0375
     16  N        -46.0820   26.2870   16.6470 N.3    60  ARG60      -0.1231
     17  CA       -44.9460   27.1900   16.7230 C.3    60  ARG60       0.1694
     18  C        -45.0980   28.4050   15.8120 C.2    60  ARG60       0.2592
     19  O        -44.7520   29.5230   16.1930 O.2    60  ARG60      -0.2718
     20  CB       -43.6590   26.4460   16.3690 C.3    60  ARG60       0.0321
     21  CG       -42.4260   27.3280   16.3090 C.3    60  ARG60       0.0489
     22  CD       -41.2430   26.5600   15.7700 C.3    60  ARG60       0.2205
     23  NE       -40.0330   27.3720   15.7190 N.pl3  60  ARG60      -0.0865
     24  CZ       -38.8280   26.8880   15.4360 C.cat  60  ARG60       0.5346
     25  NH1      -38.6900   25.6010   15.1420 N.pl3  60  ARG60       0.1354
     26  NH2      -37.7680   27.6890   15.4320 N.pl3  60  ARG60       0.1354
     27  N        -45.6380   28.1890   14.6180 N.am   61  TRP61      -0.1976
     28  CA       -45.6590   29.2500   13.6210 C.3    61  TRP61       0.1640
     29  C        -46.9630   30.0270   13.6310 C.2    61  TRP61       0.2290
     30  O        -46.9560   31.2570   13.5550 O.2    61  TRP61      -0.2864
     31  CB       -45.4040   28.6590   12.2280 C.3    61  TRP61       0.0576
     32  CG       -44.1140   27.8940   12.1560 C.ar   61  TRP61       0.0006
     33  CD1      -43.9670   26.5400   12.0340 C.ar   61  TRP61       0.0946
     34  CD2      -42.7900   28.4340   12.2420 C.ar   61  TRP61       0.0152
     35  NE1      -42.6330   26.2070   12.0280 N.ar   61  TRP61      -0.2442
     36  CE2      -41.8900   27.3530   12.1510 C.ar   61  TRP61       0.0810
     37  CE3      -42.2780   29.7280   12.3840 C.ar   61  TRP61       0.0012
     38  CZ2      -40.5080   27.5270   12.1960 C.ar   61  TRP61       0.0191
     39  CZ3      -40.9070   29.8970   12.4300 C.ar   61  TRP61       0.0001
     40  CH2      -40.0380   28.8040   12.3380 C.ar   61  TRP61       0.0015
     41  N        -47.2530   38.2460   15.8690 N.3    68  ILE68      -0.1245
     42  CA       -46.7540   39.2840   14.9730 C.3    68  ILE68       0.1561
     43  C        -47.8590   40.2360   14.5170 C.2    68  ILE68       0.2260
     44  O        -47.7110   41.4550   14.5920 O.2    68  ILE68      -0.2867
     45  CB       -46.0890   38.6660   13.7250 C.3    68  ILE68       0.0252
     46  CG1      -44.8680   37.8340   14.1200 C.3    68  ILE68       0.0019
     47  CG2      -45.6950   39.7460   12.7360 C.3    68  ILE68       0.0019
     48  CD1      -44.3490   36.9540   13.0040 C.3    68  ILE68       0.0001
     49  N        -49.2810   42.1230   17.6170 N.3    71  SER71      -0.1202
     50  CA       -48.2850   43.0770   18.1020 C.3    71  SER71       0.2020
     51  C        -48.2680   44.3250   17.2300 C.2    71  SER71       0.2618
     52  O        -48.2840   45.4450   17.7410 O.2    71  SER71      -0.2717
     53  CB       -46.8960   42.4470   18.1460 C.3    71  SER71       0.2103
     54  OG       -46.8480   41.4080   19.1080 O.3    71  SER71      -0.2182
     55  N        -48.2130   44.1160   15.9150 N.am   72  ALA72      -0.1979
     56  CA       -48.2610   45.2080   14.9490 C.3    72  ALA72       0.1597
     57  C        -49.4940   46.0650   15.2020 C.2    72  ALA72       0.2287
     58  O        -49.3970   47.2820   15.3790 O.2    72  ALA72      -0.2864
     59  CB       -48.2670   44.6660   13.5220 C.3    72  ALA72       0.0319
     60  N        -49.2860   48.1330   18.2910 N.3    75  VAL75      -0.1245
     61  CA       -48.4180   49.2950   18.1440 C.3    75  VAL75       0.1561
     62  C        -49.1910   50.4370   17.5020 C.2    75  VAL75       0.2260
     63  O        -49.1340   51.5770   17.9660 O.2    75  VAL75      -0.2867
     64  CB       -47.1680   48.9830   17.3030 C.3    75  VAL75       0.0252
     65  CG1      -46.3770   50.2510   17.0520 C.3    75  VAL75       0.0019
     66  CG2      -46.3000   47.9510   18.0050 C.3    75  VAL75       0.0019
     67  N        -48.3130   43.9110   24.8440 N.3    96  LEU96      -0.1245
     68  CA       -47.3700   43.9060   23.7330 C.3    96  LEU96       0.1561
     69  C        -46.0670   43.2480   24.2190 C.2    96  LEU96       0.2260
     70  O        -45.4750   42.4160   23.5250 O.2    96  LEU96      -0.2867
     71  CB       -47.1440   45.3390   23.2210 C.3    96  LEU96       0.0270
     72  CG       -46.4520   45.6700   21.8860 C.3    96  LEU96       0.0019
     73  CD1      -46.4380   47.1780   21.6430 C.3    96  LEU96       0.0001
     74  CD2      -45.0570   45.1400   21.7890 C.3    96  LEU96       0.0001
     75  N        -44.4410   39.8050   22.7420 N.3   100  LEU100     -0.1245
     76  CA       -43.1210   39.6770   22.1330 C.3   100  LEU100      0.1561
     77  C        -42.2240   38.6830   22.8520 C.2   100  LEU100      0.2260
     78  O        -41.3880   38.0330   22.2250 O.2   100  LEU100     -0.2867
     79  CB       -42.4150   41.0320   22.0670 C.3   100  LEU100      0.0270
     80  CG       -43.0290   42.0990   21.1620 C.3   100  LEU100      0.0019
     81  CD1      -42.1830   43.3520   21.2260 C.3   100  LEU100      0.0001
     82  CD2      -43.1520   41.5950   19.7260 C.3   100  LEU100      0.0001
     83  N        -43.2670   35.2980   21.6710 N.3   103  LEU103     -0.1245
     84  CA       -42.9480   35.2690   20.2550 C.3   103  LEU103      0.1561
     85  C        -41.4780   34.9430   20.0730 C.2   103  LEU103      0.2260
     86  O        -41.1220   34.0570   19.2980 O.2   103  LEU103     -0.2867
     87  CB       -43.2850   36.6070   19.5990 C.3   103  LEU103      0.0270
     88  CG       -42.7940   36.8070   18.1630 C.3   103  LEU103      0.0019
     89  CD1      -43.4160   35.7970   17.2120 C.3   103  LEU103      0.0001
     90  CD2      -43.0900   38.2240   17.7190 C.3   103  LEU103      0.0001
     91  N        -39.7740   31.6040   18.1350 N.3   107  MET107     -0.1230
     92  CA       -38.9420   31.7290   16.9480 C.3   107  MET107      0.1702
     93  C        -37.5640   31.1440   17.2250 C.2   107  MET107      0.2592
     94  O        -37.0570   30.3280   16.4590 O.2   107  MET107     -0.2718
     95  CB       -38.8410   33.1920   16.5120 C.3   107  MET107      0.0401
     96  CG       -40.1970   33.7870   16.1660 C.3   107  MET107      0.0596
     97  SD       -41.0040   33.0380   14.7380 S.3   107  MET107     -0.1393
     98  CE       -40.2670   33.9650   13.4060 C.3   107  MET107      0.0692
     99  N        -36.9660   31.5730   18.3280 N.am  108  VAL108     -0.1980
    100  CA       -35.6170   31.1660   18.7050 C.3   108  VAL108      0.1595
    101  C        -35.5420   29.7370   19.2580 C.2   108  VAL108      0.2287
    102  O        -34.7530   28.9220   18.7860 O.2   108  VAL108     -0.2864
    103  CB       -35.0180   32.1360   19.7650 C.3   108  VAL108      0.0276
    104  CG1      -33.6800   31.6320   20.2680 C.3   108  VAL108      0.0022
    105  CG2      -34.8830   33.5440   19.1980 C.3   108  VAL108      0.0022
@<TRIPOS>BOND
     1    35    33   ar
     2    35    36   ar
     3    33    32   ar
     4    36    38   ar
     5    36    34   ar
     6    32    31    1
     7    32    34   ar
     8    38    40   ar
     9    31    28    1
    10    34    37   ar
    11    40    39   ar
    12    37    39   ar
    13    47    45    1
    14    48    46    1
    15    98    97    1
    16    59    56    1
    17    30    29    2
    18    28    29    1
    19    28    27    1
    20    45    46    1
    21    45    42    1
    22    43    44    2
    23    43    42    1
    24    27    18   am
    25    97    96    1
    26    56    57    1
    27    56    55    1
    28    42    41    1
    29    25    24    1
    30    57    58    2
    31    26    24    1
    32    24    23    2
    33    23    22    1
    34    22    21    1
    35    18    19    2
    36    18    17    1
    37    55    51   am
    38    96    95    1
    39    21    20    1
    40    20    17    1
    41    94    93    2
    42    95    92    1
    43    16    17    1
    44    92    93    1
    45    92    91    1
    46    65    64    1
    47    89    88    1
    48    93    99   am
    49    51    52    2
    50    51    50    1
    51    64    66    1
    52    64    61    1
    53    62    63    2
    54    62    61    1
    55    49    50    1
    56    90    88    1
    57    50    53    1
    58    61    60    1
    59    53    54    1
    60    88    87    1
    61    99   100    1
    62   100   101    1
    63   100   103    1
    64   102   101    2
    65   105   103    1
    66    86    85    2
    67    87    84    1
    68    82    80    1
    69   103   104    1
    70    85    84    1
    71    84    83    1
    72    80    81    1
    73    80    79    1
    74     8     6    1
    75    73    72    1
    76    74    72    1
    77    72    71    1
    78    79    76    1
    79    76    75    1
    80    76    77    1
    81    78    77    2
    82     6     7    1
    83     6     5    1
    84    71    68    1
    85    70    69    2
    86    68    69    1
    87    68    67    1
    88     5     2    1
    89    15    13    1
    90     2     1    1
    91     2     3    1
    92    14    13    1
    93    13    10    1
    94     4     3    2
    95    11    10    1
    96    11    12    2
    97    10     9    1
