@<TRIPOS>MOLECULE
tmp/5dirA00.pdb
 93 91 0 0 0
SMALL
GASTEIGER

@<TRIPOS>ATOM
      1  N        -36.3760  -11.9300   12.9940 N.3    15  THR15      -0.1203
      2  CA       -36.7180  -10.7650   13.8020 C.3    15  THR15       0.1994
      3  C        -35.4890   -9.8940   14.0710 C.2    15  THR15       0.2617
      4  O        -35.5420   -8.6670   13.9420 O.2    15  THR15      -0.2717
      5  CB       -37.3600  -11.1820   15.1410 C.3    15  THR15       0.1784
      6  OG1      -38.6280  -11.7990   14.8890 O.3    15  THR15      -0.2211
      7  CG2      -37.5620   -9.9690   16.0480 C.3    15  THR15       0.0376
      8  N        -34.3860  -10.5300   14.4480 N.am   16  VAL16      -0.1979
      9  CA       -33.1350   -9.8150   14.6630 C.3    16  VAL16       0.1595
     10  C        -32.6630   -9.1600   13.3660 C.2    16  VAL16       0.2287
     11  O        -32.2670   -7.9920   13.3560 O.2    16  VAL16      -0.2864
     12  CB       -32.0370  -10.7480   15.2070 C.3    16  VAL16       0.0276
     13  CG1      -30.6910  -10.0440   15.2430 C.3    16  VAL16       0.0022
     14  CG2      -32.4270  -11.2710   16.5820 C.3    16  VAL16       0.0022
     15  N        -34.7270   -6.1530   12.6900 N.3    19  PHE19      -0.1241
     16  CA       -34.3720   -5.1130   13.6480 C.3    19  PHE19       0.1605
     17  C        -33.0980   -4.3870   13.2300 C.2    19  PHE19       0.2264
     18  O        -33.0650   -3.1610   13.1700 O.2    19  PHE19      -0.2867
     19  CB       -34.2060   -5.7090   15.0480 C.3    19  PHE19       0.0534
     20  CG       -33.7600   -4.7170   16.0730 C.ar   19  PHE19      -0.0203
     21  CD1      -34.6810   -3.8970   16.7050 C.ar   19  PHE19      -0.0042
     22  CD2      -32.4220   -4.6010   16.4080 C.ar   19  PHE19      -0.0042
     23  CE1      -34.2740   -2.9780   17.6460 C.ar   19  PHE19      -0.0003
     24  CE2      -32.0090   -3.6810   17.3500 C.ar   19  PHE19      -0.0003
     25  CZ       -32.9360   -2.8690   17.9690 C.ar   19  PHE19      -0.0000
     26  N        -45.2370    8.3310   23.0590 N.3    69  ARG69      -0.1231
     27  CA       -43.9440    7.7050   23.2710 C.3    69  ARG69       0.1694
     28  C        -44.0620    6.5040   24.1930 C.2    69  ARG69       0.2592
     29  O        -43.4530    5.4650   23.9540 O.2    69  ARG69      -0.2718
     30  CB       -42.9520    8.7010   23.8720 C.3    69  ARG69       0.0321
     31  CG       -41.6330    8.0680   24.2590 C.3    69  ARG69       0.0489
     32  CD       -40.7410    9.0210   25.0230 C.3    69  ARG69       0.2205
     33  NE       -39.4600    8.3970   25.3470 N.pl3  69  ARG69      -0.0865
     34  CZ       -38.4090    9.0490   25.8360 C.cat  69  ARG69       0.5346
     35  NH1      -38.4880   10.3500   26.0810 N.pl3  69  ARG69       0.1354
     36  NH2      -37.2770    8.4020   26.0800 N.pl3  69  ARG69       0.1354
     37  N        -44.8830    6.6480   25.2290 N.am   70  TRP70      -0.1976
     38  CA       -44.9540    5.6480   26.2830 C.3    70  TRP70       0.1640
     39  C        -46.0890    4.6570   26.0520 C.2    70  TRP70       0.2290
     40  O        -45.9160    3.4530   26.2480 O.2    70  TRP70      -0.2864
     41  CB       -45.1240    6.3420   27.6380 C.3    70  TRP70       0.0576
     42  CG       -44.0520    7.3560   27.9080 C.ar   70  TRP70       0.0006
     43  CD1      -44.2000    8.7140   27.9190 C.ar   70  TRP70       0.0946
     44  CD2      -42.6720    7.1050   28.1960 C.ar   70  TRP70       0.0152
     45  NE1      -43.0010    9.3230   28.1930 N.ar   70  TRP70      -0.2442
     46  CE2      -42.0450    8.3590   28.3690 C.ar   70  TRP70       0.0810
     47  CE3      -41.9050    5.9460   28.3270 C.ar   70  TRP70       0.0012
     48  CZ2      -40.6910    8.4850   28.6680 C.ar   70  TRP70       0.0191
     49  CZ3      -40.5560    6.0730   28.6210 C.ar   70  TRP70       0.0001
     50  CH2      -39.9640    7.3330   28.7890 C.ar   70  TRP70       0.0015
     51  N        -40.1980   -4.3240   17.5400 N.3   109  LEU109     -0.1245
     52  CA       -39.0440   -4.0320   18.3770 C.3   109  LEU109      0.1561
     53  C        -38.2090   -2.8890   17.8010 C.2   109  LEU109      0.2260
     54  O        -37.5950   -2.1240   18.5420 O.2   109  LEU109     -0.2867
     55  CB       -38.1750   -5.2810   18.5450 C.3   109  LEU109      0.0270
     56  CG       -38.8040   -6.4660   19.2890 C.3   109  LEU109      0.0019
     57  CD1      -37.8360   -7.6400   19.3670 C.3   109  LEU109      0.0001
     58  CD2      -39.2760   -6.0710   20.6810 C.3   109  LEU109      0.0001
     59  N        -40.0520    0.1910   18.7650 N.3   112  LEU112     -0.1231
     60  CA       -40.0320    0.2240   20.2260 C.3   112  LEU112      0.1693
     61  C        -38.7190    0.8020   20.7360 C.2   112  LEU112      0.2592
     62  O        -38.7070    1.6900   21.5890 O.2   112  LEU112     -0.2718
     63  CB       -40.2360   -1.1750   20.8100 C.3   112  LEU112      0.0284
     64  CG       -39.9760   -1.2800   22.3200 C.3   112  LEU112      0.0019
     65  CD1      -40.9400   -0.4110   23.1150 C.3   112  LEU112      0.0001
     66  CD2      -40.0080   -2.7300   22.8050 C.3   112  LEU112      0.0001
     67  N        -37.6170    0.2930   20.1980 N.am  113  TYR113     -0.1976
     68  CA       -36.2970    0.7940   20.5420 C.3   113  TYR113      0.1639
     69  C        -36.2290    2.3010   20.3260 C.2   113  TYR113      0.2290
     70  O        -35.6870    3.0310   21.1580 O.2   113  TYR113     -0.2864
     71  CB       -35.2150    0.1000   19.7110 C.3   113  TYR113      0.0560
     72  CG       -33.8230    0.6430   19.9570 C.ar  113  TYR113     -0.0198
     73  CD1      -33.0210    0.1160   20.9620 C.ar  113  TYR113     -0.0009
     74  CD2      -33.3210    1.7010   19.2040 C.ar  113  TYR113     -0.0009
     75  CE1      -31.7520    0.6140   21.1970 C.ar  113  TYR113      0.0417
     76  CE2      -32.0580    2.2110   19.4380 C.ar  113  TYR113      0.0417
     77  CZ       -31.2790    1.6640   20.4340 C.ar  113  TYR113      0.1957
     78  OH       -30.0220    2.1710   20.6620 O.3   113  TYR113     -0.2866
     79  N        -38.1840    4.3720   22.9420 N.3   116  MET116     -0.1230
     80  CA       -37.5410    4.3390   24.2490 C.3   116  MET116      0.1702
     81  C        -36.2450    5.1390   24.2660 C.2   116  MET116      0.2592
     82  O        -36.0720    6.0310   25.0900 O.2   116  MET116     -0.2718
     83  CB       -37.2640    2.8900   24.6700 C.3   116  MET116      0.0401
     84  CG       -38.4850    2.0160   24.9800 C.3   116  MET116      0.0596
     85  SD       -39.3630    2.3950   26.5190 S.3   116  MET116     -0.1393
     86  CE       -40.3690    3.8000   26.0700 C.3   116  MET116      0.0692
     87  N        -35.3490    4.8370   23.3350 N.am  117  VAL117     -0.1980
     88  CA       -34.0370    5.4700   23.3160 C.3   117  VAL117      0.1595
     89  C        -34.1400    6.9000   22.8160 C.2   117  VAL117      0.2287
     90  O        -33.6820    7.8340   23.4750 O.2   117  VAL117     -0.2864
     91  CB       -33.0560    4.6830   22.4410 C.3   117  VAL117      0.0276
     92  CG1      -31.7370    5.4320   22.3050 C.3   117  VAL117      0.0022
     93  CG2      -32.8500    3.2940   23.0260 C.3   117  VAL117      0.0022
@<TRIPOS>BOND
     1    15    16    1
     2     1     2    1
     3    18    17    2
     4    17    16    1
     5    11    10    2
     6    10     9    1
     7    16    19    1
     8     2     3    1
     9     2     5    1
    10     4     3    2
    11     3     8   am
    12     8     9    1
    13     9    12    1
    14     6     5    1
    15    19    20    1
    16     5     7    1
    17    12    13    1
    18    12    14    1
    19    20    22   ar
    20    20    21   ar
    21    22    24   ar
    22    21    23   ar
    23    24    25   ar
    24    51    52    1
    25    23    25   ar
    26    53    52    1
    27    53    54    2
    28    52    55    1
    29    55    56    1
    30    59    60    1
    31    74    76   ar
    32    74    72   ar
    33    56    57    1
    34    56    58    1
    35    76    77   ar
    36    71    72    1
    37    71    68    1
    38    72    73   ar
    39    67    68    1
    40    67    61   am
    41    60    61    1
    42    60    63    1
    43    69    68    1
    44    69    70    2
    45    77    78    1
    46    77    75   ar
    47    61    62    2
    48    63    64    1
    49    73    75   ar
    50    92    91    1
    51    64    66    1
    52    64    65    1
    53    91    93    1
    54    91    88    1
    55    89    88    1
    56    89    90    2
    57    79    80    1
    58    26    27    1
    59    27    30    1
    60    27    28    1
    61    88    87    1
    62    87    81   am
    63    30    31    1
    64    29    28    2
    65    28    37   am
    66    80    81    1
    67    80    83    1
    68    31    32    1
    69    81    82    2
    70    83    84    1
    71    84    85    1
    72    32    33    1
    73    37    38    1
    74    33    34    2
    75    34    36    1
    76    34    35    1
    77    39    40    2
    78    39    38    1
    79    86    85    1
    80    38    41    1
    81    41    42    1
    82    42    43   ar
    83    42    44   ar
    84    43    45   ar
    85    45    46   ar
    86    44    47   ar
    87    44    46   ar
    88    47    49   ar
    89    46    48   ar
    90    49    50   ar
    91    48    50   ar
