@<TRIPOS>MOLECULE
tmp/5dirA01.pdb
 82 74 0 0 0
SMALL
GASTEIGER

@<TRIPOS>ATOM
      1  N        -47.5000    3.7910   23.1860 N.3    72  PHE72      -0.1241
      2  CA       -47.1740    2.9700   22.0270 C.3    72  PHE72       0.1605
      3  C        -46.0150    2.0230   22.3060 C.2    72  PHE72       0.2264
      4  O        -45.9520    0.9240   21.7590 O.2    72  PHE72      -0.2867
      5  CB       -46.8830    3.8720   20.8380 C.3    72  PHE72       0.0534
      6  CG       -48.0810    4.6470   20.3790 C.ar   72  PHE72      -0.0203
      7  CD1      -49.3610    4.2110   20.6980 C.ar   72  PHE72      -0.0042
      8  CD2      -47.9390    5.8220   19.6670 C.ar   72  PHE72      -0.0042
      9  CE1      -50.4710    4.9090   20.2850 C.ar   72  PHE72      -0.0003
     10  CE2      -49.0520    6.5310   19.2580 C.ar   72  PHE72      -0.0003
     11  CZ       -50.3170    6.0760   19.5680 C.ar   72  PHE72      -0.0000
     12  N        -47.7020   -0.7160   24.2740 N.3    75  ILE75      -0.1231
     13  CA       -48.4290   -1.6110   23.3800 C.3    75  ILE75       0.1692
     14  C        -47.4550   -2.5110   22.6220 C.2    75  ILE75       0.2591
     15  O        -47.7210   -3.6910   22.4170 O.2    75  ILE75      -0.2718
     16  CB       -49.2890   -0.8260   22.3630 C.3    75  ILE75       0.0266
     17  CG1      -50.3530    0.0070   23.0790 C.3    75  ILE75       0.0019
     18  CG2      -49.9300   -1.7660   21.3560 C.3    75  ILE75       0.0020
     19  CD1      -51.0430    1.0170   22.1800 C.3    75  ILE75       0.0001
     20  N        -46.3070   -1.9610   22.2390 N.am   76  ALA76      -0.1980
     21  CA       -45.3020   -2.7420   21.5250 C.3    76  ALA76       0.1597
     22  C        -44.7940   -3.8680   22.4110 C.2    76  ALA76       0.2287
     23  O        -44.7070   -5.0150   21.9770 O.2    76  ALA76      -0.2864
     24  CB       -44.1490   -1.8630   21.0760 C.3    76  ALA76       0.0319
     25  N        -47.6590   -6.4910   22.9310 N.3    79  VAL79      -0.1245
     26  CA       -47.9070   -7.2490   21.7100 C.3    79  VAL79       0.1561
     27  C        -46.7180   -8.1400   21.3650 C.2    79  VAL79       0.2260
     28  O        -46.8980   -9.2680   20.9100 O.2    79  VAL79      -0.2867
     29  CB       -48.2220   -6.3130   20.5210 C.3    79  VAL79       0.0252
     30  CG1      -48.2520   -7.0830   19.2110 C.3    79  VAL79       0.0019
     31  CG2      -49.5480   -5.5950   20.7540 C.3    79  VAL79       0.0019
     32  N        -43.3760   -9.1760   11.9670 N.3   104  VAL104     -0.1245
     33  CA       -44.0830   -8.1990   12.7790 C.3   104  VAL104      0.1561
     34  C        -43.3020   -7.9180   14.0590 C.2   104  VAL104      0.2260
     35  O        -43.2330   -6.7780   14.5180 O.2   104  VAL104     -0.2867
     36  CB       -45.5120   -8.6660   13.1150 C.3   104  VAL104      0.0252
     37  CG1      -46.2040   -7.6680   14.0310 C.3   104  VAL104      0.0019
     38  CG2      -46.3130   -8.8340   11.8420 C.3   104  VAL104      0.0019
     39  N        -40.3470   -5.5120   13.3010 N.3   107  GLY107     -0.1210
     40  CA       -40.8110   -4.1500   13.1520 C.3   107  GLY107      0.1956
     41  C        -41.2460   -3.5590   14.4790 C.2   107  GLY107      0.2611
     42  O        -40.9840   -2.3900   14.7650 O.2   107  GLY107     -0.2717
     43  N        -41.9240   -4.3630   15.2900 N.am  108  ALA108     -0.1979
     44  CA       -42.3890   -3.8980   16.5890 C.3   108  ALA108      0.1597
     45  C        -41.2180   -3.4770   17.4690 C.2   108  ALA108      0.2287
     46  O        -41.2300   -2.3960   18.0580 O.2   108  ALA108     -0.2864
     47  CB       -43.2090   -4.9740   17.2770 C.3   108  ALA108      0.0319
     48  N        -39.2450   -0.1510   16.1610 N.3   111  ASN111     -0.1240
     49  CA       -39.8290    1.1270   16.5260 C.3   111  ASN111      0.1653
     50  C        -39.9120    1.3000   18.0380 C.2   111  ASN111      0.2266
     51  O        -39.8460    2.4220   18.5340 O.2   111  ASN111     -0.2867
     52  CB       -41.2090    1.2830   15.8910 C.3   111  ASN111      0.1155
     53  CG       -41.1320    1.4550   14.3870 C.2   111  ASN111      0.2627
     54  OD1      -40.0880    1.8370   13.8460 O.2   111  ASN111     -0.2716
     55  ND2      -42.2390    1.1900   13.7030 N.am  111  ASN111     -0.0877
     56  N        -38.7490    4.6060   20.2410 N.3   115  ARG115     -0.1245
     57  CA       -39.5670    5.3560   21.1880 C.3   115  ARG115      0.1563
     58  C        -38.9380    5.4040   22.5840 C.2   115  ARG115      0.2260
     59  O        -39.1350    6.3620   23.3260 O.2   115  ARG115     -0.2867
     60  CB       -40.9760    4.7680   21.2650 C.3   115  ARG115      0.0307
     61  CG       -41.8100    5.0360   20.0250 C.3   115  ARG115      0.0489
     62  CD       -43.2510    4.6020   20.2240 C.3   115  ARG115      0.2205
     63  NE       -44.0700    4.9020   19.0530 N.pl3 115  ARG115     -0.0865
     64  CZ       -44.2790    4.0460   18.0550 C.cat 115  ARG115      0.5346
     65  NH1      -43.7420    2.8340   18.0920 N.pl3 115  ARG115      0.1354
     66  NH2      -45.0330    4.3960   17.0240 N.pl3 115  ARG115      0.1354
     67  N        -41.8310   -0.5610    9.7050 N.3   142  ASP142     -0.1239
     68  CA       -43.2210   -0.4890    9.2740 C.3   142  ASP142      0.1674
     69  C        -43.4960   -1.5050    8.1720 C.2   142  ASP142      0.2266
     70  O        -44.5380   -2.1620    8.1580 O.2   142  ASP142     -0.2867
     71  CB       -43.5650    0.9140    8.7740 C.3   142  ASP142      0.1410
     72  CG       -43.4940    1.9540    9.8650 C.2   142  ASP142      0.3668
     73  OD1      -43.5320    1.5810   11.0570 O.co2 142  ASP142     -0.2456
     74  OD2      -43.4290    3.1520    9.5270 O.co2 142  ASP142     -0.2456
     75  N        -43.6450   -4.9640    9.5600 N.3   145  ILE145     -0.1245
     76  CA       -44.9280   -5.0880   10.2420 C.3   145  ILE145      0.1561
     77  C        -46.0870   -5.2470    9.2640 C.2   145  ILE145      0.2260
     78  O        -46.9050   -6.1610    9.3910 O.2   145  ILE145     -0.2867
     79  CB       -45.1990   -3.8620   11.1380 C.3   145  ILE145      0.0252
     80  CG1      -44.2420   -3.8620   12.3330 C.3   145  ILE145      0.0019
     81  CG2      -46.6480   -3.8500   11.6170 C.3   145  ILE145      0.0019
     82  CD1      -44.2380   -2.5660   13.1190 C.3   145  ILE145      0.0001
@<TRIPOS>BOND
     1    70    69    2
     2    69    68    1
     3    71    68    1
     4    71    72    1
     5    77    78    2
     6    77    76    1
     7    68    67    1
     8    74    72   ar
     9    75    76    1
    10    72    73   ar
    11    76    79    1
    12    79    81    1
    13    79    80    1
    14    38    36    1
    15    32    33    1
    16    80    82    1
    17    33    36    1
    18    33    34    1
    19    36    37    1
    20    40    39    1
    21    40    41    1
    22    55    53   am
    23    54    53    2
    24    34    35    2
    25    53    52    1
    26    41    42    2
    27    41    43   am
    28    43    44    1
    29    52    49    1
    30    48    49    1
    31    49    50    1
    32    44    47    1
    33    44    45    1
    34    66    64    1
    35    45    46    2
    36    50    51    2
    37    64    65    1
    38    64    63    2
    39    63    62    1
    40    30    29    1
    41    10    11   ar
    42    10     8   ar
    43    11     9   ar
    44     8     6   ar
    45    61    62    1
    46    61    60    1
    47    56    57    1
    48     9     7   ar
    49     6     7   ar
    50     6     5    1
    51    29    31    1
    52    29    26    1
    53     5     2    1
    54    28    27    2
    55    24    21    1
    56    57    60    1
    57    57    58    1
    58    18    16    1
    59    27    26    1
    60    21    20    1
    61    21    22    1
    62    26    25    1
    63     4     3    2
    64    23    22    2
    65     2     3    1
    66     2     1    1
    67    19    17    1
    68    20    14   am
    69    16    17    1
    70    16    13    1
    71    15    14    2
    72    58    59    2
    73    14    13    1
    74    13    12    1
