@<TRIPOS>MOLECULE
tmp/5ditA00.pdb
 183 179 0 0 0
SMALL
GASTEIGER

@<TRIPOS>ATOM
      1  N         -0.4700   -4.2170  -20.7790 N.3    45  TYR45      -0.1241
      2  CA        -1.7510   -4.2020  -20.1260 C.3    45  TYR45       0.1605
      3  C         -2.5400   -5.4600  -20.4470 C.2    45  TYR45       0.2264
      4  O         -2.2780   -6.1600  -21.4330 O.2    45  TYR45      -0.2867
      5  CB        -2.5450   -2.9540  -20.5410 C.3    45  TYR45       0.0534
      6  CG        -3.0500   -3.0470  -21.9570 C.ar   45  TYR45      -0.0201
      7  CD1       -4.3090   -3.5640  -22.2280 C.ar   45  TYR45      -0.0009
      8  CD2       -2.2500   -2.6530  -23.0310 C.ar   45  TYR45      -0.0009
      9  CE1       -4.7670   -3.6820  -23.5280 C.ar   45  TYR45       0.0417
     10  CE2       -2.6980   -2.7560  -24.3320 C.ar   45  TYR45       0.0417
     11  CZ        -3.9570   -3.2710  -24.5760 C.ar   45  TYR45       0.1957
     12  OH        -4.4080   -3.3900  -25.8680 O.3    45  TYR45      -0.2866
     13  N         -6.8000   -6.0910  -20.3870 N.3    47  GLY47      -0.1210
     14  CA        -8.0780   -5.4490  -20.1760 C.3    47  GLY47       0.1956
     15  C         -9.2450   -6.2340  -20.7230 C.2    47  GLY47       0.2612
     16  O         -9.0760   -7.1500  -21.5160 O.2    47  GLY47      -0.2717
     17  N        -10.4390   -5.8400  -20.2990 N.am   48  LYS48      -0.1965
     18  CA       -11.6650   -6.5220  -20.6710 C.3    48  LYS48       0.1728
     19  C        -12.8430   -5.6740  -20.2180 C.2    48  LYS48       0.2616
     20  O        -12.6630   -4.6950  -19.4840 O.2    48  LYS48      -0.2715
     21  CB       -11.7300   -7.8990  -19.9990 C.3    48  LYS48       0.0311
     22  CG       -11.5410   -7.8520  -18.4850 C.3    48  LYS48       0.0038
     23  CD       -11.6350   -9.2270  -17.8470 C.3    48  LYS48       0.0206
     24  CE       -11.7630   -9.1190  -16.3390 C.3    48  LYS48       0.1093
     25  NZ       -12.1950  -10.4050  -15.7380 N.3    48  LYS48      -0.1314
     26  N        -14.0430   -6.0520  -20.6450 N.am   49  LEU49      -0.1977
     27  CA       -15.2630   -5.4490  -20.1120 C.3    49  LEU49       0.1596
     28  C        -15.4010   -5.9020  -18.6760 C.2    49  LEU49       0.2287
     29  O        -14.8540   -6.9390  -18.3040 O.2    49  LEU49      -0.2864
     30  CB       -16.4910   -5.8920  -20.9020 C.3    49  LEU49       0.0297
     31  CG       -16.4850   -5.6440  -22.4120 C.3    49  LEU49       0.0022
     32  CD1      -17.8900   -5.8480  -22.9580 C.3    49  LEU49       0.0001
     33  CD2      -15.9780   -4.2490  -22.7570 C.3    49  LEU49       0.0001
     34  N        -14.5190   -9.8630  -23.9950 N.3    54  LYS54      -0.1245
     35  CA       -13.6120   -9.1200  -24.9020 C.3    54  LYS54       0.1561
     36  C        -12.2070   -8.8630  -24.3420 C.2    54  LYS54       0.2260
     37  O        -11.6720   -7.7530  -24.4340 O.2    54  LYS54      -0.2867
     38  CB       -14.2570   -7.8070  -25.3660 C.3    54  LYS54       0.0271
     39  CG       -15.6500   -7.9770  -25.9670 C.3    54  LYS54       0.0035
     40  CD       -15.6390   -8.7560  -27.2840 C.3    54  LYS54       0.0206
     41  CE       -16.8920   -9.6080  -27.4550 C.3    54  LYS54       0.1093
     42  NZ       -18.1410   -8.8210  -27.2500 N.3    54  LYS54      -0.1314
     43  N         -8.3370   -8.5190  -23.8780 N.3    56  ASP56      -0.1239
     44  CA        -7.2560   -8.0490  -24.7230 C.3    56  ASP56       0.1674
     45  C         -5.9940   -7.9190  -23.8740 C.2    56  ASP56       0.2266
     46  O         -6.0600   -7.4950  -22.7200 O.2    56  ASP56      -0.2867
     47  CB        -7.6320   -6.6900  -25.3200 C.3    56  ASP56       0.1410
     48  CG        -6.6020   -6.1690  -26.2970 C.2    56  ASP56       0.3668
     49  OD1       -5.9820   -6.9850  -27.0110 O.co2  56  ASP56      -0.2456
     50  OD2       -6.4140   -4.9340  -26.3510 O.co2  56  ASP56      -0.2456
     51  N          2.7080   -1.6690  -25.5850 N.3    65  PHE65      -0.1227
     52  CA         1.8300   -0.6380  -26.1370 C.3    65  PHE65       0.1736
     53  C          2.4470    0.7430  -25.8660 C.2    65  PHE65       0.2595
     54  O          2.8220    1.0410  -24.7330 O.2    65  PHE65      -0.2718
     55  CB         0.4460   -0.7520  -25.4940 C.3    65  PHE65       0.0547
     56  CG        -0.5610    0.2130  -26.0380 C.ar   65  PHE65      -0.0202
     57  CD1       -1.1930   -0.0350  -27.2480 C.ar   65  PHE65      -0.0042
     58  CD2       -0.8880    1.3590  -25.3400 C.ar   65  PHE65      -0.0042
     59  CE1       -2.1260    0.8500  -27.7510 C.ar   65  PHE65      -0.0003
     60  CE2       -1.8230    2.2470  -25.8370 C.ar   65  PHE65      -0.0003
     61  CZ        -2.4450    1.9930  -27.0400 C.ar   65  PHE65      -0.0000
     62  N          2.5700    1.5690  -26.9040 N.am   66  VAL66      -0.1966
     63  CA         3.1880    2.8960  -26.7850 C.3    66  VAL66       0.1727
     64  C          2.2080    3.9870  -27.1950 C.2    66  VAL66       0.2616
     65  O          1.4610    3.8240  -28.1560 O.2    66  VAL66      -0.2715
     66  CB         4.4420    3.0290  -27.6740 C.3    66  VAL66       0.0290
     67  CG1        5.1780    4.3340  -27.3710 C.3    66  VAL66       0.0023
     68  CG2        5.3750    1.8390  -27.4710 C.3    66  VAL66       0.0023
     69  N          2.2170    5.1000  -26.4640 N.am   67  PHE67      -0.1974
     70  CA         1.4100    6.2700  -26.8220 C.3    67  PHE67       0.1639
     71  C          1.9620    7.5470  -26.1860 C.2    67  PHE67       0.2290
     72  O          2.8370    7.4900  -25.3170 O.2    67  PHE67      -0.2864
     73  CB        -0.0840    6.0570  -26.4640 C.3    67  PHE67       0.0560
     74  CG        -0.3920    6.1060  -24.9850 C.ar   67  PHE67      -0.0200
     75  CD1       -0.9710    7.2380  -24.4170 C.ar   67  PHE67      -0.0042
     76  CD2       -0.1260    5.0120  -24.1630 C.ar   67  PHE67      -0.0042
     77  CE1       -1.2570    7.2840  -23.0580 C.ar   67  PHE67      -0.0003
     78  CE2       -0.4210    5.0500  -22.8090 C.ar   67  PHE67      -0.0003
     79  CZ        -0.9790    6.1900  -22.2550 C.ar   67  PHE67      -0.0000
     80  N         -5.0880   12.6770  -25.9020 N.3    72  GLY72      -0.1210
     81  CA        -6.3230   12.0940  -26.4320 C.3    72  GLY72       0.1956
     82  C         -6.0810   10.9790  -27.4450 C.2    72  GLY72       0.2612
     83  O         -6.9430   10.7040  -28.2840 O.2    72  GLY72      -0.2717
     84  N         -4.9220   10.3250  -27.3630 N.am   73  GLN73      -0.1965
     85  CA        -4.6190    9.1620  -28.2270 C.3    73  GLN73       0.1733
     86  C         -5.2770    7.8770  -27.7410 C.2    73  GLN73       0.2616
     87  O         -5.3110    6.8900  -28.4790 O.2    73  GLN73      -0.2715
     88  CB        -3.1180    8.9190  -28.3200 C.3    73  GLN73       0.0408
     89  CG        -2.3560   10.0800  -28.9380 C.3    73  GLN73       0.0908
     90  CD        -0.9170    9.7320  -29.2480 C.2    73  GLN73       0.2608
     91  OE1       -0.4160    8.6740  -28.8610 O.2    73  GLN73      -0.2717
     92  NE2       -0.2460   10.6170  -29.9560 N.am   73  GLN73      -0.0878
     93  N         -5.7930    7.9090  -26.5100 N.am   74  VAL74      -0.1963
     94  CA        -6.4160    6.7660  -25.8570 C.3    74  VAL74       0.1727
     95  C         -7.6710    7.2430  -25.1200 C.2    74  VAL74       0.2616
     96  O         -7.9060    8.4460  -24.9830 O.2    74  VAL74      -0.2715
     97  CB        -5.4480    6.0900  -24.8430 C.3    74  VAL74       0.0290
     98  CG1       -4.3050    5.3830  -25.5620 C.3    74  VAL74       0.0023
     99  CG2       -4.8810    7.0990  -23.8430 C.3    74  VAL74       0.0023
    100  N         -8.4790    6.3020  -24.6460 N.am   75  ILE75      -0.1963
    101  CA        -9.6210    6.6340  -23.7990 C.3    75  ILE75       0.1727
    102  C         -9.2180    7.5480  -22.6360 C.2    75  ILE75       0.2616
    103  O         -8.0780    7.5310  -22.1600 O.2    75  ILE75      -0.2715
    104  CB       -10.3480    5.3820  -23.2470 C.3    75  ILE75       0.0290
    105  CG1       -9.3730    4.4160  -22.5600 C.3    75  ILE75       0.0022
    106  CG2      -11.1180    4.6690  -24.3520 C.3    75  ILE75       0.0023
    107  CD1      -10.0780    3.3550  -21.7440 C.3    75  ILE75       0.0001
    108  N        -10.1800    8.3340  -22.1750 N.am   76  LYS76      -0.1977
    109  CA        -9.9340    9.3580  -21.1650 C.3    76  LYS76       0.1596
    110  C         -9.3460    8.7820  -19.8630 C.2    76  LYS76       0.2287
    111  O         -8.4670    9.3950  -19.2450 O.2    76  LYS76      -0.2864
    112  CB       -11.2380   10.1290  -20.9010 C.3    76  LYS76       0.0298
    113  CG       -11.1000   11.3460  -19.9970 C.3    76  LYS76       0.0038
    114  CD       -10.1130   12.3590  -20.5540 C.3    76  LYS76       0.0206
    115  CE       -10.2260   13.6930  -19.8350 C.3    76  LYS76       0.1093
    116  NZ        -9.1300   14.6140  -20.2290 N.3    76  LYS76      -0.1314
    117  N         -7.3420    6.3090  -19.5020 N.3    78  TRP78      -0.1241
    118  CA        -5.9250    6.0020  -19.6700 C.3    78  TRP78       0.1605
    119  C         -5.0540    7.2330  -19.5040 C.2    78  TRP78       0.2264
    120  O         -4.0220    7.1600  -18.8480 O.2    78  TRP78      -0.2867
    121  CB        -5.6600    5.3120  -21.0070 C.3    78  TRP78       0.0550
    122  CG        -5.6380    3.8350  -20.8690 C.ar   78  TRP78       0.0003
    123  CD1       -6.6110    3.0480  -20.3290 C.ar   78  TRP78       0.0946
    124  CD2       -4.5770    2.9510  -21.2630 C.ar   78  TRP78       0.0152
    125  NE1       -6.2250    1.7290  -20.3640 N.ar   78  TRP78      -0.2442
    126  CE2       -4.9820    1.6430  -20.9350 C.ar   78  TRP78       0.0810
    127  CE3       -3.3320    3.1420  -21.8770 C.ar   78  TRP78       0.0012
    128  CZ2       -4.1880    0.5310  -21.1940 C.ar   78  TRP78       0.0191
    129  CZ3       -2.5410    2.0440  -22.1190 C.ar   78  TRP78       0.0001
    130  CH2       -2.9700    0.7530  -21.7830 C.ar   78  TRP78       0.0015
    131  N        -14.5190    6.1560  -21.2210 N.3   100  ALA100     -0.1231
    132  CA       -14.1350    5.1140  -22.1640 C.3   100  ALA100      0.1694
    133  C        -14.8600    5.3570  -23.4970 C.2   100  ALA100      0.2592
    134  O        -14.5250    6.3120  -24.1970 O.2   100  ALA100     -0.2718
    135  CB       -14.4380    3.7340  -21.5830 C.3   100  ALA100      0.0304
    136  N        -15.8570    4.5380  -23.8400 N.am  101  TYR101     -0.1976
    137  CA       -16.5220    4.6340  -25.1460 C.3   101  TYR101      0.1639
    138  C        -17.9510    5.2060  -25.0840 C.2   101  TYR101      0.2290
    139  O        -18.6490    5.2500  -26.0960 O.2   101  TYR101     -0.2864
    140  CB       -16.5310    3.2650  -25.8280 C.3   101  TYR101      0.0560
    141  CG       -15.1690    2.7830  -26.2870 C.ar  101  TYR101     -0.0198
    142  CD1      -14.6930    3.0890  -27.5570 C.ar  101  TYR101     -0.0009
    143  CD2      -14.3660    2.0080  -25.4590 C.ar  101  TYR101     -0.0009
    144  CE1      -13.4510    2.6410  -27.9880 C.ar  101  TYR101      0.0417
    145  CE2      -13.1230    1.5560  -25.8810 C.ar  101  TYR101      0.0417
    146  CZ       -12.6730    1.8720  -27.1460 C.ar  101  TYR101      0.1957
    147  OH       -11.4470    1.4260  -27.5700 O.3   101  TYR101     -0.2866
    148  N        -17.2320   -4.6490  -31.2450 N.3   109  LYS109     -0.1231
    149  CA       -16.5460   -5.0030  -29.9730 C.3   109  LYS109      0.1693
    150  C        -17.2010   -4.4430  -28.6980 C.2   109  LYS109      0.2591
    151  O        -17.7220   -5.2040  -27.8750 O.2   109  LYS109     -0.2718
    152  CB       -15.0610   -4.5820  -29.9930 C.3   109  LYS109      0.0285
    153  CG       -14.0810   -5.7100  -30.2930 C.3   109  LYS109      0.0035
    154  CD       -12.6750   -5.4000  -29.7870 C.3   109  LYS109      0.0206
    155  CE       -12.0880   -4.1360  -30.4070 C.3   109  LYS109      0.1093
    156  NZ       -12.1800   -4.1040  -31.8930 N.3   109  LYS109     -0.1314
    157  N        -17.1600   -3.1190  -28.5370 N.am  110  ILE110     -0.1980
    158  CA       -17.5850   -2.4810  -27.2880 C.3   110  ILE110      0.1595
    159  C        -19.0470   -2.0480  -27.3890 C.2   110  ILE110      0.2287
    160  O        -19.3860   -1.2180  -28.2310 O.2   110  ILE110     -0.2864
    161  CB       -16.7250   -1.2410  -26.9260 C.3   110  ILE110      0.0276
    162  CG1      -15.2280   -1.4680  -27.2060 C.3   110  ILE110      0.0022
    163  CG2      -16.9500   -0.8470  -25.4690 C.3   110  ILE110      0.0022
    164  CD1      -14.5730   -2.5080  -26.3310 C.3   110  ILE110      0.0001
    165  N        -15.0340   -0.5990  -18.3930 N.3   116  LEU116     -0.1245
    166  CA       -13.8160   -1.3470  -18.7430 C.3   116  LEU116      0.1561
    167  C        -12.8960   -1.5220  -17.5350 C.2   116  LEU116      0.2260
    168  O        -12.7710   -0.6230  -16.6980 O.2   116  LEU116     -0.2867
    169  CB       -13.0370   -0.6500  -19.8560 C.3   116  LEU116      0.0270
    170  CG       -13.7270   -0.2580  -21.1650 C.3   116  LEU116      0.0019
    171  CD1      -12.6700   -0.0620  -22.2510 C.3   116  LEU116      0.0001
    172  CD2      -14.7470   -1.2830  -21.6140 C.3   116  LEU116      0.0001
    173  N         -8.9200   -2.5940  -16.5180 N.3   118  PHE118     -0.1241
    174  CA        -7.5470   -2.7450  -17.0110 C.3   118  PHE118      0.1605
    175  C         -6.5870   -3.0510  -15.8670 C.2   118  PHE118      0.2264
    176  O         -6.7180   -2.5110  -14.7710 O.2   118  PHE118     -0.2867
    177  CB        -7.0490   -1.4560  -17.6850 C.3   118  PHE118      0.0534
    178  CG        -7.7460   -1.1240  -18.9640 C.ar  118  PHE118     -0.0203
    179  CD1       -7.2780   -1.6230  -20.1710 C.ar  118  PHE118     -0.0042
    180  CD2       -8.8660   -0.2990  -18.9690 C.ar  118  PHE118     -0.0042
    181  CE1       -7.9200   -1.3160  -21.3650 C.ar  118  PHE118     -0.0003
    182  CE2       -9.5160    0.0070  -20.1570 C.ar  118  PHE118     -0.0003
    183  CZ        -9.0410   -0.5010  -21.3560 C.ar  118  PHE118     -0.0000
@<TRIPOS>BOND
     1   156   155    1
     2   148   149    1
     3   155   154    1
     4   153   152    1
     5   153   154    1
     6   152   149    1
     7   149   150    1
     8    92    90   am
     9    90    89    1
    10    90    91    2
    11    89    88    1
    12   150   157   am
    13   150   151    2
    14   157   158    1
    15    87    86    2
    16    88    85    1
    17    83    82    2
    18   160   159    2
    19    85    86    1
    20    85    84    1
    21    65    64    2
    22   144   142   ar
    23   144   146   ar
    24    59    57   ar
    25    59    61   ar
    26    86    93   am
    27    66    68    1
    28    66    67    1
    29    66    63    1
    30   147   146    1
    31   142   141   ar
    32    41    40    1
    33    41    42    1
    34    82    84   am
    35    82    81    1
    36   159   158    1
    37   158   161    1
    38    40    39    1
    39    57    56   ar
    40   162   161    1
    41   162   164    1
    42    64    63    1
    43    64    69   am
    44   146   145   ar
    45    61    60   ar
    46    49    48   ar
    47   161   163    1
    48    62    63    1
    49    62    53   am
    50    70    69    1
    51    70    73    1
    52    70    71    1
    53    93    94    1
    54    73    74    1
    55    81    80    1
    56    50    48   ar
    57    48    47    1
    58   141   140    1
    59   141   143   ar
    60    71    72    2
    61    52    53    1
    62    52    51    1
    63    52    55    1
    64   139   138    2
    65    56    55    1
    66    56    58   ar
    67    39    38    1
    68   145   143   ar
    69    12    11    1
    70    53    54    2
    71    94    95    1
    72    94    97    1
    73    60    58   ar
    74   140   137    1
    75    98    97    1
    76    38    35    1
    77    47    44    1
    78   137   138    1
    79   137   136    1
    80    95    96    2
    81    95   100   am
    82    74    75   ar
    83    74    76   ar
    84    35    36    1
    85    35    34    1
    86    97    99    1
    87    44    43    1
    88    44    45    1
    89   100   101    1
    90    11    10   ar
    91    11     9   ar
    92    37    36    2
    93    75    77   ar
    94   106   104    1
    95    10     8   ar
    96   134   133    2
    97    76    78   ar
    98    45    46    2
    99   136   133   am
   100   101   104    1
   101   101   102    1
   102     9     7   ar
   103   133   132    1
   104   104   105    1
   105    77    79   ar
   106     8     6   ar
   107    32    31    1
   108    78    79   ar
   109    33    31    1
   110   102   108   am
   111   102   103    2
   112   105   107    1
   113    31    30    1
   114   171   170    1
   115     7     6   ar
   116   108   109    1
   117   132   135    1
   118   132   131    1
   119   129   127   ar
   120   129   130   ar
   121     6     5    1
   122   127   124   ar
   123   130   128   ar
   124   172   170    1
   125    16    15    2
   126     4     3    2
   127   181   183   ar
   128   181   179   ar
   129   183   182   ar
   130   124   126   ar
   131   124   122   ar
   132   128   126   ar
   133   170   169    1
   134   109   112    1
   135   109   110    1
   136   121   122    1
   137   121   118    1
   138   126   125   ar
   139    30    27    1
   140   112   113    1
   141   122   123   ar
   142     1     2    1
   143    15    17   am
   144    15    14    1
   145    18    17    1
   146    18    19    1
   147    18    21    1
   148    26    19   am
   149    26    27    1
   150   114   113    1
   151   114   115    1
   152     5     2    1
   153     3     2    1
   154    13    14    1
   155   125   123   ar
   156   116   115    1
   157    19    20    2
   158   179   178   ar
   159   182   180   ar
   160    27    28    1
   161    21    22    1
   162   110   111    2
   163   169   166    1
   164   118   119    1
   165   118   117    1
   166   119   120    2
   167   180   178   ar
   168   178   177    1
   169   166   165    1
   170   166   167    1
   171    28    29    2
   172    22    23    1
   173    23    24    1
   174   177   174    1
   175   167   168    2
   176   174   173    1
   177   174   175    1
   178    24    25    1
   179   175   176    2
