@<TRIPOS>MOLECULE
tmp/5diuA00.pdb
 200 194 0 0 0
SMALL
GASTEIGER

@<TRIPOS>ATOM
      1  N          2.7210   -9.1610  -10.2530 N.3    45  TYR45      -0.1241
      2  CA         3.5450   -8.9530  -11.4700 C.3    45  TYR45       0.1605
      3  C          4.4670  -10.1290  -11.7150 C.2    45  TYR45       0.2264
      4  O          4.7570  -10.9000  -10.8090 O.2    45  TYR45      -0.2867
      5  CB         4.2930   -7.6460  -11.4150 C.3    45  TYR45       0.0534
      6  CG         5.5460   -7.7300  -10.6000 C.ar   45  TYR45      -0.0201
      7  CD1        6.7870   -8.0450  -11.1150 C.ar   45  TYR45      -0.0009
      8  CD2        5.4670   -7.5830   -9.2090 C.ar   45  TYR45      -0.0009
      9  CE1        7.8490   -8.2350  -10.3330 C.ar   45  TYR45       0.0417
     10  CE2        6.5140   -7.7470   -8.4310 C.ar   45  TYR45       0.0417
     11  CZ         7.7500   -8.0370   -8.9400 C.ar   45  TYR45       0.1957
     12  OH         8.8710   -8.1890   -8.1390 O.3    45  TYR45      -0.2866
     13  N          8.3160  -10.3320  -14.1080 N.3    47  GLY47      -0.1210
     14  CA         9.2180   -9.5380  -14.9070 C.3    47  GLY47       0.1956
     15  C         10.4050  -10.3360  -15.3680 C.2    47  GLY47       0.2612
     16  O         10.7670  -11.3440  -14.7880 O.2    47  GLY47      -0.2717
     17  N         11.0880   -9.7880  -16.3420 N.am   48  LYS48      -0.1965
     18  CA        12.3060  -10.4400  -16.8490 C.3    48  LYS48       0.1728
     19  C         13.2060   -9.4450  -17.5270 C.2    48  LYS48       0.2616
     20  O         12.7580   -8.3680  -17.9650 O.2    48  LYS48      -0.2715
     21  CB        12.0270  -11.6120  -17.7650 C.3    48  LYS48       0.0311
     22  CG        11.2660  -11.2200  -19.0290 C.3    48  LYS48       0.0038
     23  CD        11.0370  -12.5020  -19.8860 C.3    48  LYS48       0.0206
     24  CE        10.2650  -12.2430  -21.1300 C.3    48  LYS48       0.1093
     25  NZ        10.4310  -13.4300  -22.0460 N.3    48  LYS48      -0.1314
     26  N         14.4880   -9.8230  -17.5860 N.am   49  LEU49      -0.1977
     27  CA        15.3870   -9.1710  -18.5100 C.3    49  LEU49       0.1596
     28  C         15.0210   -9.5910  -19.9240 C.2    49  LEU49       0.2287
     29  O         14.5520  -10.6890  -20.1660 O.2    49  LEU49      -0.2864
     30  CB        16.8320   -9.5250  -18.1870 C.3    49  LEU49       0.0297
     31  CG        17.3920   -9.3210  -16.8330 C.3    49  LEU49       0.0022
     32  CD1       18.8780   -9.7800  -16.7930 C.3    49  LEU49       0.0001
     33  CD2       17.2400   -7.8820  -16.4210 C.3    49  LEU49       0.0001
     34  N         17.0850  -13.8420  -16.3020 N.3    54  LYS54      -0.1245
     35  CA        16.6500  -13.5380  -14.9800 C.3    54  LYS54       0.1561
     36  C         15.1710  -13.1870  -14.9780 C.2    54  LYS54       0.2260
     37  O         14.7330  -12.3510  -15.7280 O.2    54  LYS54      -0.2867
     38  CB        17.4930  -12.4070  -14.4320 C.3    54  LYS54       0.0271
     39  CG        17.1730  -12.0560  -13.0100 C.3    54  LYS54       0.0035
     40  CD        17.1880  -13.2720  -12.1260 C.3    54  LYS54       0.0206
     41  CE        16.1020  -13.1970  -11.0440 C.3    54  LYS54       0.1093
     42  NZ        16.3090  -14.3060  -10.0910 N.3    54  LYS54      -0.1314
     43  N         11.5050  -12.8100  -12.4010 N.3    56  ASP56      -0.1239
     44  CA        10.9640  -12.4760  -11.0550 C.3    56  ASP56       0.1674
     45  C          9.4420  -12.5400  -11.0560 C.2    56  ASP56       0.2266
     46  O          8.8360  -12.1620  -11.9920 O.2    56  ASP56      -0.2867
     47  CB        11.5030  -11.0870  -10.6950 C.3    56  ASP56       0.1410
     48  CG        10.9580  -10.5180   -9.4370 C.2    56  ASP56       0.3668
     49  OD1       10.8200  -11.2780   -8.4450 O.co2  56  ASP56      -0.2456
     50  OD2       10.7750   -9.2990   -9.4560 O.co2  56  ASP56      -0.2456
     51  N          6.2540  -14.1970   -3.3380 N.3    61  ARG61      -0.1245
     52  CA         6.1890  -13.3710   -2.1160 C.3    61  ARG61       0.1563
     53  C          5.3400  -14.0270   -1.0350 C.2    61  ARG61       0.2260
     54  O          4.4370  -14.7810   -1.3360 O.2    61  ARG61      -0.2867
     55  CB         5.5840  -11.9700   -2.4250 C.3    61  ARG61       0.0307
     56  CG         6.5350  -11.0440   -3.1330 C.3    61  ARG61       0.0489
     57  CD         5.7850   -9.7420   -3.5210 C.3    61  ARG61       0.2205
     58  NE         5.3880   -8.9960   -2.3560 N.pl3  61  ARG61      -0.0865
     59  CZ         6.1620   -8.1640   -1.6630 C.cat  61  ARG61       0.5346
     60  NH1        7.4240   -7.9540   -1.9720 N.pl3  61  ARG61       0.1354
     61  NH2        5.6440   -7.5320   -0.6320 N.pl3  61  ARG61       0.1354
     62  N          2.4400   -7.1600   -3.3030 N.3    65  PHE65      -0.1227
     63  CA         3.4500   -6.0790   -3.7670 C.3    65  PHE65       0.1736
     64  C          2.8420   -4.6880   -3.6720 C.2    65  PHE65       0.2595
     65  O          1.9220   -4.3840   -4.4140 O.2    65  PHE65      -0.2718
     66  CB         4.0710   -6.3180   -5.1930 C.3    65  PHE65       0.0547
     67  CG         5.2540   -5.4610   -5.5340 C.ar   65  PHE65      -0.0202
     68  CD1        6.5170   -5.9340   -5.2690 C.ar   65  PHE65      -0.0042
     69  CD2        5.1910   -4.1620   -5.9960 C.ar   65  PHE65      -0.0042
     70  CE1        7.6400   -5.2560   -5.6200 C.ar   65  PHE65      -0.0003
     71  CE2        6.3240   -3.4400   -6.2860 C.ar   65  PHE65      -0.0003
     72  CZ         7.5790   -3.9900   -6.1070 C.ar   65  PHE65      -0.0000
     73  N          3.2660   -3.8810   -2.7160 N.am   66  VAL66      -0.1966
     74  CA         2.6310   -2.6310   -2.4220 C.3    66  VAL66       0.1727
     75  C          3.6280   -1.5010   -2.4250 C.2    66  VAL66       0.2616
     76  O          4.7930   -1.6470   -2.0220 O.2    66  VAL66      -0.2715
     77  CB         2.0410   -2.6990   -1.0010 C.3    66  VAL66       0.0290
     78  CG1        1.3150   -1.4150   -0.6520 C.3    66  VAL66       0.0023
     79  CG2        1.1490   -3.8520   -0.9690 C.3    66  VAL66       0.0023
     80  N          3.2340   -0.3630   -3.0030 N.am   67  PHE67      -0.1974
     81  CA         4.0510    0.7930   -3.0160 C.3    67  PHE67       0.1639
     82  C          3.2300    2.0440   -3.1850 C.2    67  PHE67       0.2290
     83  O          2.0760    1.9280   -3.5960 O.2    67  PHE67      -0.2864
     84  CB         5.1510    0.7500   -4.0640 C.3    67  PHE67       0.0560
     85  CG         4.7010    0.8290   -5.4960 C.ar   67  PHE67      -0.0200
     86  CD1        4.8220    1.9940   -6.1910 C.ar   67  PHE67      -0.0042
     87  CD2        4.2510   -0.2680   -6.1190 C.ar   67  PHE67      -0.0042
     88  CE1        4.4130    2.0970   -7.5050 C.ar   67  PHE67      -0.0003
     89  CE2        3.9250   -0.2100   -7.4680 C.ar   67  PHE67      -0.0003
     90  CZ         3.9360    0.9880   -8.1320 C.ar   67  PHE67      -0.0000
     91  N          8.9110    7.4350   -6.1010 N.3    72  GLY72      -0.1210
     92  CA        10.2270    6.8600   -6.3170 C.3    72  GLY72       0.1956
     93  C         10.5410    5.6210   -5.4740 C.2    72  GLY72       0.2612
     94  O         11.6740    5.3560   -5.1210 O.2    72  GLY72      -0.2717
     95  N          9.5460    4.8590   -5.1790 N.am   73  GLN73      -0.1965
     96  CA         9.6920    3.5830   -4.5000 C.3    73  GLN73       0.1733
     97  C         10.0300    2.4400   -5.4270 C.2    73  GLN73       0.2616
     98  O         10.4310    1.3690   -5.0240 O.2    73  GLN73      -0.2715
     99  CB         8.4390    3.2730   -3.7230 C.3    73  GLN73       0.0408
    100  CG         8.2630    4.2210   -2.5610 C.3    73  GLN73       0.0908
    101  CD         7.0630    3.9410   -1.7300 C.2    73  GLN73       0.2608
    102  OE1        6.3460    2.9540   -1.8620 O.2    73  GLN73      -0.2717
    103  NE2        6.9100    4.8200   -0.7280 N.am   73  GLN73      -0.0878
    104  N          9.8490    2.7010   -6.7590 N.am   74  VAL74      -0.1963
    105  CA        10.0760    1.7280   -7.8050 C.3    74  VAL74       0.1727
    106  C         10.7370    2.5190   -8.9560 C.2    74  VAL74       0.2616
    107  O         10.8050    3.7070   -8.9490 O.2    74  VAL74      -0.2715
    108  CB         8.7480    1.0730   -8.2840 C.3    74  VAL74       0.0290
    109  CG1        8.1760    0.1560   -7.2000 C.3    74  VAL74       0.0023
    110  CG2        7.7580    2.1680   -8.6930 C.3    74  VAL74       0.0023
    111  N         11.1980    1.7190   -9.9190 N.am   75  ILE75      -0.1963
    112  CA        11.7950    2.3480  -11.0750 C.3    75  ILE75       0.1727
    113  C         10.8510    3.2690  -11.8200 C.2    75  ILE75       0.2616
    114  O          9.6070    3.1190  -11.7570 O.2    75  ILE75      -0.2715
    115  CB        12.3710    1.2670  -12.0510 C.3    75  ILE75       0.0290
    116  CG1       11.3130    0.2740  -12.5360 C.3    75  ILE75       0.0022
    117  CG2       13.6030    0.5910  -11.4470 C.3    75  ILE75       0.0023
    118  CD1       11.7300   -0.6270  -13.6850 C.3    75  ILE75       0.0001
    119  N         11.3740    4.2530  -12.5460 N.am   76  LYS76      -0.1977
    120  CA        10.5830    5.2580  -13.2440 C.3    76  LYS76       0.1596
    121  C          9.5220    4.6490  -14.1490 C.2    76  LYS76       0.2287
    122  O          8.4050    5.1290  -14.1600 O.2    76  LYS76      -0.2864
    123  CB        11.4590    6.1870  -14.0750 C.3    76  LYS76       0.0298
    124  CG        12.4290    7.0710  -13.2330 C.3    76  LYS76       0.0038
    125  CD        13.3610    7.9220  -14.1050 C.3    76  LYS76       0.0206
    126  CE        14.6050    8.4830  -13.3740 C.3    76  LYS76       0.1093
    127  NZ        14.6850    9.9490  -13.3940 N.3    76  LYS76      -0.1314
    128  N          7.7410    2.1280  -13.8090 N.3    78  TRP78      -0.1241
    129  CA         6.5570    1.7140  -13.0370 C.3    78  TRP78       0.1605
    130  C          5.7710    2.8880  -12.5050 C.2    78  TRP78       0.2264
    131  O          4.5190    2.8520  -12.5310 O.2    78  TRP78      -0.2867
    132  CB         6.9570    0.7870  -11.9120 C.3    78  TRP78       0.0550
    133  CG         6.9870   -0.6560  -12.2650 C.ar   78  TRP78       0.0003
    134  CD1        7.6080   -1.2610  -13.3500 C.ar   78  TRP78       0.0946
    135  CD2        6.3650   -1.7200  -11.5590 C.ar   78  TRP78       0.0152
    136  NE1        7.4260   -2.6100  -13.3120 N.ar   78  TRP78      -0.2442
    137  CE2        6.6520   -2.9280  -12.2010 C.ar   78  TRP78       0.0810
    138  CE3        5.5990   -1.7560  -10.3670 C.ar   78  TRP78       0.0012
    139  CZ2        6.1780   -4.1120  -11.7420 C.ar   78  TRP78       0.0191
    140  CZ3        5.1620   -2.9330   -9.9590 C.ar   78  TRP78       0.0001
    141  CH2        5.4040   -4.1140  -10.5940 C.ar   78  TRP78       0.0015
    142  N         14.7540    2.5190  -16.0840 N.3   100  ALA100     -0.1231
    143  CA        14.9850    1.3700  -15.2240 C.3   100  ALA100      0.1694
    144  C         16.3310    1.5910  -14.5080 C.2   100  ALA100      0.2592
    145  O         16.3360    2.4550  -13.6030 O.2   100  ALA100     -0.2718
    146  CB        14.8960    0.0640  -16.0390 C.3   100  ALA100      0.0304
    147  N         17.3900    0.8500  -14.8380 N.am  101  TYR101     -0.1976
    148  CA        18.6150    0.9130  -14.0840 C.3   101  TYR101      0.1639
    149  C         19.7100    1.5750  -14.8090 C.2   101  TYR101      0.2290
    150  O         20.8450    1.6360  -14.3010 O.2   101  TYR101     -0.2864
    151  CB        18.9530   -0.4820  -13.6200 C.3   101  TYR101      0.0560
    152  CG        17.9270   -1.1620  -12.7680 C.ar  101  TYR101     -0.0198
    153  CD1       17.9360   -0.9630  -11.3660 C.ar  101  TYR101     -0.0009
    154  CD2       16.8630   -1.8740  -13.2910 C.ar  101  TYR101     -0.0009
    155  CE1       16.9790   -1.5480  -10.5790 C.ar  101  TYR101      0.0417
    156  CE2       15.8690   -2.4260  -12.4840 C.ar  101  TYR101      0.0417
    157  CZ        15.9130   -2.2290  -11.0990 C.ar  101  TYR101      0.1957
    158  OH        14.9350   -2.7470  -10.2970 O.3   101  TYR101     -0.2866
    159  N         22.2870   -2.7750  -11.9400 N.3   106  SER106     -0.1217
    160  CA        22.1670   -3.1070  -10.5230 C.3   106  SER106      0.1889
    161  C         22.8300   -4.4750  -10.3980 C.2   106  SER106      0.2288
    162  O         22.1450   -5.5340  -10.3600 O.2   106  SER106     -0.2866
    163  CB        20.6920   -3.1230  -10.0700 C.3   106  SER106      0.2089
    164  OG        20.6310   -3.3740   -8.6580 O.3   106  SER106     -0.2183
    165  N         22.7640   -8.7780  -10.5700 N.3   109  LYS109     -0.1231
    166  CA        21.4230   -9.1540  -11.0950 C.3   109  LYS109      0.1693
    167  C         21.0210   -8.4730  -12.4540 C.2   109  LYS109      0.2591
    168  O         20.6120   -9.1370  -13.3750 O.2   109  LYS109     -0.2718
    169  CB        20.3850   -8.7480  -10.0910 C.3   109  LYS109      0.0285
    170  CG        18.9540   -9.2190  -10.4060 C.3   109  LYS109      0.0035
    171  CD        17.9900   -8.9980   -9.2330 C.3   109  LYS109      0.0206
    172  CE        17.8190  -10.2090   -8.3410 C.3   109  LYS109      0.1093
    173  NZ        16.5140  -10.0840   -7.6650 N.3   109  LYS109     -0.1314
    174  N         21.1020   -7.1500  -12.5220 N.am  110  ILE110     -0.1980
    175  CA        20.7130   -6.3830  -13.6700 C.3   110  ILE110      0.1595
    176  C         21.9790   -5.7680  -14.3620 C.2   110  ILE110      0.2287
    177  O         22.6480   -4.9090  -13.7990 O.2   110  ILE110     -0.2864
    178  CB        19.7830   -5.1400  -13.3310 C.3   110  ILE110      0.0276
    179  CG1       18.6550   -5.3160  -12.2920 C.3   110  ILE110      0.0022
    180  CG2       19.2230   -4.5390  -14.6040 C.3   110  ILE110      0.0022
    181  CD1       17.6240   -6.1770  -12.6900 C.3   110  ILE110      0.0001
    182  N         13.8940   -4.1220  -19.7030 N.3   116  LEU116     -0.1245
    183  CA        13.0920   -5.0330  -18.8620 C.3   116  LEU116      0.1561
    184  C         11.6710   -5.1600  -19.4080 C.2   116  LEU116      0.2260
    185  O         11.1360   -4.2020  -19.9570 O.2   116  LEU116     -0.2867
    186  CB        13.0150   -4.5010  -17.4320 C.3   116  LEU116      0.0270
    187  CG        14.1990   -4.0810  -16.6220 C.3   116  LEU116      0.0019
    188  CD1       13.9310   -4.3740  -15.1300 C.3   116  LEU116      0.0001
    189  CD2       15.5020   -4.6670  -16.9650 C.3   116  LEU116      0.0001
    190  N          7.7510   -6.5050  -18.2210 N.3   118  PHE118     -0.1241
    191  CA         6.8680   -6.8210  -17.0910 C.3   118  PHE118      0.1605
    192  C          5.4440   -7.1410  -17.5930 C.2   118  PHE118      0.2264
    193  O          4.9130   -6.5250  -18.5430 O.2   118  PHE118     -0.2867
    194  CB         6.7460   -5.6900  -16.1200 C.3   118  PHE118      0.0534
    195  CG         8.0150   -5.3460  -15.4240 C.ar  118  PHE118     -0.0203
    196  CD1        8.3830   -5.9950  -14.2530 C.ar  118  PHE118     -0.0042
    197  CD2        8.8190   -4.3610  -15.9050 C.ar  118  PHE118     -0.0042
    198  CE1        9.5380   -5.5810  -13.6000 C.ar  118  PHE118     -0.0003
    199  CE2        9.9570   -3.9700  -15.2680 C.ar  118  PHE118     -0.0003
    200  CZ        10.3490   -4.6150  -14.0900 C.ar  118  PHE118     -0.0000
@<TRIPOS>BOND
     1    25    24    1
     2    24    23    1
     3    29    28    2
     4   185   184    2
     5    28    27    1
     6    23    22    1
     7   182   183    1
     8   184   183    1
     9    22    21    1
    10   183   186    1
    11   193   192    2
    12    27    30    1
    13    27    26    1
    14   190   191    1
    15    30    31    1
    16    20    19    2
    17    21    18    1
    18   192   191    1
    19    26    19   am
    20    19    18    1
    21   186   187    1
    22   191   194    1
    23   189   187    1
    24    18    17    1
    25    31    32    1
    26    31    33    1
    27   187   188    1
    28    17    15   am
    29    34    35    1
    30   194   195    1
    31   142   143    1
    32   146   143    1
    33   197   195   ar
    34   197   199   ar
    35    37    36    2
    36   195   196   ar
    37    15    14    1
    38    15    16    2
    39   199   200   ar
    40   143   144    1
    41    35    36    1
    42    35    38    1
    43    14    13    1
    44   147   144   am
    45   147   148    1
    46   149   150    2
    47   149   148    1
    48   180   178    1
    49   144   145    2
    50    38    39    1
    51   176   177    2
    52   176   175    1
    53   196   198   ar
    54   122   121    2
    55   121   120    1
    56   125   126    1
    57   125   124    1
    58   200   198   ar
    59   148   151    1
    60   123   120    1
    61   123   124    1
    62   128   129    1
    63   118   116    1
    64   175   178    1
    65   175   174    1
    66   151   152    1
    67   127   126    1
    68   168   167    2
    69   134   136   ar
    70   134   133   ar
    71   178   179    1
    72   136   137   ar
    73   154   152   ar
    74   154   156   ar
    75   120   119    1
    76   129   130    1
    77   129   132    1
    78    39    40    1
    79   152   153   ar
    80   181   179    1
    81   119   113   am
    82   116   115    1
    83   131   130    2
    84   174   167   am
    85   156   157   ar
    86   167   166    1
    87    43    44    1
    88   133   132    1
    89   133   135   ar
    90   137   139   ar
    91   137   135   ar
    92    40    41    1
    93   115   117    1
    94   115   112    1
    95    46    45    2
    96   159   160    1
    97   113   114    2
    98   113   112    1
    99   139   141   ar
   100     3     2    1
   101     3     4    2
   102   135   138   ar
   103     2     5    1
   104     2     1    1
   105     5     6    1
   106   153   155   ar
   107     7     6   ar
   108     7     9   ar
   109   157   155   ar
   110   157   158    1
   111   166   165    1
   112   166   169    1
   113   112   111    1
   114    45    44    1
   115    44    47    1
   116    41    42    1
   117    47    48    1
   118     6     8   ar
   119   141   140   ar
   120   160   161    1
   121   160   163    1
   122   170   169    1
   123   170   171    1
   124   161   162    2
   125   138   140   ar
   126     9    11   ar
   127   163   164    1
   128   111   106   am
   129    50    48   ar
   130    48    49   ar
   131   171   172    1
   132     8    10   ar
   133   106   107    2
   134   106   105    1
   135    11    10   ar
   136    11    12    1
   137   110   108    1
   138   172   173    1
   139   108   105    1
   140   108   109    1
   141    90    88   ar
   142    90    89   ar
   143   105   104    1
   144    88    86   ar
   145    89    87   ar
   146   104    97   am
   147    92    91    1
   148    92    93    1
   149    71    72   ar
   150    71    69   ar
   151    86    85   ar
   152    87    85   ar
   153    72    70   ar
   154    69    67   ar
   155    70    68   ar
   156    67    68   ar
   157    67    66    1
   158    85    84    1
   159    93    95   am
   160    93    94    2
   161    97    98    2
   162    97    96    1
   163    66    63    1
   164    95    96    1
   165    96    99    1
   166    65    64    2
   167    84    81    1
   168    63    64    1
   169    63    62    1
   170    99   100    1
   171    64    73   am
   172    83    82    2
   173    57    56    1
   174    57    58    1
   175    51    52    1
   176    82    81    1
   177    56    55    1
   178    81    80    1
   179    80    75   am
   180    73    74    1
   181   100   101    1
   182    75    74    1
   183    75    76    2
   184    55    52    1
   185    74    77    1
   186    58    59    2
   187    52    53    1
   188    60    59    1
   189   102   101    2
   190   101   103   am
   191    59    61    1
   192    54    53    2
   193    77    79    1
   194    77    78    1
