@<TRIPOS>MOLECULE
tmp/5divA00.pdb
 175 170 0 0 0
SMALL
GASTEIGER

@<TRIPOS>ATOM
      1  N         25.4420  -34.9280   -6.5340 N.3    45  TYR45      -0.1241
      2  CA        24.7450  -33.6600   -6.4770 C.3    45  TYR45       0.1605
      3  C         25.0030  -32.8200   -7.7270 C.2    45  TYR45       0.2264
      4  O         25.9740  -33.0290   -8.4890 O.2    45  TYR45      -0.2867
      5  CB        25.1660  -32.8660   -5.2310 C.3    45  TYR45       0.0534
      6  CG        26.5350  -32.2380   -5.3660 C.ar   45  TYR45      -0.0201
      7  CD1       26.6950  -30.9450   -5.8300 C.ar   45  TYR45      -0.0009
      8  CD2       27.6580  -32.9440   -5.0170 C.ar   45  TYR45      -0.0009
      9  CE1       27.9500  -30.3850   -5.9830 C.ar   45  TYR45       0.0417
     10  CE2       28.9240  -32.4010   -5.1590 C.ar   45  TYR45       0.0417
     11  CZ        29.0680  -31.1350   -5.6460 C.ar   45  TYR45       0.1957
     12  OH        30.3170  -30.5810   -5.7670 O.3    45  TYR45      -0.2866
     13  N         24.8290  -28.4630   -8.3110 N.3    47  GLY47      -0.1210
     14  CA        24.6730  -27.2100   -7.5940 C.3    47  GLY47       0.1956
     15  C         24.8830  -26.0240   -8.5050 C.2    47  GLY47       0.2612
     16  O         25.6190  -26.0910   -9.5100 O.2    47  GLY47      -0.2717
     17  N         24.2110  -24.9280   -8.1740 N.am   48  LYS48      -0.1965
     18  CA        24.3770  -23.7020   -8.9260 C.3    48  LYS48       0.1728
     19  C         24.0130  -22.4710   -8.1140 C.2    48  LYS48       0.2616
     20  O         23.2320  -22.5420   -7.1630 O.2    48  LYS48      -0.2715
     21  CB        23.5180  -23.7480  -10.1840 C.3    48  LYS48       0.0311
     22  CG        22.0360  -23.8870   -9.9140 C.3    48  LYS48       0.0038
     23  CD        21.2590  -23.8210  -11.2080 C.3    48  LYS48       0.0206
     24  CE        19.7670  -23.6700  -10.9370 C.3    48  LYS48       0.1093
     25  NZ        19.0370  -23.6440  -12.2390 N.3    48  LYS48      -0.1314
     26  N         24.5860  -21.3270   -8.4870 N.am   49  LEU49      -0.1977
     27  CA        24.1270  -20.0760   -7.9220 C.3    49  LEU49       0.1596
     28  C         22.6990  -19.9300   -8.4120 C.2    49  LEU49       0.2287
     29  O         22.3920  -20.3390   -9.5330 O.2    49  LEU49      -0.2864
     30  CB        24.9950  -18.8990   -8.3840 C.3    49  LEU49       0.0297
     31  CG        26.4930  -19.0640   -8.1070 C.3    49  LEU49       0.0022
     32  CD1       27.2740  -17.8860   -8.6680 C.3    49  LEU49       0.0001
     33  CD2       26.7300  -19.2280   -6.6130 C.3    49  LEU49       0.0001
     34  N         27.2250  -19.9770  -12.0100 N.3    54  LYS54      -0.1231
     35  CA        28.1750  -21.0660  -11.8100 C.3    54  LYS54       0.1693
     36  C         27.3780  -22.3420  -11.6070 C.2    54  LYS54       0.2592
     37  O         26.2690  -22.2970  -11.0830 O.2    54  LYS54      -0.2718
     38  CB        29.0330  -20.8380  -10.5690 C.3    54  LYS54       0.0285
     39  CG        29.5880  -19.4310  -10.3950 C.3    54  LYS54       0.0035
     40  CD        30.9540  -19.2230  -11.0220 C.3    54  LYS54       0.0206
     41  CE        31.6010  -17.9300  -10.5150 C.3    54  LYS54       0.1093
     42  NZ        30.6600  -16.7830  -10.3200 N.3    54  LYS54      -0.1314
     43  N         27.9600  -23.4520  -12.0310 N.am   55  PHE55      -0.1962
     44  CA        27.3490  -24.7790  -11.9410 C.3    55  PHE55       0.1771
     45  C         28.4210  -25.7800  -11.5280 C.2    55  PHE55       0.2619
     46  O         29.5800  -25.6850  -11.9710 O.2    55  PHE55      -0.2715
     47  CB        26.7850  -25.1470  -13.3140 C.3    55  PHE55       0.0574
     48  CG        26.0480  -26.4420  -13.3360 C.ar   55  PHE55      -0.0200
     49  CD1       26.7020  -27.6090  -13.6520 C.ar   55  PHE55      -0.0042
     50  CD2       24.6960  -26.4800  -13.0320 C.ar   55  PHE55      -0.0042
     51  CE1       26.0450  -28.8230  -13.6580 C.ar   55  PHE55      -0.0003
     52  CE2       24.0110  -27.6880  -13.0290 C.ar   55  PHE55      -0.0003
     53  CZ        24.6900  -28.8640  -13.3430 C.ar   55  PHE55      -0.0000
     54  N         28.0550  -26.7710  -10.7220 N.am   56  ASP56      -0.1971
     55  CA        28.9800  -27.7580  -10.2440 C.3    56  ASP56       0.1709
     56  C         28.2290  -29.0830  -10.1480 C.2    56  ASP56       0.2293
     57  O         27.0460  -29.0960   -9.7570 O.2    56  ASP56      -0.2864
     58  CB        29.4600  -27.3170   -8.8530 C.3    56  ASP56       0.1436
     59  CG        30.3400  -28.3290   -8.1740 C.2    56  ASP56       0.3671
     60  OD1       31.1200  -29.0420   -8.8400 O.co2  56  ASP56      -0.2456
     61  OD2       30.2640  -28.3980   -6.9290 O.co2  56  ASP56      -0.2456
     62  N         32.4590  -35.2210  -12.6140 N.3    61  ARG61      -0.1245
     63  CA        33.7450  -35.7730  -12.1450 C.3    61  ARG61       0.1563
     64  C         33.7840  -37.3120  -12.0830 C.2    61  ARG61       0.2260
     65  O         34.8430  -37.9090  -11.7850 O.2    61  ARG61      -0.2867
     66  CB        34.0670  -35.2370  -10.7560 C.3    61  ARG61       0.0307
     67  CG        34.4660  -33.7740  -10.7270 C.3    61  ARG61       0.0489
     68  CD        34.8780  -33.3640   -9.3280 C.3    61  ARG61       0.2205
     69  NE        33.7860  -33.4150   -8.3520 N.pl3  61  ARG61      -0.0865
     70  CZ        32.9140  -32.4330   -8.0990 C.cat  61  ARG61       0.5346
     71  NH1       32.9470  -31.2710   -8.7540 N.pl3  61  ARG61       0.1354
     72  NH2       31.9730  -32.6310   -7.1720 N.pl3  61  ARG61       0.1354
     73  N         30.4820  -37.5830   -4.0780 N.3    65  PHE65      -0.1241
     74  CA        30.9780  -36.6730   -3.0760 C.3    65  PHE65       0.1605
     75  C         30.7420  -37.2830   -1.6820 C.2    65  PHE65       0.2264
     76  O         29.6310  -37.7100   -1.3620 O.2    65  PHE65      -0.2867
     77  CB        30.3350  -35.2890   -3.2310 C.3    65  PHE65       0.0534
     78  CG        30.7250  -34.3280   -2.1450 C.ar   65  PHE65      -0.0203
     79  CD1       32.0520  -33.9320   -1.9900 C.ar   65  PHE65      -0.0042
     80  CD2       29.7870  -33.8520   -1.2540 C.ar   65  PHE65      -0.0042
     81  CE1       32.4240  -33.0630   -0.9780 C.ar   65  PHE65      -0.0003
     82  CE2       30.1430  -32.9650   -0.2430 C.ar   65  PHE65      -0.0003
     83  CZ        31.4640  -32.5760   -0.0940 C.ar   65  PHE65      -0.0000
     84  N         32.0340  -29.8460    7.7910 N.3    73  GLN73      -0.1231
     85  CA        32.8360  -30.1680    6.6020 C.3    73  GLN73       0.1698
     86  C         32.1770  -29.6390    5.3250 C.2    73  GLN73       0.2592
     87  O         32.8040  -29.6310    4.2570 O.2    73  GLN73      -0.2718
     88  CB        33.0120  -31.6830    6.4340 C.3    73  GLN73       0.0381
     89  CG        33.7490  -32.3900    7.5610 C.3    73  GLN73       0.0905
     90  CD        34.0960  -33.8380    7.2390 C.2    73  GLN73       0.2608
     91  OE1       33.7320  -34.3850    6.1840 O.2    73  GLN73      -0.2717
     92  NE2       34.8400  -34.4710    8.1520 N.am   73  GLN73      -0.0878
     93  N         30.9080  -29.2460    5.4360 N.am   74  VAL74      -0.1966
     94  CA        30.1100  -28.6850    4.3270 C.3    74  VAL74       0.1727
     95  C         29.3140  -27.4880    4.8210 C.2    74  VAL74       0.2616
     96  O         29.1700  -27.2920    6.0410 O.2    74  VAL74      -0.2715
     97  CB        29.1300  -29.7350    3.7540 C.3    74  VAL74       0.0290
     98  CG1       29.9010  -30.7940    3.0190 C.3    74  VAL74       0.0023
     99  CG2       28.3020  -30.3770    4.8600 C.3    74  VAL74       0.0023
    100  N         28.7240  -26.7290    3.9010 N.am   75  ILE75      -0.1977
    101  CA        27.9190  -25.5670    4.2620 C.3    75  ILE75       0.1596
    102  C         26.7810  -26.0260    5.1710 C.2    75  ILE75       0.2287
    103  O         26.3500  -27.1720    5.0620 O.2    75  ILE75      -0.2864
    104  CB        27.4060  -24.7610    3.0530 C.3    75  ILE75       0.0276
    105  CG1       26.6070  -25.6390    2.0760 C.3    75  ILE75       0.0022
    106  CG2       28.5580  -24.0880    2.3150 C.3    75  ILE75       0.0022
    107  CD1       25.8040  -24.8610    1.0760 C.3    75  ILE75       0.0001
    108  N         23.7030  -28.0640    3.9850 N.3    78  TRP78      -0.1241
    109  CA        23.9150  -29.4810    3.6780 C.3    78  TRP78       0.1605
    110  C         23.8740  -30.3170    4.9510 C.2    78  TRP78       0.2264
    111  O         23.2730  -31.4150    4.9910 O.2    78  TRP78      -0.2867
    112  CB        25.2560  -29.6740    2.9460 C.3    78  TRP78       0.0550
    113  CG        25.1470  -29.6320    1.4740 C.ar   78  TRP78       0.0003
    114  CD1       24.6250  -28.6290    0.7310 C.ar   78  TRP78       0.0946
    115  CD2       25.5860  -30.6360    0.5430 C.ar   78  TRP78       0.0152
    116  NE1       24.6950  -28.9330   -0.6020 N.ar   78  TRP78      -0.2442
    117  CE2       25.2780  -30.1600   -0.7540 C.ar   78  TRP78       0.0810
    118  CE3       26.1640  -31.8910    0.6770 C.ar   78  TRP78       0.0012
    119  CZ2       25.5270  -30.8950   -1.8990 C.ar   78  TRP78       0.0191
    120  CZ3       26.4530  -32.6050   -0.4470 C.ar   78  TRP78       0.0001
    121  CH2       26.1210  -32.1210   -1.7350 C.ar   78  TRP78       0.0015
    122  N         27.4870  -19.2950    2.3700 N.3   101  TYR101     -0.1241
    123  CA        28.7790  -18.5840    2.4520 C.3   101  TYR101      0.1605
    124  C         28.6500  -17.1260    2.9590 C.2   101  TYR101      0.2264
    125  O         29.6570  -16.4210    3.0250 O.2   101  TYR101     -0.2867
    126  CB        29.4790  -18.6250    1.1010 C.3   101  TYR101      0.0534
    127  CG        29.8240  -20.0340    0.6600 C.ar  101  TYR101     -0.0201
    128  CD1       31.0050  -20.6450    1.0550 C.ar  101  TYR101     -0.0009
    129  CD2       28.9440  -20.7610   -0.1330 C.ar  101  TYR101     -0.0009
    130  CE1       31.3090  -21.9450    0.6700 C.ar  101  TYR101      0.0417
    131  CE2       29.2530  -22.0510   -0.5290 C.ar  101  TYR101      0.0417
    132  CZ        30.4180  -22.6390   -0.1180 C.ar  101  TYR101      0.1957
    133  OH        30.7160  -23.9380   -0.5170 O.3   101  TYR101     -0.2866
    134  N         33.0270  -16.8370   -1.1950 N.3   106  SER106     -0.1217
    135  CA        34.2320  -17.6110   -1.2590 C.3   106  SER106      0.1889
    136  C         34.8140  -17.3500   -2.6320 C.2   106  SER106      0.2288
    137  O         34.1370  -17.5240   -3.6230 O.2   106  SER106     -0.2866
    138  CB        33.9100  -19.0960   -1.0560 C.3   106  SER106      0.2089
    139  OG        35.0640  -19.9000   -1.2070 O.3   106  SER106     -0.2183
    140  N         34.4050  -18.7570   -6.6540 N.3   109  LYS109     -0.1231
    141  CA        33.1200  -19.3260   -7.1240 C.3   109  LYS109      0.1693
    142  C         31.8810  -18.6370   -6.5750 C.2   109  LYS109      0.2591
    143  O         30.8610  -18.5240   -7.2720 O.2   109  LYS109     -0.2718
    144  CB        33.0170  -20.8330   -6.8100 C.3   109  LYS109      0.0285
    145  CG        33.6230  -21.7580   -7.8530 C.3   109  LYS109      0.0035
    146  CD        34.1250  -23.0550   -7.2340 C.3   109  LYS109      0.0206
    147  CE        34.1400  -24.2260   -8.2080 C.3   109  LYS109      0.1093
    148  NZ        34.5490  -23.9090   -9.6030 N.3   109  LYS109     -0.1314
    149  N         31.9360  -18.2180   -5.3170 N.am  110  ILE110     -0.1980
    150  CA        30.7260  -17.7550   -4.6550 C.3   110  ILE110      0.1595
    151  C         30.7790  -16.2640   -4.3460 C.2   110  ILE110      0.2287
    152  O         31.5690  -15.8240   -3.4990 O.2   110  ILE110     -0.2864
    153  CB        30.4360  -18.5200   -3.3550 C.3   110  ILE110      0.0276
    154  CG1       30.7190  -20.0040   -3.5080 C.3   110  ILE110      0.0022
    155  CG2       28.9940  -18.2880   -2.9290 C.3   110  ILE110      0.0022
    156  CD1       29.8450  -20.7050   -4.5140 C.3   110  ILE110      0.0001
    157  N         22.0950  -20.3680   -2.9770 N.3   116  LEU116     -0.1245
    158  CA        22.5350  -21.5340   -3.7400 C.3   116  LEU116      0.1561
    159  C         21.4080  -22.5520   -3.8890 C.2   116  LEU116      0.2260
    160  O         20.5860  -22.7500   -2.9660 O.2   116  LEU116     -0.2867
    161  CB        23.7110  -22.2310   -3.0510 C.3   116  LEU116      0.0270
    162  CG        24.9240  -21.4470   -2.5190 C.3   116  LEU116      0.0019
    163  CD1       26.0670  -22.4190   -2.3060 C.3   116  LEU116      0.0001
    164  CD2       25.3490  -20.3370   -3.4520 C.3   116  LEU116      0.0001
    165  N         20.6400  -26.6620   -4.9190 N.3   118  PHE118     -0.1241
    166  CA        21.2160  -28.0030   -5.0940 C.3   118  PHE118      0.1605
    167  C         20.1870  -29.0910   -5.3550 C.2   118  PHE118      0.2264
    168  O         19.0920  -29.0910   -4.7510 O.2   118  PHE118     -0.2867
    169  CB        21.9410  -28.4510   -3.8350 C.3   118  PHE118      0.0534
    170  CG        23.1470  -27.6300   -3.4830 C.ar  118  PHE118     -0.0203
    171  CD1       24.3690  -27.9500   -4.0150 C.ar  118  PHE118     -0.0042
    172  CD2       23.0580  -26.6020   -2.5500 C.ar  118  PHE118     -0.0042
    173  CE1       25.4960  -27.2390   -3.6580 C.ar  118  PHE118     -0.0003
    174  CE2       24.1780  -25.8700   -2.2140 C.ar  118  PHE118     -0.0003
    175  CZ        25.4060  -26.1990   -2.7790 C.ar  118  PHE118     -0.0000
@<TRIPOS>BOND
     1    51    49   ar
     2    51    53   ar
     3    49    48   ar
     4    53    52   ar
     5    48    47    1
     6    48    50   ar
     7    47    44    1
     8    50    52   ar
     9    62    63    1
    10    25    24    1
    11    63    64    1
    12    63    66    1
    13    64    65    2
    14    43    44    1
    15    43    36   am
    16    34    35    1
    17    46    45    2
    18    44    45    1
    19    35    36    1
    20    35    38    1
    21    36    37    2
    22    45    54   am
    23    23    24    1
    24    23    22    1
    25    40    41    1
    26    40    39    1
    27    66    67    1
    28    67    68    1
    29    54    55    1
    30    38    39    1
    31    41    42    1
    32    55    56    1
    33    55    58    1
    34    21    22    1
    35    21    18    1
    36    56    57    2
    37   148   147    1
    38    29    28    2
    39    16    15    2
    40    68    69    1
    41    18    17    1
    42    18    19    1
    43    58    59    1
    44    60    59   ar
    45    71    70    1
    46    32    31    1
    47    15    17   am
    48    15    14    1
    49     4     3    2
    50    26    19   am
    51    26    27    1
    52    28    27    1
    53    30    31    1
    54    30    27    1
    55    69    70    2
    56    13    14    1
    57   147   146    1
    58    59    61   ar
    59    19    20    2
    60    31    33    1
    61    70    72    1
    62   145   146    1
    63   145   144    1
    64     3     2    1
    65   143   142    2
    66   141   144    1
    67   141   140    1
    68   141   142    1
    69   142   149   am
    70     1     2    1
    71     2     5    1
    72     9     7   ar
    73     9    11   ar
    74     7     6   ar
    75    12    11    1
    76    11    10   ar
    77     6     5    1
    78     6     8   ar
    79   167   166    1
    80   167   168    2
    81   149   150    1
    82    10     8   ar
    83   166   165    1
    84   166   169    1
    85   150   151    1
    86   150   153    1
    87   156   154    1
    88   151   152    2
    89    73    74    1
    90   171   173   ar
    91   171   170   ar
    92   159   158    1
    93   159   160    2
    94   169   170    1
    95   158   161    1
    96   158   157    1
    97   173   175   ar
    98   137   136    2
    99   154   153    1
   100   170   172   ar
   101   164   162    1
   102   153   155    1
   103    77    74    1
   104    77    78    1
   105    74    75    1
   106   161   162    1
   107   175   174   ar
   108   136   135    1
   109   172   174   ar
   110   162   163    1
   111    78    79   ar
   112    78    80   ar
   113    79    81   ar
   114   119   121   ar
   115   119   117   ar
   116   121   120   ar
   117    75    76    2
   118   135   134    1
   119   135   138    1
   120    80    82   ar
   121   139   138    1
   122    81    83   ar
   123   117   116   ar
   124   117   115   ar
   125   116   114   ar
   126   131   129   ar
   127   131   132   ar
   128   133   132    1
   129   120   118   ar
   130    82    83   ar
   131   129   127   ar
   132   132   130   ar
   133   115   118   ar
   134   115   113   ar
   135   127   128   ar
   136   127   126    1
   137   130   128   ar
   138   114   113   ar
   139   107   105    1
   140   126   123    1
   141   113   112    1
   142   105   104    1
   143   106   104    1
   144   122   123    1
   145   123   124    1
   146   112   109    1
   147   124   125    2
   148    98    97    1
   149   104   101    1
   150   109   108    1
   151   109   110    1
   152    97    94    1
   153    97    99    1
   154   100   101    1
   155   100    95   am
   156    87    86    2
   157   101   102    1
   158    94    95    1
   159    94    93    1
   160    95    96    2
   161   110   111    2
   162   103   102    2
   163    86    93   am
   164    86    85    1
   165    91    90    2
   166    88    85    1
   167    88    89    1
   168    85    84    1
   169    90    89    1
   170    90    92   am
