@<TRIPOS>MOLECULE
tmp/5diyC01.pdb
 143 135 0 0 0
SMALL
GASTEIGER

@<TRIPOS>ATOM
      1  N        -20.1170   33.5490   11.4250 N.3    11  GLY11      -0.1210
      2  CA       -20.5410   32.1420   11.4720 C.3    11  GLY11       0.1956
      3  C        -21.1380   31.6980   12.7970 C.2    11  GLY11       0.2612
      4  O        -21.1890   30.5040   13.0970 O.2    11  GLY11      -0.2717
      5  N        -21.6250   32.6580   13.5740 N.am   12  PHE12      -0.1962
      6  CA       -22.1200   32.3920   14.9270 C.3    12  PHE12       0.1771
      7  C        -23.6170   32.0970   14.9120 C.2    12  PHE12       0.2619
      8  O        -24.2900   32.3450   13.9130 O.2    12  PHE12      -0.2715
      9  CB       -21.7890   33.5570   15.8780 C.3    12  PHE12       0.0574
     10  CG       -22.2160   34.9110   15.3710 C.ar   12  PHE12      -0.0200
     11  CD1      -23.5530   35.2890   15.3880 C.ar   12  PHE12      -0.0042
     12  CD2      -21.2800   35.7990   14.8550 C.ar   12  PHE12      -0.0042
     13  CE1      -23.9460   36.5220   14.9000 C.ar   12  PHE12      -0.0003
     14  CE2      -21.6670   37.0350   14.3700 C.ar   12  PHE12      -0.0003
     15  CZ       -23.0000   37.3960   14.3910 C.ar   12  PHE12      -0.0000
     16  N        -24.1040   31.5320   16.0140 N.am   13  TYR13      -0.1974
     17  CA       -25.5340   31.4310   16.3030 C.3    13  TYR13       0.1639
     18  C        -25.9510   32.7130   17.0260 C.2    13  TYR13       0.2290
     19  O        -25.1230   33.3830   17.6530 O.2    13  TYR13      -0.2864
     20  CB       -25.8460   30.2250   17.2000 C.3    13  TYR13       0.0560
     21  CG       -25.5940   28.8500   16.5930 C.ar   13  TYR13      -0.0198
     22  CD1      -24.3190   28.2830   16.5970 C.ar   13  TYR13      -0.0009
     23  CD2      -26.6440   28.0970   16.0470 C.ar   13  TYR13      -0.0009
     24  CE1      -24.0910   27.0170   16.0570 C.ar   13  TYR13       0.0417
     25  CE2      -26.4280   26.8320   15.5070 C.ar   13  TYR13       0.0417
     26  CZ       -25.1530   26.2970   15.5110 C.ar   13  TYR13       0.1957
     27  OH       -24.9380   25.0420   14.9830 O.3    13  TYR13      -0.2866
     28  N        -25.6470   31.4600   11.2580 N.3    42  LYS42      -0.1245
     29  CA       -26.4210   30.2310   11.4720 C.3    42  LYS42       0.1561
     30  C        -27.9330   30.4640   11.4930 C.2    42  LYS42       0.2260
     31  O        -28.6770   29.5840   11.0760 O.2    42  LYS42      -0.2867
     32  CB       -25.9980   29.5200   12.7700 C.3    42  LYS42       0.0271
     33  CG       -24.6670   28.7780   12.7090 C.3    42  LYS42       0.0035
     34  CD       -24.7810   27.4380   11.9840 C.3    42  LYS42       0.0206
     35  CE       -23.5560   26.5590   12.2000 C.3    42  LYS42       0.1093
     36  NZ       -22.2880   27.1690   11.7000 N.3    42  LYS42      -0.1314
     37  N        -20.4230   21.4030    9.3780 N.3   118  ASP118     -0.1225
     38  CA       -20.3530   21.3980   10.8420 C.3   118  ASP118      0.1805
     39  C        -21.7360   21.2090   11.4610 C.2   118  ASP118      0.2597
     40  O        -22.7310   21.6700   10.9100 O.2   118  ASP118     -0.2718
     41  CB       -19.7260   22.6920   11.3730 C.3   118  ASP118      0.1424
     42  CG       -20.4710   23.9430   10.9210 C.2   118  ASP118      0.3668
     43  OD1      -20.6080   24.1420    9.6980 O.co2 118  ASP118     -0.2456
     44  OD2      -20.8970   24.7260   11.7890 O.co2 118  ASP118     -0.2456
     45  N        -21.7800   20.5360   12.6100 N.am  119  ASN119     -0.1974
     46  CA       -23.0110   20.3360   13.3780 C.3   119  ASN119      0.1688
     47  C        -24.1290   19.6970   12.5520 C.2   119  ASN119      0.2292
     48  O        -25.2170   20.2580   12.3870 O.2   119  ASN119     -0.2864
     49  CB       -23.4680   21.6550   14.0130 C.3   119  ASN119      0.1181
     50  CG       -22.3900   22.2980   14.8730 C.2   119  ASN119      0.2629
     51  OD1      -21.4120   21.6540   15.2610 O.2   119  ASN119     -0.2716
     52  ND2      -22.5600   23.5820   15.1660 N.am  119  ASN119     -0.0877
     53  N        -16.0870   23.2060    5.5430 N.3   163  CYS163     -0.1235
     54  CA       -15.9570   22.9040    6.9640 C.3   163  CYS163      0.1677
     55  C        -16.3190   21.4390    7.1530 C.2   163  CYS163      0.2270
     56  O        -17.4250   21.0310    6.7980 O.2   163  CYS163     -0.2867
     57  CB       -16.8540   23.7870    7.8320 C.3   163  CYS163      0.0956
     58  SG       -16.5170   23.5870    9.6080 S.3   163  CYS163     -0.0801
     59  N        -14.3850   18.8380   13.0170 N.3   167  TYR167     -0.1241
     60  CA       -13.6190   20.0820   12.8040 C.3   167  TYR167      0.1605
     61  C        -12.7100   20.5070   13.9670 C.2   167  TYR167      0.2264
     62  O        -12.1050   21.5770   13.9150 O.2   167  TYR167     -0.2867
     63  CB       -14.5730   21.2370   12.4390 C.3   167  TYR167      0.0534
     64  CG       -15.6910   21.5050   13.4310 C.ar  167  TYR167     -0.0201
     65  CD1      -15.4700   22.2490   14.5930 C.ar  167  TYR167     -0.0009
     66  CD2      -16.9740   21.0280   13.1950 C.ar  167  TYR167     -0.0009
     67  CE1      -16.5040   22.4950   15.4960 C.ar  167  TYR167      0.0417
     68  CE2      -18.0090   21.2650   14.0830 C.ar  167  TYR167      0.0417
     69  CZ       -17.7770   22.0020   15.2300 C.ar  167  TYR167      0.1957
     70  OH       -18.8200   22.2210   16.0960 O.3   167  TYR167     -0.2866
     71  N        -10.9940   24.1580   13.8540 N.3   192  THR192     -0.1218
     72  CA       -11.1190   25.0930   14.9920 C.3   192  THR192      0.1862
     73  C        -10.0800   24.8930   16.0970 C.2   192  THR192      0.2287
     74  O         -9.9330   25.7570   16.9570 O.2   192  THR192     -0.2866
     75  CB       -12.5550   25.1050   15.6000 C.3   192  THR192      0.1770
     76  OG1      -12.7890   23.9170   16.3660 O.3   192  THR192     -0.2211
     77  CG2      -13.6200   25.2110   14.5060 C.3   192  THR192      0.0375
     78  N        -13.7120   23.2670   20.3400 N.3   196  VAL196     -0.1231
     79  CA       -14.5940   24.1070   19.5280 C.3   196  VAL196      0.1692
     80  C        -14.1010   25.5450   19.6380 C.2   196  VAL196      0.2592
     81  O        -13.8050   26.1850   18.6300 O.2   196  VAL196     -0.2718
     82  CB       -16.0820   23.9980   19.9620 C.3   196  VAL196      0.0266
     83  CG1      -16.9400   25.0370   19.2540 C.3   196  VAL196      0.0020
     84  CG2      -16.6140   22.5950   19.6970 C.3   196  VAL196      0.0020
     85  N        -14.0060   26.0240   20.8760 N.am  197  CYS197     -0.1970
     86  CA       -13.3360   27.2740   21.2010 C.3   197  CYS197      0.1712
     87  C        -12.0220   26.8830   21.8630 C.2   197  CYS197      0.2296
     88  O        -12.0140   26.4690   23.0210 O.2   197  CYS197     -0.2864
     89  CB       -14.1990   28.0950   22.1530 C.3   197  CYS197      0.0983
     90  SG       -15.8400   28.4230   21.4980 S.3   197  CYS197     -0.0798
     91  N        -10.7280   28.2210   11.4840 N.3   220  TRP220     -0.1241
     92  CA       -11.9740   28.8340   11.9290 C.3   220  TRP220      0.1605
     93  C        -11.7490   29.0070   13.4200 C.2   220  TRP220      0.2264
     94  O        -11.9230   28.0670   14.1820 O.2   220  TRP220     -0.2867
     95  CB       -13.1530   27.8860   11.6530 C.3   220  TRP220      0.0550
     96  CG       -14.5300   28.3690   12.0460 C.ar  220  TRP220      0.0003
     97  CD1      -14.8810   29.1020   13.1510 C.ar  220  TRP220      0.0946
     98  CD2      -15.7490   28.1130   11.3400 C.ar  220  TRP220      0.0152
     99  NE1      -16.2300   29.3250   13.1590 N.ar  220  TRP220     -0.2442
    100  CE2      -16.7910   28.7300   12.0650 C.ar  220  TRP220      0.0810
    101  CE3      -16.0600   27.4290   10.1590 C.ar  220  TRP220      0.0012
    102  CZ2      -18.1230   28.6860   11.6500 C.ar  220  TRP220      0.0191
    103  CZ3      -17.3850   27.3790    9.7470 C.ar  220  TRP220      0.0001
    104  CH2      -18.4010   28.0080   10.4910 C.ar  220  TRP220      0.0015
    105  N        -12.7320   30.2210   16.9180 N.3   222  ASN222     -0.1240
    106  CA       -13.9460   30.5950   17.6400 C.3   222  ASN222      0.1653
    107  C        -13.6340   31.4800   18.8380 C.2   222  ASN222      0.2266
    108  O        -13.8180   31.0880   19.9940 O.2   222  ASN222     -0.2867
    109  CB       -14.7260   29.3460   18.0820 C.3   222  ASN222      0.1155
    110  CG       -15.4680   28.6780   16.9450 C.2   222  ASN222      0.2627
    111  OD1      -15.2730   27.4980   16.6740 O.2   222  ASN222     -0.2716
    112  ND2      -16.3560   29.4080   16.3090 N.am  222  ASN222     -0.0877
    113  N        -16.3830   34.8650   19.6430 N.3   225  VAL225     -0.1245
    114  CA       -17.7700   34.3440   19.7600 C.3   225  VAL225      0.1561
    115  C        -18.2250   34.0300   21.1730 C.2   225  VAL225      0.2260
    116  O        -17.5540   33.2850   21.8780 O.2   225  VAL225     -0.2867
    117  CB       -18.0620   33.0020   19.0240 C.3   225  VAL225      0.0252
    118  CG1      -18.8770   33.2220   17.7850 C.3   225  VAL225      0.0019
    119  CG2      -16.8200   32.1520   18.7830 C.3   225  VAL225      0.0019
    120  N        -21.7250   32.8630   21.6960 N.3   227  ASP227     -0.1239
    121  CA       -23.0900   32.3830   21.4340 C.3   227  ASP227      0.1674
    122  C        -23.4370   31.2070   22.3340 C.2   227  ASP227      0.2266
    123  O        -22.5620   30.6520   23.0140 O.2   227  ASP227     -0.2867
    124  CB       -23.3220   32.0580   19.9440 C.3   227  ASP227      0.1410
    125  CG       -22.4290   30.9320   19.4030 C.2   227  ASP227      0.3668
    126  OD1      -21.8070   30.1820   20.1770 O.co2 227  ASP227     -0.2456
    127  OD2      -22.3760   30.8040   18.1580 O.co2 227  ASP227     -0.2456
    128  N        -22.2310   30.5690   26.1170 N.3   230  MET230     -0.1245
    129  CA       -21.2250   31.6070   26.3480 C.3   230  MET230      0.1570
    130  C        -21.7800   33.0350   26.3300 C.2   230  MET230      0.2261
    131  O        -21.0400   33.9640   26.6500 O.2   230  MET230     -0.2867
    132  CB       -20.1060   31.4960   25.3040 C.3   230  MET230      0.0387
    133  CG       -19.3660   30.1630   25.3080 C.3   230  MET230      0.0595
    134  SD       -17.9570   30.1930   24.1820 S.3   230  MET230     -0.1393
    135  CE       -18.8300   30.2530   22.6120 C.3   230  MET230      0.0692
    136  N        -14.3590   33.9340   14.2750 N.3   256  ASN256     -0.1240
    137  CA       -15.8020   34.0160   14.5020 C.3   256  ASN256      0.1653
    138  C        -16.0820   34.9910   15.6670 C.2   256  ASN256      0.2266
    139  O        -15.7480   34.6860   16.8190 O.2   256  ASN256     -0.2867
    140  CB       -16.3970   32.6270   14.7930 C.3   256  ASN256      0.1155
    141  CG       -17.9110   32.5790   14.6160 C.2   256  ASN256      0.2627
    142  OD1      -18.5260   33.5180   14.1150 O.2   256  ASN256     -0.2716
    143  ND2      -18.5180   31.4820   15.0250 N.am  256  ASN256     -0.0877
@<TRIPOS>BOND
     1    53    54    1
     2    56    55    2
     3    54    55    1
     4    54    57    1
     5    57    58    1
     6    37    38    1
     7    43    42   ar
     8   103   101   ar
     9   103   104   ar
    10   101    98   ar
    11   104   102   ar
    12    38    41    1
    13    38    39    1
    14    40    39    2
    15    42    41    1
    16    42    44   ar
    17    31    30    2
    18    28    29    1
    19    98    96   ar
    20    98   100   ar
    21     1     2    1
    22    39    45   am
    23     2     3    1
    24    29    30    1
    25    29    32    1
    26    91    92    1
    27   102   100   ar
    28    95    92    1
    29    95    96    1
    30    36    35    1
    31    92    93    1
    32    34    35    1
    33    34    33    1
    34    96    97   ar
    35   100    99   ar
    36    48    47    2
    37    63    60    1
    38    63    64    1
    39    47    46    1
    40    45    46    1
    41    33    32    1
    42     3     4    2
    43     3     5   am
    44    60    59    1
    45    60    61    1
    46    97    99   ar
    47    66    64   ar
    48    66    68   ar
    49    46    49    1
    50    93    94    2
    51    64    65   ar
    52     5     6    1
    53    71    72    1
    54     8     7    2
    55    62    61    2
    56    49    50    1
    57    68    69   ar
    58   142   141    2
    59   136   137    1
    60    14    15   ar
    61    14    12   ar
    62    15    13   ar
    63   137   140    1
    64   137   138    1
    65    77    75    1
    66    65    67   ar
    67   141   140    1
    68   141   143   am
    69    12    10   ar
    70    50    52   am
    71    50    51    2
    72    13    11   ar
    73     7     6    1
    74     7    16   am
    75     6     9    1
    76    27    26    1
    77    72    75    1
    78    72    73    1
    79    69    67   ar
    80    69    70    1
    81    10    11   ar
    82    10     9    1
    83    25    26   ar
    84    25    23   ar
    85    26    24   ar
    86    75    76    1
    87   138   139    2
    88    16    17    1
    89    23    21   ar
    90    24    22   ar
    91    73    74    2
    92    17    18    1
    93    17    20    1
    94   112   110   am
    95    21    22   ar
    96    21    20    1
    97   111   110    2
    98   105   106    1
    99   110   109    1
   100    18    19    2
   101   106   109    1
   102   106   107    1
   103   118   117    1
   104   127   125   ar
   105    81    80    2
   106   119   117    1
   107   107   108    2
   108   117   114    1
   109    83    82    1
   110   125   124    1
   111   125   126   ar
   112    79    80    1
   113    79    82    1
   114    79    78    1
   115    80    85   am
   116   113   114    1
   117    84    82    1
   118   114   115    1
   119   124   121    1
   120    85    86    1
   121   115   116    2
   122    86    87    1
   123    86    89    1
   124   121   120    1
   125   121   122    1
   126    90    89    1
   127    87    88    2
   128   122   123    2
   129   135   134    1
   130   134   133    1
   131   132   133    1
   132   132   129    1
   133   128   129    1
   134   130   129    1
   135   130   131    2
