@<TRIPOS>MOLECULE
tmp/5diyC00.pdb
 114 108 0 0 0
SMALL
GASTEIGER

@<TRIPOS>ATOM
      1  N        -24.1040   31.5320   16.0140 N.3    13  TYR13      -0.1241
      2  CA       -25.5340   31.4310   16.3030 C.3    13  TYR13       0.1605
      3  C        -25.9510   32.7130   17.0260 C.2    13  TYR13       0.2264
      4  O        -25.1230   33.3830   17.6530 O.2    13  TYR13      -0.2867
      5  CB       -25.8460   30.2250   17.2000 C.3    13  TYR13       0.0534
      6  CG       -25.5940   28.8500   16.5930 C.ar   13  TYR13      -0.0201
      7  CD1      -24.3190   28.2830   16.5970 C.ar   13  TYR13      -0.0009
      8  CD2      -26.6440   28.0970   16.0470 C.ar   13  TYR13      -0.0009
      9  CE1      -24.0910   27.0170   16.0570 C.ar   13  TYR13       0.0417
     10  CE2      -26.4280   26.8320   15.5070 C.ar   13  TYR13       0.0417
     11  CZ       -25.1530   26.2970   15.5110 C.ar   13  TYR13       0.1957
     12  OH       -24.9380   25.0420   14.9830 O.3    13  TYR13      -0.2866
     13  N        -28.3760   31.6310   11.9730 N.3    43  GLN43      -0.1245
     14  CA       -29.8150   31.9420   12.0830 C.3    43  GLN43       0.1566
     15  C        -30.4570   32.5220   10.8180 C.2    43  GLN43       0.2260
     16  O        -31.6670   32.7470   10.8080 O.2    43  GLN43      -0.2867
     17  CB       -30.0920   32.8840   13.2650 C.3    43  GLN43       0.0367
     18  CG       -29.6270   32.3550   14.6070 C.3    43  GLN43       0.0905
     19  CD       -30.3040   31.0560   15.0260 C.2    43  GLN43       0.2608
     20  OE1      -31.5200   30.9000   14.9040 O.2    43  GLN43      -0.2717
     21  NE2      -29.5160   30.1240   15.5370 N.am   43  GLN43      -0.0878
     22  N        -20.4230   21.4030    9.3780 N.3   118  ASP118     -0.1225
     23  CA       -20.3530   21.3980   10.8420 C.3   118  ASP118      0.1805
     24  C        -21.7360   21.2090   11.4610 C.2   118  ASP118      0.2597
     25  O        -22.7310   21.6700   10.9100 O.2   118  ASP118     -0.2718
     26  CB       -19.7260   22.6920   11.3730 C.3   118  ASP118      0.1424
     27  CG       -20.4710   23.9430   10.9210 C.2   118  ASP118      0.3668
     28  OD1      -20.6080   24.1420    9.6980 O.co2 118  ASP118     -0.2456
     29  OD2      -20.8970   24.7260   11.7890 O.co2 118  ASP118     -0.2456
     30  N        -21.7800   20.5360   12.6100 N.am  119  ASN119     -0.1974
     31  CA       -23.0110   20.3360   13.3780 C.3   119  ASN119      0.1688
     32  C        -24.1290   19.6970   12.5520 C.2   119  ASN119      0.2292
     33  O        -25.2170   20.2580   12.3870 O.2   119  ASN119     -0.2864
     34  CB       -23.4680   21.6550   14.0130 C.3   119  ASN119      0.1181
     35  CG       -22.3900   22.2980   14.8730 C.2   119  ASN119      0.2629
     36  OD1      -21.4120   21.6540   15.2610 O.2   119  ASN119     -0.2716
     37  ND2      -22.5600   23.5820   15.1660 N.am  119  ASN119     -0.0877
     38  N        -14.3850   18.8380   13.0170 N.3   167  TYR167     -0.1241
     39  CA       -13.6190   20.0820   12.8040 C.3   167  TYR167      0.1605
     40  C        -12.7100   20.5070   13.9670 C.2   167  TYR167      0.2264
     41  O        -12.1050   21.5770   13.9150 O.2   167  TYR167     -0.2867
     42  CB       -14.5730   21.2370   12.4390 C.3   167  TYR167      0.0534
     43  CG       -15.6910   21.5050   13.4310 C.ar  167  TYR167     -0.0201
     44  CD1      -15.4700   22.2490   14.5930 C.ar  167  TYR167     -0.0009
     45  CD2      -16.9740   21.0280   13.1950 C.ar  167  TYR167     -0.0009
     46  CE1      -16.5040   22.4950   15.4960 C.ar  167  TYR167      0.0417
     47  CE2      -18.0090   21.2650   14.0830 C.ar  167  TYR167      0.0417
     48  CZ       -17.7770   22.0020   15.2300 C.ar  167  TYR167      0.1957
     49  OH       -18.8200   22.2210   16.0960 O.3   167  TYR167     -0.2866
     50  N        -13.7120   23.2670   20.3400 N.3   196  VAL196     -0.1231
     51  CA       -14.5940   24.1070   19.5280 C.3   196  VAL196      0.1692
     52  C        -14.1010   25.5450   19.6380 C.2   196  VAL196      0.2592
     53  O        -13.8050   26.1850   18.6300 O.2   196  VAL196     -0.2718
     54  CB       -16.0820   23.9980   19.9620 C.3   196  VAL196      0.0266
     55  CG1      -16.9400   25.0370   19.2540 C.3   196  VAL196      0.0020
     56  CG2      -16.6140   22.5950   19.6970 C.3   196  VAL196      0.0020
     57  N        -14.0060   26.0240   20.8760 N.am  197  CYS197     -0.1970
     58  CA       -13.3360   27.2740   21.2010 C.3   197  CYS197      0.1712
     59  C        -12.0220   26.8830   21.8630 C.2   197  CYS197      0.2296
     60  O        -12.0140   26.4690   23.0210 O.2   197  CYS197     -0.2864
     61  CB       -14.1990   28.0950   22.1530 C.3   197  CYS197      0.0983
     62  SG       -15.8400   28.4230   21.4980 S.3   197  CYS197     -0.0798
     63  N        -21.7250   32.8630   21.6960 N.3   227  ASP227     -0.1225
     64  CA       -23.0900   32.3830   21.4340 C.3   227  ASP227      0.1805
     65  C        -23.4370   31.2070   22.3340 C.2   227  ASP227      0.2598
     66  O        -22.5620   30.6520   23.0140 O.2   227  ASP227     -0.2718
     67  CB       -23.3220   32.0580   19.9440 C.3   227  ASP227      0.1424
     68  CG       -22.4290   30.9320   19.4030 C.2   227  ASP227      0.3668
     69  OD1      -21.8070   30.1820   20.1770 O.co2 227  ASP227     -0.2456
     70  OD2      -22.3760   30.8040   18.1580 O.co2 227  ASP227     -0.2456
     71  N        -24.7180   30.8460   22.3480 N.am  228  GLY228     -0.1942
     72  CA       -25.2060   29.7280   23.1520 C.3   228  GLY228      0.2014
     73  C        -24.9360   29.9590   24.6250 C.2   228  GLY228      0.2639
     74  O        -25.1940   31.0440   25.1360 O.2   228  GLY228     -0.2714
     75  N        -24.3650   28.9540   25.2910 N.am  229  GLY229     -0.1939
     76  CA       -24.0380   29.0500   26.7110 C.3   229  GLY229      0.2014
     77  C        -22.9520   30.0360   27.0980 C.2   229  GLY229      0.2639
     78  O        -22.7690   30.3050   28.2800 O.2   229  GLY229     -0.2714
     79  N        -22.2310   30.5690   26.1170 N.am  230  MET230     -0.1963
     80  CA       -21.2250   31.6070   26.3480 C.3   230  MET230      0.1736
     81  C        -21.7800   33.0350   26.3300 C.2   230  MET230      0.2616
     82  O        -21.0400   33.9640   26.6500 O.2   230  MET230     -0.2715
     83  CB       -20.1060   31.4960   25.3040 C.3   230  MET230      0.0427
     84  CG       -19.3660   30.1630   25.3080 C.3   230  MET230      0.0599
     85  SD       -17.9570   30.1930   24.1820 S.3   230  MET230     -0.1393
     86  CE       -18.8300   30.2530   22.6120 C.3   230  MET230      0.0692
     87  N        -23.0570   33.2240   25.9730 N.am  231  MET231     -0.1977
     88  CA       -23.6690   34.5800   25.9460 C.3   231  MET231      0.1605
     89  C        -23.4470   35.4540   27.2020 C.2   231  MET231      0.2287
     90  O        -23.2420   36.6540   27.0710 O.2   231  MET231     -0.2864
     91  CB       -25.1670   34.5100   25.5860 C.3   231  MET231      0.0413
     92  CG       -25.4540   34.4140   24.0900 C.3   231  MET231      0.0598
     93  SD       -27.1930   34.6980   23.6630 S.3   231  MET231     -0.1393
     94  CE       -27.8880   33.1110   24.1110 C.3   231  MET231      0.0692
     95  N        -20.8040   35.7020   28.9490 N.3   233  GLU233     -0.1245
     96  CA       -19.4060   36.1400   28.9920 C.3   233  GLU233      0.1567
     97  C        -19.1250   37.2440   27.9920 C.2   233  GLU233      0.2260
     98  O        -19.3960   37.0780   26.8020 O.2   233  GLU233     -0.2867
     99  CB       -18.4910   34.9610   28.6920 C.3   233  GLU233      0.0388
    100  CG       -18.6200   33.8340   29.6960 C.3   233  GLU233      0.1160
    101  CD       -18.1060   32.5040   29.1850 C.2   233  GLU233      0.3649
    102  OE1      -17.3870   32.4560   28.1580 O.co2 233  GLU233     -0.2457
    103  OE2      -18.4270   31.5000   29.8410 O.co2 233  GLU233     -0.2457
    104  N        -21.7900   37.0150   33.3250 N.3   424  ARG424     -0.1245
    105  CA       -20.7620   36.3580   34.1260 C.3   424  ARG424      0.1563
    106  C        -19.6670   37.3510   34.5450 C.2   424  ARG424      0.2260
    107  O        -18.5080   36.9650   34.7410 O.2   424  ARG424     -0.2867
    108  CB       -20.1720   35.1760   33.3360 C.3   424  ARG424      0.0307
    109  CG       -19.3210   34.2250   34.1750 C.3   424  ARG424      0.0489
    110  CD       -19.7690   32.7770   34.1380 C.3   424  ARG424      0.2205
    111  NE       -19.1030   31.9900   33.1050 N.pl3 424  ARG424     -0.0865
    112  CZ       -18.3920   30.8660   33.2750 C.cat 424  ARG424      0.5346
    113  NH1      -18.1790   30.3150   34.4670 N.pl3 424  ARG424      0.1354
    114  NH2      -17.8840   30.2750   32.2030 N.pl3 424  ARG424      0.1354
@<TRIPOS>BOND
     1    22    23    1
     2    28    27   ar
     3    16    15    2
     4    15    14    1
     5    23    26    1
     6    23    24    1
     7    25    24    2
     8    27    26    1
     9    27    29   ar
    10    24    30   am
    11    13    14    1
    12    14    17    1
    13    33    32    2
    14    42    39    1
    15    42    43    1
    16    32    31    1
    17    30    31    1
    18    39    38    1
    19    39    40    1
    20    45    43   ar
    21    45    47   ar
    22    17    18    1
    23    31    34    1
    24    43    44   ar
    25    41    40    2
    26    34    35    1
    27    47    48   ar
    28    44    46   ar
    29    18    19    1
    30    35    37   am
    31    35    36    2
    32    20    19    2
    33    12    11    1
    34    19    21   am
    35    48    46   ar
    36    48    49    1
    37    10    11   ar
    38    10     8   ar
    39    11     9   ar
    40     1     2    1
    41     8     6   ar
    42     9     7   ar
    43     2     3    1
    44     2     5    1
    45     6     7   ar
    46     6     5    1
    47     3     4    2
    48    70    68   ar
    49    53    52    2
    50    55    54    1
    51    68    67    1
    52    68    69   ar
    53    51    52    1
    54    51    54    1
    55    51    50    1
    56    52    57   am
    57    56    54    1
    58    67    64    1
    59    57    58    1
    60    58    59    1
    61    58    61    1
    62    64    63    1
    63    64    65    1
    64    62    61    1
    65    59    60    2
    66    65    71   am
    67    65    66    2
    68    71    72    1
    69    86    85    1
    70    72    73    1
    71    93    92    1
    72    93    94    1
    73    92    91    1
    74    85    84    1
    75    73    74    2
    76    73    75   am
    77    75    76    1
    78    83    84    1
    79    83    80    1
    80    91    88    1
    81    88    87    1
    82    88    89    1
    83    87    81   am
    84    79    80    1
    85    79    77   am
    86    81    80    1
    87    81    82    2
    88    76    77    1
    89    98    97    2
    90    90    89    2
    91    77    78    2
    92    97    96    1
    93   102   101   ar
    94    99    96    1
    95    99   100    1
    96    95    96    1
    97   101   100    1
    98   101   103   ar
    99   114   112    1
   100   111   112    2
   101   111   110    1
   102   112   113    1
   103   104   105    1
   104   108   105    1
   105   108   109    1
   106   105   106    1
   107   110   109    1
   108   106   107    2
