@<TRIPOS>MOLECULE
tmp/5dj4A00.pdb
 146 142 0 0 0
SMALL
GASTEIGER

@<TRIPOS>ATOM
      1  N        181.2350   65.0980   90.0600 N.3   260  THR260     -0.1203
      2  CA       180.1520   65.1450   91.0330 C.3   260  THR260      0.1994
      3  C        180.6500   64.9300   92.4510 C.2   260  THR260      0.2618
      4  O        181.6260   64.2410   92.6740 O.2   260  THR260     -0.2717
      5  CB       179.0600   64.1030   90.7250 C.3   260  THR260      0.1784
      6  OG1      177.9990   64.2280   91.6760 O.3   260  THR260     -0.2211
      7  CG2      179.5950   62.7140   90.7750 C.3   260  THR260      0.0376
      8  N        179.9660   65.5440   93.4070 N.am  261  TYR261     -0.1961
      9  CA       180.2520   65.3570   94.8160 C.3   261  TYR261      0.1771
     10  C        179.0600   64.6870   95.4670 C.2   261  TYR261      0.2620
     11  O        179.0290   64.4680   96.6750 O.2   261  TYR261     -0.2715
     12  CB       180.5660   66.6920   95.4760 C.3   261  TYR261      0.0574
     13  CG       181.6620   67.4200   94.7620 C.ar  261  TYR261     -0.0198
     14  CD1      182.9880   67.1460   95.0360 C.ar  261  TYR261     -0.0009
     15  CD2      181.3750   68.3470   93.7700 C.ar  261  TYR261     -0.0009
     16  CE1      183.9960   67.7810   94.3630 C.ar  261  TYR261      0.0417
     17  CE2      182.3720   68.9920   93.0980 C.ar  261  TYR261      0.0417
     18  CZ       183.6840   68.7050   93.3960 C.ar  261  TYR261      0.1957
     19  OH       184.6850   69.3520   92.7280 O.3   261  TYR261     -0.2866
     20  N        178.0880   64.3490   94.6320 N.am  262  ASN262     -0.1958
     21  CA       176.8330   63.7680   95.0700 C.3   262  ASN262      0.1819
     22  C        176.1230   64.6660   96.0650 C.2   262  ASN262      0.2622
     23  O        175.5070   64.1950   97.0040 O.2   262  ASN262     -0.2715
     24  CB       177.0670   62.3880   95.6570 C.3   262  ASN262      0.1195
     25  CG       177.5580   61.4110   94.6320 C.2   262  ASN262      0.2630
     26  OD1      176.8980   61.1680   93.6340 O.2   262  ASN262     -0.2716
     27  ND2      178.7390   60.8730   94.8490 N.am  262  ASN262     -0.0877
     28  N        176.2210   65.9690   95.8450 N.am  263  THR263     -0.1937
     29  CA       175.5650   66.9370   96.6900 C.3   263  THR263      0.2028
     30  C        174.6460   67.7260   95.7910 C.2   263  THR263      0.2642
     31  O        174.8320   67.7200   94.5910 O.2   263  THR263     -0.2714
     32  CB       176.5670   67.8650   97.4160 C.3   263  THR263      0.1808
     33  OG1      177.2990   68.6370   96.4600 O.3   263  THR263     -0.2208
     34  CG2      177.5310   67.0640   98.2370 C.3   263  THR263      0.0379
     35  N        173.6350   68.3800   96.3540 N.am  264  ILE264     -0.1977
     36  CA       172.6820   69.0970   95.5190 C.3   264  ILE264      0.1596
     37  C        172.4870   70.5460   95.9560 C.2   264  ILE264      0.2287
     38  O        172.2280   71.4020   95.1290 O.2   264  ILE264     -0.2864
     39  CB       171.3360   68.3770   95.4760 C.3   264  ILE264      0.0276
     40  CG1      170.8260   68.3020   94.0430 C.3   264  ILE264      0.0022
     41  CG2      170.3280   69.0650   96.3490 C.3   264  ILE264      0.0022
     42  CD1      170.3240   69.6010   93.5150 C.3   264  ILE264      0.0001
     43  N        173.1450   63.1560   90.9310 N.3   272  THR272     -0.1218
     44  CA       172.7300   64.3640   90.2350 C.3   272  THR272      0.1862
     45  C        172.8730   64.2780   88.7340 C.2   272  THR272      0.2287
     46  O        172.7420   65.2740   88.0550 O.2   272  THR272     -0.2866
     47  CB       173.5200   65.5750   90.6980 C.3   272  THR272      0.1770
     48  OG1      174.9120   65.3160   90.5180 O.3   272  THR272     -0.2211
     49  CG2      173.2570   65.8690   92.1580 C.3   272  THR272      0.0375
     50  N        170.4010   65.9010   86.2350 N.3   275  LEU275     -0.1231
     51  CA       170.5000   67.3530   86.2410 C.3   275  LEU275      0.1693
     52  C        171.6590   67.8160   85.3810 C.2   275  LEU275      0.2591
     53  O        171.5230   68.7450   84.5950 O.2   275  LEU275     -0.2718
     54  CB       170.6920   67.8560   87.6680 C.3   275  LEU275      0.0284
     55  CG       170.8960   69.3230   88.0060 C.3   275  LEU275      0.0019
     56  CD1      169.6550   70.0780   87.5960 C.3   275  LEU275      0.0001
     57  CD2      171.2110   69.5640   89.4480 C.3   275  LEU275      0.0001
     58  N        172.8030   67.1650   85.5470 N.am  276  ARG276     -0.1980
     59  CA       174.0040   67.5500   84.8420 C.3   276  ARG276      0.1597
     60  C        173.9080   67.1920   83.3660 C.2   276  ARG276      0.2287
     61  O        174.4460   67.8860   82.5190 O.2   276  ARG276     -0.2864
     62  CB       175.2180   66.8960   85.4910 C.3   276  ARG276      0.0334
     63  CG       175.5020   67.4490   86.8650 C.3   276  ARG276      0.0492
     64  CD       176.6950   66.8300   87.5120 C.3   276  ARG276      0.2205
     65  NE       176.4290   65.4920   88.0090 N.pl3 276  ARG276     -0.0865
     66  CZ       176.9320   64.3850   87.4840 C.cat 276  ARG276      0.5346
     67  NH1      177.7330   64.4420   86.4440 N.pl3 276  ARG276      0.1354
     68  NH2      176.6340   63.2190   88.0080 N.pl3 276  ARG276      0.1354
     69  N        171.8450   69.9630   81.6850 N.3   279  ILE279     -0.1245
     70  CA       172.6370   71.1670   81.4410 C.3   279  ILE279      0.1561
     71  C        173.4900   71.0080   80.1940 C.2   279  ILE279      0.2260
     72  O        173.5630   71.8980   79.3640 O.2   279  ILE279     -0.2867
     73  CB       173.5390   71.4950   82.6310 C.3   279  ILE279      0.0252
     74  CG1      172.6990   71.6500   83.8990 C.3   279  ILE279      0.0019
     75  CG2      174.3390   72.7440   82.3450 C.3   279  ILE279      0.0019
     76  CD1      173.4740   71.8860   85.1520 C.3   279  ILE279      0.0001
     77  N        169.2570   79.7050   90.9550 N.3   330  TRP330     -0.1241
     78  CA       169.6930   78.8160   92.0170 C.3   330  TRP330      0.1605
     79  C        170.0670   79.5540   93.2950 C.2   330  TRP330      0.2264
     80  O        171.1740   79.4160   93.7950 O.2   330  TRP330     -0.2867
     81  CB       170.8690   77.9780   91.5310 C.3   330  TRP330      0.0550
     82  CG       170.4810   76.8660   90.6250 C.ar  330  TRP330      0.0003
     83  CD1      169.2480   76.6240   90.1100 C.ar  330  TRP330      0.0946
     84  CD2      171.3320   75.8260   90.1400 C.ar  330  TRP330      0.0152
     85  NE1      169.2720   75.4960   89.3290 N.ar  330  TRP330     -0.2442
     86  CE2      170.5430   74.9840   89.3330 C.ar  330  TRP330      0.0810
     87  CE3      172.6850   75.5240   90.3060 C.ar  330  TRP330      0.0012
     88  CZ2      171.0640   73.8630   88.6910 C.ar  330  TRP330      0.0191
     89  CZ3      173.1970   74.4070   89.6720 C.ar  330  TRP330      0.0001
     90  CH2      172.3870   73.5920   88.8770 C.ar  330  TRP330      0.0015
     91  N        171.7010   77.5240   96.1350 N.3   333  PHE333     -0.1227
     92  CA       172.8370   76.6750   95.8300 C.3   333  PHE333      0.1736
     93  C        174.1260   77.3390   96.2610 C.2   333  PHE333      0.2595
     94  O        174.1730   78.5420   96.4870 O.2   333  PHE333     -0.2718
     95  CB       172.9040   76.3520   94.3380 C.3   333  PHE333      0.0547
     96  CG       171.8730   75.3620   93.8750 C.ar  333  PHE333     -0.0202
     97  CD1      170.5300   75.6360   93.9860 C.ar  333  PHE333     -0.0042
     98  CD2      172.2570   74.1670   93.2990 C.ar  333  PHE333     -0.0042
     99  CE1      169.5920   74.7320   93.5470 C.ar  333  PHE333     -0.0003
    100  CE2      171.3180   73.2590   92.8530 C.ar  333  PHE333     -0.0003
    101  CZ       169.9910   73.5400   92.9800 C.ar  333  PHE333     -0.0000
    102  N        175.1780   76.5380   96.3630 N.am  334  ARG334     -0.1980
    103  CA       176.4860   77.0340   96.7410 C.3   334  ARG334      0.1597
    104  C        177.1740   77.6620   95.5370 C.2   334  ARG334      0.2287
    105  O        176.8590   77.3360   94.4050 O.2   334  ARG334     -0.2864
    106  CB       177.3240   75.9000   97.3190 C.3   334  ARG334      0.0334
    107  CG       177.0300   75.5640   98.7720 C.3   334  ARG334      0.0492
    108  CD       176.8850   74.0640   98.9870 C.3   334  ARG334      0.2205
    109  NE       177.8810   73.2830   98.2540 N.pl3 334  ARG334     -0.0865
    110  CZ       177.6270   72.1440   97.6080 C.cat 334  ARG334      0.5346
    111  NH1      176.3980   71.6440   97.6050 N.pl3 334  ARG334      0.1354
    112  NH2      178.6050   71.4980   96.9690 N.pl3 334  ARG334      0.1354
    113  N        178.8830   75.3640   93.0980 N.3   337  GLU337     -0.1245
    114  CA       177.9980   74.6490   92.1930 C.3   337  GLU337      0.1567
    115  C        177.6850   75.4980   90.9900 C.2   337  GLU337      0.2260
    116  O        177.3820   74.9870   89.9310 O.2   337  GLU337     -0.2867
    117  CB       176.7220   74.2420   92.9030 C.3   337  GLU337      0.0388
    118  CG       176.9520   73.2810   94.0420 C.3   337  GLU337      0.1160
    119  CD       175.6830   72.9320   94.7830 C.2   337  GLU337      0.3649
    120  OE1      175.1500   73.7940   95.5080 O.co2 337  GLU337     -0.2457
    121  OE2      175.2120   71.7920   94.6380 O.co2 337  GLU337     -0.2457
    122  N        180.6960   75.0580   88.9040 N.3   340  HIS340     -0.1226
    123  CA       180.5250   73.7300   88.3430 C.3   340  HIS340      0.1752
    124  C        179.6680   73.7850   87.0830 C.2   340  HIS340      0.2595
    125  O        179.9750   73.1350   86.1020 O.2   340  HIS340     -0.2718
    126  CB       179.9040   72.8260   89.4180 C.3   340  HIS340      0.0759
    127  CG       179.8710   71.3650   89.0860 C.ar  340  HIS340      0.0818
    128  ND1      179.8290   70.8790   87.8020 N.ar  340  HIS340     -0.2268
    129  CD2      179.8420   70.2810   89.8930 C.ar  340  HIS340      0.1154
    130  CE1      179.7880   69.5610   87.8260 C.ar  340  HIS340      0.1986
    131  NE2      179.7920   69.1730   89.0840 N.ar  340  HIS340     -0.2212
    132  N        178.6010   74.5700   87.1080 N.am  341  VAL341     -0.1980
    133  CA       177.7250   74.7270   85.9500 C.3   341  VAL341      0.1595
    134  C        178.4900   75.3620   84.7970 C.2   341  VAL341      0.2287
    135  O        178.3180   75.0010   83.6400 O.2   341  VAL341     -0.2864
    136  CB       176.4820   75.5890   86.3040 C.3   341  VAL341      0.0276
    137  CG1      175.8130   76.1350   85.0800 C.3   341  VAL341      0.0022
    138  CG2      175.5140   74.7900   87.1340 C.3   341  VAL341      0.0022
    139  N        180.7470   72.6980   83.0760 N.3   344  LEU344     -0.1245
    140  CA       179.9120   71.8450   82.2540 C.3   344  LEU344      0.1561
    141  C        179.5670   72.5130   80.9450 C.2   344  LEU344      0.2260
    142  O        179.4710   71.8810   79.9180 O.2   344  LEU344     -0.2867
    143  CB       178.6370   71.5150   83.0070 C.3   344  LEU344      0.0270
    144  CG       178.5480   70.7050   84.2870 C.3   344  LEU344      0.0019
    145  CD1      177.1730   70.6730   84.8610 C.3   344  LEU344      0.0001
    146  CD2      179.0390   69.3050   83.9570 C.3   344  LEU344      0.0001
@<TRIPOS>BOND
     1    72    71    2
     2   142   141    2
     3    71    70    1
     4   141   140    1
     5    70    69    1
     6    70    73    1
     7   140   143    1
     8   140   139    1
     9    75    73    1
    10    61    60    2
    11    73    74    1
    12   143   144    1
    13    60    59    1
    14   135   134    2
    15    74    76    1
    16   146   144    1
    17   144   145    1
    18    53    52    2
    19   134   133    1
    20    59    62    1
    21    59    58    1
    22   137   136    1
    23    52    58   am
    24    52    51    1
    25    62    63    1
    26   133   136    1
    27   133   132    1
    28   125   124    2
    29    50    51    1
    30    51    54    1
    31   136   138    1
    32    67    66    1
    33    63    64    1
    34   124   132   am
    35   124   123    1
    36    66    68    1
    37    66    65    2
    38    64    65    1
    39    56    55    1
    40    54    55    1
    41   128   130   ar
    42   128   127   ar
    43   130   131   ar
    44    55    57    1
    45    46    45    2
    46   123   122    1
    47   123   126    1
    48    88    90   ar
    49    88    86   ar
    50    45    44    1
    51    90    89   ar
    52   131   129   ar
    53   127   126    1
    54   127   129   ar
    55    85    86   ar
    56    85    83   ar
    57    86    84   ar
    58    89    87   ar
    59   116   115    2
    60     1     2    1
    61    83    82   ar
    62    84    87   ar
    63    84    82   ar
    64    44    47    1
    65    44    43    1
    66    48    47    1
    67    82    81    1
    68    47    49    1
    69     5     7    1
    70     5     2    1
    71     5     6    1
    72    77    78    1
    73   115   114    1
    74     2     3    1
    75    81    78    1
    76    78    79    1
    77   114   117    1
    78   114   113    1
    79     3     4    2
    80     3     8   am
    81    19    18    1
    82   100   101   ar
    83   100    98   ar
    84   117   118    1
    85   101    99   ar
    86    17    18   ar
    87    17    15   ar
    88    79    80    2
    89    98    96   ar
    90    18    16   ar
    91     8     9    1
    92    42    40    1
    93    99    97   ar
    94    26    25    2
    95    15    13   ar
    96    96    97   ar
    97    96    95    1
    98   118   119    1
    99    40    39    1
   100    95    92    1
   101    16    14   ar
   102   105   104    2
   103    31    30    2
   104    20    21    1
   105    20    10   am
   106    25    27   am
   107    25    24    1
   108   121   119   ar
   109    13    14   ar
   110    13    12    1
   111   119   120   ar
   112     9    10    1
   113     9    12    1
   114    21    24    1
   115    21    22    1
   116    38    37    2
   117    10    11    2
   118    39    36    1
   119    39    41    1
   120    36    37    1
   121    36    35    1
   122   104   103    1
   123    30    35   am
   124    30    29    1
   125    92    91    1
   126    92    93    1
   127    28    22   am
   128    28    29    1
   129    22    23    2
   130    93   102   am
   131    93    94    2
   132   102   103    1
   133    33    32    1
   134    29    32    1
   135   103   106    1
   136   112   110    1
   137   106   107    1
   138    32    34    1
   139   111   110    1
   140   110   109    2
   141   109   108    1
   142   107   108    1
