@<TRIPOS>MOLECULE
tmp/5dj5A00.pdb
 159 155 0 0 0
SMALL
GASTEIGER

@<TRIPOS>ATOM
      1  N        -23.6830   11.5160  -16.6580 N.3    26  PHE26      -0.1241
      2  CA       -24.9410   11.1820  -16.0040 C.3    26  PHE26       0.1605
      3  C        -25.4730    9.8100  -16.3950 C.2    26  PHE26       0.2264
      4  O        -25.5070    9.4650  -17.5780 O.2    26  PHE26      -0.2867
      5  CB       -25.9730   12.2550  -16.3480 C.3    26  PHE26       0.0534
      6  CG       -27.3960   11.8650  -16.0450 C.ar   26  PHE26      -0.0203
      7  CD1      -27.8980   11.9460  -14.7540 C.ar   26  PHE26      -0.0042
      8  CD2      -28.2480   11.4470  -17.0650 C.ar   26  PHE26      -0.0042
      9  CE1      -29.2290   11.5980  -14.4800 C.ar   26  PHE26      -0.0003
     10  CE2      -29.5670   11.1010  -16.7990 C.ar   26  PHE26      -0.0003
     11  CZ       -30.0590   11.1790  -15.5020 C.ar   26  PHE26      -0.0000
     12  N        -17.0690   13.3490  -19.9260 N.3    94  HIS94      -0.1226
     13  CA       -18.2660   13.1050  -20.6940 C.3    94  HIS94       0.1752
     14  C        -19.4430   13.8160  -20.0960 C.2    94  HIS94       0.2597
     15  O        -19.6900   13.7060  -18.8880 O.2    94  HIS94      -0.2718
     16  CB       -18.5600   11.6010  -20.7570 C.3    94  HIS94       0.0759
     17  CG       -19.8990   11.2850  -21.3590 C.ar   94  HIS94       0.0818
     18  ND1      -20.9270   10.7550  -20.6170 N.ar   94  HIS94      -0.2268
     19  CD2      -20.3930   11.4830  -22.6100 C.ar   94  HIS94       0.1154
     20  CE1      -21.9920   10.5980  -21.3910 C.ar   94  HIS94       0.1986
     21  NE2      -21.6960   11.0360  -22.5990 N.ar   94  HIS94      -0.2212
     22  N        -20.1930   14.5080  -20.9440 N.am   95  SER95      -0.1938
     23  CA       -21.4470   15.1270  -20.5270 C.3    95  SER95       0.2055
     24  C        -21.2440   16.1090  -19.3580 C.2    95  SER95       0.2642
     25  O        -20.5530   17.1150  -19.5170 O.2    95  SER95      -0.2714
     26  CB       -22.4670   14.0270  -20.2110 C.3    95  SER95       0.2130
     27  OG       -23.3860   14.3890  -19.2060 O.3    95  SER95      -0.2179
     28  N        -21.8520   15.8320  -18.2090 N.am   96  VAL96      -0.1977
     29  CA       -21.7420   16.7140  -17.0490 C.3    96  VAL96       0.1596
     30  C        -20.2870   16.8890  -16.5910 C.2    96  VAL96       0.2287
     31  O        -19.9100   17.9580  -16.0950 O.2    96  VAL96      -0.2864
     32  CB       -22.5910   16.1970  -15.8630 C.3    96  VAL96       0.0276
     33  CG1      -22.1500   14.7970  -15.4300 C.3    96  VAL96       0.0022
     34  CG2      -22.5320   17.1670  -14.6870 C.3    96  VAL96       0.0022
     35  N        -27.7470   23.9520  -21.8810 N.3   124  PHE124     -0.1241
     36  CA       -28.7900   23.1810  -22.5670 C.3   124  PHE124      0.1605
     37  C        -30.0510   23.9590  -22.9440 C.2   124  PHE124      0.2264
     38  O        -30.6540   23.6980  -23.9810 O.2   124  PHE124     -0.2867
     39  CB       -29.1640   21.9850  -21.7060 C.3   124  PHE124      0.0534
     40  CG       -28.0670   20.9740  -21.5960 C.ar  124  PHE124     -0.0203
     41  CD1      -27.2160   20.9780  -20.4990 C.ar  124  PHE124     -0.0042
     42  CD2      -27.8600   20.0410  -22.5960 C.ar  124  PHE124     -0.0042
     43  CE1      -26.1880   20.0560  -20.3920 C.ar  124  PHE124     -0.0003
     44  CE2      -26.8420   19.1150  -22.4910 C.ar  124  PHE124     -0.0003
     45  CZ       -26.0050   19.1200  -21.3830 C.ar  124  PHE124     -0.0000
     46  N        -33.1010   22.8210  -25.9680 N.3   134  PHE134     -0.1241
     47  CA       -34.2170   22.5580  -25.0790 C.3   134  PHE134      0.1605
     48  C        -34.9480   23.8460  -24.7190 C.2   134  PHE134      0.2264
     49  O        -34.3440   24.9220  -24.6350 O.2   134  PHE134     -0.2867
     50  CB       -33.7430   21.8640  -23.7990 C.3   134  PHE134      0.0534
     51  CG       -33.1140   20.5170  -24.0230 C.ar  134  PHE134     -0.0203
     52  CD1      -33.8980   19.3770  -24.1020 C.ar  134  PHE134     -0.0042
     53  CD2      -31.7410   20.3900  -24.1550 C.ar  134  PHE134     -0.0042
     54  CE1      -33.3320   18.1360  -24.3030 C.ar  134  PHE134     -0.0003
     55  CE2      -31.1650   19.1500  -24.3620 C.ar  134  PHE134     -0.0003
     56  CZ       -31.9620   18.0190  -24.4350 C.ar  134  PHE134     -0.0000
     57  N        -38.0420   20.6970  -20.7060 N.3   139  ILE139     -0.1245
     58  CA       -37.2590   20.2090  -19.5820 C.3   139  ILE139      0.1561
     59  C        -38.1530   19.9730  -18.3800 C.2   139  ILE139      0.2260
     60  O        -37.9330   19.0390  -17.6070 O.2   139  ILE139     -0.2867
     61  CB       -36.1400   21.1910  -19.2090 C.3   139  ILE139      0.0252
     62  CG1      -35.2170   21.3990  -20.4010 C.3   139  ILE139      0.0019
     63  CG2      -35.3260   20.6610  -18.0520 C.3   139  ILE139      0.0019
     64  CD1      -34.6010   20.1060  -20.8840 C.3   139  ILE139      0.0001
     65  N        -39.7680   16.6790  -18.5130 N.3   142  VAL142     -0.1245
     66  CA       -38.7910   15.6680  -18.1150 C.3   142  VAL142      0.1561
     67  C        -38.7130   15.4880  -16.6010 C.2   142  VAL142      0.2260
     68  O        -38.7710   14.3710  -16.1000 O.2   142  VAL142     -0.2867
     69  CB       -37.3820   16.0230  -18.6390 C.3   142  VAL142      0.0252
     70  CG1      -36.3440   15.0430  -18.0960 C.3   142  VAL142      0.0019
     71  CG2      -37.3790   16.0000  -20.1410 C.3   142  VAL142      0.0019
     72  N        -39.4260    6.4530  -16.8860 N.3   153  TRP153     -0.1241
     73  CA       -38.6390    7.4860  -17.5450 C.3   153  TRP153      0.1605
     74  C        -37.3140    6.9290  -18.0600 C.2   153  TRP153      0.2264
     75  O        -36.9200    7.1840  -19.2070 O.2   153  TRP153     -0.2867
     76  CB       -38.3640    8.6610  -16.6060 C.3   153  TRP153      0.0550
     77  CG       -37.3000    9.5510  -17.1660 C.ar  153  TRP153      0.0003
     78  CD1      -37.4580   10.5340  -18.1030 C.ar  153  TRP153      0.0946
     79  CD2      -35.8970    9.5090  -16.8600 C.ar  153  TRP153      0.0152
     80  NE1      -36.2410   11.1220  -18.3840 N.ar  153  TRP153     -0.2442
     81  CE2      -35.2690   10.5050  -17.6420 C.ar  153  TRP153      0.0810
     82  CE3      -35.1140    8.7250  -16.0030 C.ar  153  TRP153      0.0012
     83  CZ2      -33.8920   10.7350  -17.5890 C.ar  153  TRP153      0.0191
     84  CZ3      -33.7510    8.9570  -15.9500 C.ar  153  TRP153      0.0001
     85  CH2      -33.1530    9.9510  -16.7390 C.ar  153  TRP153      0.0015
     86  N        -35.7430    6.7010  -21.7820 N.3   157  TYR157     -0.1241
     87  CA       -34.6040    7.5760  -22.0470 C.3   157  TYR157      0.1605
     88  C        -33.3560    6.8400  -22.5520 C.2   157  TYR157      0.2264
     89  O        -32.6670    7.3230  -23.4520 O.2   157  TYR157     -0.2867
     90  CB       -34.2420    8.3680  -20.7850 C.3   157  TYR157      0.0534
     91  CG       -33.0330    9.2580  -20.9690 C.ar  157  TYR157     -0.0201
     92  CD1      -33.0250   10.2530  -21.9420 C.ar  157  TYR157     -0.0009
     93  CD2      -31.9070    9.1110  -20.1750 C.ar  157  TYR157     -0.0009
     94  CE1      -31.9310   11.0740  -22.1210 C.ar  157  TYR157      0.0417
     95  CE2      -30.8010    9.9270  -20.3520 C.ar  157  TYR157      0.0417
     96  CZ       -30.8210   10.9050  -21.3320 C.ar  157  TYR157      0.1957
     97  OH       -29.7300   11.7190  -21.5230 O.3   157  TYR157     -0.2866
     98  N        -32.8210    6.4310  -26.1970 N.3   160  LEU160     -0.1245
     99  CA       -32.6940    7.7270  -26.8740 C.3   160  LEU160      0.1561
    100  C        -31.2820    8.2650  -26.6910 C.2   160  LEU160      0.2260
    101  O        -30.6890    8.8100  -27.6210 O.2   160  LEU160     -0.2867
    102  CB       -33.7200    8.7480  -26.3550 C.3   160  LEU160      0.0270
    103  CG       -35.1940    8.4400  -26.6100 C.3   160  LEU160      0.0019
    104  CD1      -36.0800    9.5180  -26.0290 C.3   160  LEU160      0.0001
    105  CD2      -35.4430    8.2770  -28.1030 C.3   160  LEU160      0.0001
    106  N        -29.3120   16.1290   -9.8730 N.3   188  VAL188     -0.1231
    107  CA       -28.2020   16.3650  -10.7990 C.3   188  VAL188      0.1692
    108  C        -28.6970   16.9710  -12.0970 C.2   188  VAL188      0.2592
    109  O        -28.0970   17.9130  -12.6150 O.2   188  VAL188     -0.2718
    110  CB       -27.4230   15.0770  -11.1050 C.3   188  VAL188      0.0266
    111  CG1      -26.3230   15.3410  -12.1020 C.3   188  VAL188      0.0020
    112  CG2      -26.8480   14.5130   -9.8260 C.3   188  VAL188      0.0020
    113  N        -29.8060   16.4420  -12.5990 N.am  189  CYS189     -0.1970
    114  CA       -30.4110   16.9290  -13.8270 C.3   189  CYS189      0.1712
    115  C        -30.8580   18.3860  -13.6770 C.2   189  CYS189      0.2296
    116  O        -30.6580   19.2000  -14.5770 O.2   189  CYS189     -0.2864
    117  CB       -31.5920   16.0380  -14.2190 C.3   189  CYS189      0.0983
    118  SG       -31.8970   15.9130  -15.9930 S.3   189  CYS189     -0.0798
    119  N        -27.5920   20.6050  -13.5310 N.3   192  VAL192     -0.1231
    120  CA       -27.0170   20.7420  -14.8570 C.3   192  VAL192      0.1692
    121  C        -27.7930   21.7180  -15.7290 C.2   192  VAL192      0.2592
    122  O        -27.2060   22.5580  -16.4150 O.2   192  VAL192     -0.2718
    123  CB       -26.9370   19.3750  -15.5700 C.3   192  VAL192      0.0266
    124  CG1      -26.6130   19.5530  -17.0540 C.3   192  VAL192      0.0020
    125  CG2      -25.9150   18.4790  -14.8750 C.3   192  VAL192      0.0020
    126  N        -29.1130   21.6070  -15.7160 N.am  193  PHE193     -0.1976
    127  CA       -29.9260   22.4420  -16.5960 C.3   193  PHE193      0.1639
    128  C        -30.0020   23.9070  -16.1360 C.2   193  PHE193      0.2290
    129  O        -30.4220   24.7650  -16.9050 O.2   193  PHE193     -0.2864
    130  CB       -31.3330   21.8540  -16.7260 C.3   193  PHE193      0.0560
    131  CG       -31.4310   20.7500  -17.7420 C.ar  193  PHE193     -0.0200
    132  CD1      -31.1150   20.9800  -19.0630 C.ar  193  PHE193     -0.0042
    133  CD2      -31.8040   19.4690  -17.3690 C.ar  193  PHE193     -0.0042
    134  CE1      -31.1920   19.9600  -19.9970 C.ar  193  PHE193     -0.0003
    135  CE2      -31.8720   18.4510  -18.3050 C.ar  193  PHE193     -0.0003
    136  CZ       -31.5620   18.7040  -19.6190 C.ar  193  PHE193     -0.0000
    137  N        -28.7350   13.5830  -28.6450 N.3   217  VAL217     -0.1231
    138  CA       -30.0790   13.9650  -28.2560 C.3   217  VAL217      0.1692
    139  C        -30.0970   15.2030  -27.3490 C.2   217  VAL217      0.2592
    140  O        -31.0500   15.9900  -27.3780 O.2   217  VAL217     -0.2718
    141  CB       -30.7850   12.7900  -27.5480 C.3   217  VAL217      0.0266
    142  CG1      -30.0060   12.3620  -26.2900 C.3   217  VAL217      0.0020
    143  CG2      -32.2130   13.1470  -27.2300 C.3   217  VAL217      0.0020
    144  N        -29.0660   15.3610  -26.5220 N.am  218  SER218     -0.1952
    145  CA       -28.9830   16.5350  -25.6740 C.3   218  SER218      0.1924
    146  C        -28.0550   17.6670  -26.1740 C.2   218  SER218      0.2314
    147  O        -27.9480   18.7140  -25.5190 O.2   218  SER218     -0.2863
    148  CB       -28.5300   16.0970  -24.2850 C.3   218  SER218      0.2116
    149  OG       -27.1880   15.6450  -24.3190 O.3   218  SER218     -0.2180
    150  N        -25.1330    9.7650  -27.7170 N.3   245  HIS245     -0.1241
    151  CA       -24.6300   10.5660  -26.6170 C.3   245  HIS245      0.1621
    152  C        -23.6270    9.7820  -25.7840 C.2   245  HIS245      0.2264
    153  O        -22.9280   10.3520  -24.9470 O.2   245  HIS245     -0.2867
    154  CB       -25.8020   11.0450  -25.7680 C.3   245  HIS245      0.0745
    155  CG       -25.4060   11.9350  -24.6310 C.ar  245  HIS245      0.0817
    156  ND1      -24.7350   13.1140  -24.8080 N.ar  245  HIS245     -0.2268
    157  CD2      -25.6260   11.8130  -23.2930 C.ar  245  HIS245      0.1154
    158  CE1      -24.5280   13.6880  -23.6250 C.ar  245  HIS245      0.1986
    159  NE2      -25.0690   12.9200  -22.7010 N.ar  245  HIS245     -0.2212
@<TRIPOS>BOND
     1   137   138    1
     2   138   141    1
     3   138   139    1
     4   105   103    1
     5   150   151    1
     6   101   100    2
     7   141   143    1
     8   141   142    1
     9   140   139    2
    10   139   144   am
    11    99   100    1
    12    99   102    1
    13    99    98    1
    14   151   152    1
    15   151   154    1
    16   103   102    1
    17   103   104    1
    18   144   145    1
    19   146   145    1
    20   146   147    2
    21    46    47    1
    22   152   153    2
    23   154   155    1
    24   145   148    1
    25    47    48    1
    26    47    50    1
    27   156   155   ar
    28   156   158   ar
    29    48    49    2
    30   155   157   ar
    31    56    55   ar
    32    56    54   ar
    33    55    53   ar
    34   149   148    1
    35    54    52   ar
    36    53    51   ar
    37    52    51   ar
    38    51    50    1
    39    38    37    2
    40   158   159   ar
    41    89    88    2
    42   157   159   ar
    43    37    36    1
    44    19    21   ar
    45    19    17   ar
    46    21    20   ar
    47    42    44   ar
    48    42    40   ar
    49    36    35    1
    50    36    39    1
    51    88    87    1
    52    44    45   ar
    53    94    92   ar
    54    94    96   ar
    55    87    86    1
    56    87    90    1
    57    92    91   ar
    58    39    40    1
    59    40    41   ar
    60    97    96    1
    61    20    18   ar
    62    45    43   ar
    63    17    16    1
    64    17    18   ar
    65    96    95   ar
    66    91    90    1
    67    91    93   ar
    68    22    23    1
    69    22    14   am
    70    64    62    1
    71    16    13    1
    72    57    58    1
    73    13    14    1
    74    13    12    1
    75    23    26    1
    76    23    24    1
    77    41    43   ar
    78    62    61    1
    79    95    93   ar
    80    26    27    1
    81    71    69    1
    82    14    15    2
    83   134   136   ar
    84   134   132   ar
    85   136   135   ar
    86    58    61    1
    87    58    59    1
    88    25    24    2
    89    24    28   am
    90    61    63    1
    91    75    74    2
    92   132   131   ar
    93    69    66    1
    94    69    70    1
    95    65    66    1
    96    80    78   ar
    97    80    81   ar
    98    59    60    2
    99   135   133   ar
   100    28    29    1
   101    66    67    1
   102    78    77   ar
   103    74    73    1
   104   131   133   ar
   105   131   130    1
   106    81    83   ar
   107    81    79   ar
   108    83    85   ar
   109     4     3    2
   110    73    72    1
   111    73    76    1
   112    77    79   ar
   113    77    76    1
   114     8    10   ar
   115     8     6   ar
   116   124   123    1
   117    29    30    1
   118    29    32    1
   119   129   128    2
   120    79    82   ar
   121    10    11   ar
   122    85    84   ar
   123   130   127    1
   124     1     2    1
   125    67    68    2
   126   127   128    1
   127   127   126    1
   128    30    31    2
   129   122   121    2
   130     3     2    1
   131     5     6    1
   132     5     2    1
   133     6     7   ar
   134    82    84   ar
   135   118   117    1
   136    32    33    1
   137    32    34    1
   138   121   126   am
   139   121   120    1
   140   123   125    1
   141   123   120    1
   142    11     9   ar
   143   120   119    1
   144     7     9   ar
   145   116   115    2
   146   117   114    1
   147   114   115    1
   148   114   113    1
   149   109   108    2
   150   113   108   am
   151   111   110    1
   152   108   107    1
   153   110   107    1
   154   110   112    1
   155   107   106    1
