@<TRIPOS>MOLECULE
tmp/5dj9B02.pdb
 146 140 0 0 0
SMALL
GASTEIGER

@<TRIPOS>ATOM
      1  N         23.8060   13.5380   79.0250 N.3    30  TYR30      -0.1241
      2  CA        24.6560   14.4960   79.7260 C.3    30  TYR30       0.1605
      3  C         23.8820   15.2320   80.8140 C.2    30  TYR30       0.2264
      4  O         22.6840   15.3420   80.7260 O.2    30  TYR30      -0.2867
      5  CB        25.2560   15.5230   78.7440 C.3    30  TYR30       0.0534
      6  CG        26.4260   14.9890   77.9390 C.ar   30  TYR30      -0.0201
      7  CD1       26.2280   14.1940   76.8300 C.ar   30  TYR30      -0.0009
      8  CD2       27.7130   15.3420   78.2760 C.ar   30  TYR30      -0.0009
      9  CE1       27.3330   13.6960   76.1000 C.ar   30  TYR30       0.0417
     10  CE2       28.7890   14.8850   77.5500 C.ar   30  TYR30       0.0417
     11  CZ        28.5880   14.0730   76.4920 C.ar   30  TYR30       0.1957
     12  OH        29.7030   13.6190   75.7670 O.3    30  TYR30      -0.2866
     13  N         37.6720   19.7130   76.4940 N.3    60  VAL60      -0.1245
     14  CA        38.6530   18.8350   77.1750 C.3    60  VAL60       0.1561
     15  C         39.9450   18.7330   76.3310 C.2    60  VAL60       0.2260
     16  O         40.3950   17.6340   75.9570 O.2    60  VAL60      -0.2867
     17  CB        38.1360   17.4400   77.5770 C.3    60  VAL60       0.0252
     18  CG1       38.9450   16.9120   78.7420 C.3    60  VAL60       0.0019
     19  CG2       36.6380   17.4200   77.9030 C.3    60  VAL60       0.0019
     20  N         37.0920    9.9000   65.3140 N.3   116  THR116     -0.1203
     21  CA        36.9510   10.1790   66.7480 C.3   116  THR116      0.1994
     22  C         38.0740    9.5560   67.5410 C.2   116  THR116      0.2618
     23  O         38.7520    8.6210   67.0550 O.2   116  THR116     -0.2717
     24  CB        35.5970    9.6930   67.2920 C.3   116  THR116      0.1784
     25  OG1       35.5760    8.2710   67.2280 O.3   116  THR116     -0.2211
     26  CG2       34.4690   10.2580   66.4500 C.3   116  THR116      0.0376
     27  N         38.2340   10.0080   68.7820 N.am  117  GLY117     -0.1942
     28  CA        39.2220    9.3740   69.6760 C.3   117  GLY117      0.2014
     29  C         38.8760    7.9410   69.9060 C.2   117  GLY117      0.2638
     30  O         39.7730    7.0580   69.8150 O.2   117  GLY117     -0.2714
     31  N         37.6290    7.5890   70.1160 N.am  118  ALA118     -0.1977
     32  CA        37.2630    6.1710   70.2760 C.3   118  ALA118      0.1597
     33  C         37.6650    5.3390   69.0820 C.2   118  ALA118      0.2287
     34  O         38.0950    4.2150   69.2370 O.2   118  ALA118     -0.2864
     35  CB        35.7590    6.0150   70.5490 C.3   118  ALA118      0.0319
     36  N         40.2960    6.1380   80.3550 N.3   152  TYR152     -0.1227
     37  CA        39.1850    6.5150   79.4760 C.3   152  TYR152      0.1736
     38  C         39.7000    6.6630   78.0780 C.2   152  TYR152      0.2595
     39  O         40.6670    7.3470   77.8330 O.2   152  TYR152     -0.2718
     40  CB        38.5570    7.8440   79.9130 C.3   152  TYR152      0.0548
     41  CG        37.3140    8.1750   79.1210 C.ar  152  TYR152     -0.0200
     42  CD1       37.3850    8.8370   77.9260 C.ar  152  TYR152     -0.0009
     43  CD2       36.0820    7.8110   79.5760 C.ar  152  TYR152     -0.0009
     44  CE1       36.2510    9.1010   77.1790 C.ar  152  TYR152      0.0417
     45  CE2       34.9300    8.1100   78.8700 C.ar  152  TYR152      0.0417
     46  CZ        35.0090    8.8140   77.6990 C.ar  152  TYR152      0.1957
     47  OH        33.8670    9.0950   76.9840 O.3   152  TYR152     -0.2866
     48  N         39.0800    5.9480   77.1560 N.am  153  TRP153     -0.1962
     49  CA        39.4100    6.0750   75.7410 C.3   153  TRP153      0.1771
     50  C         38.2360    6.1360   74.8180 C.2   153  TRP153      0.2620
     51  O         38.3830    6.2230   73.6360 O.2   153  TRP153     -0.2715
     52  CB        40.3680    5.0100   75.3030 C.3   153  TRP153      0.0590
     53  CG        39.9840    3.5750   75.3130 C.ar  153  TRP153      0.0006
     54  CD1       40.1720    2.6890   76.3490 C.ar  153  TRP153      0.0946
     55  CD2       39.4660    2.8150   74.2300 C.ar  153  TRP153      0.0152
     56  NE1       39.7990    1.4250   75.9720 N.ar  153  TRP153     -0.2442
     57  CE2       39.3450    1.4760   74.6790 C.ar  153  TRP153      0.0810
     58  CE3       39.0560    3.1330   72.9190 C.ar  153  TRP153      0.0012
     59  CZ2       38.8860    0.4690   73.8610 C.ar  153  TRP153      0.0191
     60  CZ3       38.5660    2.1630   72.1430 C.ar  153  TRP153      0.0001
     61  CH2       38.4570    0.8440   72.6110 C.ar  153  TRP153      0.0015
     62  N         37.0660    6.1450   75.3810 N.am  154  GLY154     -0.1940
     63  CA        35.8700    6.2930   74.5360 C.3   154  GLY154      0.2014
     64  C         34.7080    5.4660   75.0250 C.2   154  GLY154      0.2638
     65  O         34.7080    4.9690   76.1540 O.2   154  GLY154     -0.2714
     66  N         33.6940    5.3800   74.1560 N.am  155  ARG155     -0.1977
     67  CA        32.3880    4.8270   74.5370 C.3   155  ARG155      0.1597
     68  C         31.8860    3.7070   73.6720 C.2   155  ARG155      0.2287
     69  O         30.7040    3.3200   73.7630 O.2   155  ARG155     -0.2864
     70  CB        31.3560    5.9740   74.5610 C.3   155  ARG155      0.0334
     71  CG        31.6630    7.0330   75.5720 C.3   155  ARG155      0.0492
     72  CD        31.4410    6.5610   76.9910 C.3   155  ARG155      0.2205
     73  NE        31.4210    7.6940   77.9160 N.pl3 155  ARG155     -0.0865
     74  CZ        30.8750    7.6720   79.1010 C.cat 155  ARG155      0.5346
     75  NH1       30.2070    6.6110   79.5550 N.pl3 155  ARG155      0.1354
     76  NH2       30.8470    8.8030   79.7920 N.pl3 155  ARG155      0.1354
     77  N         47.6320    6.3540   79.0830 N.3   205  GLU205     -0.1245
     78  CA        47.6340    7.8190   78.9830 C.3   205  GLU205      0.1567
     79  C         48.8260    8.3920   79.7430 C.2   205  GLU205      0.2260
     80  O         49.0580    7.9660   80.8830 O.2   205  GLU205     -0.2867
     81  CB        46.3580    8.3300   79.6720 C.3   205  GLU205      0.0388
     82  CG        45.0610    7.9590   78.9720 C.3   205  GLU205      0.1160
     83  CD        43.8080    8.2060   79.8240 C.2   205  GLU205      0.3649
     84  OE1       43.3020    9.3740   79.9260 O.co2 205  GLU205     -0.2457
     85  OE2       43.3160    7.2310   80.4970 O.co2 205  GLU205     -0.2457
     86  N         40.1600   11.9230   81.9650 N.3   210  GLU210     -0.1245
     87  CA        38.8520   11.7760   82.5630 C.3   210  GLU210      0.1567
     88  C         38.9250   11.0970   83.9190 C.2   210  GLU210      0.2260
     89  O         38.1050   11.3340   84.7700 O.2   210  GLU210     -0.2867
     90  CB        37.8710   11.0840   81.6080 C.3   210  GLU210      0.0388
     91  CG        36.4320   10.9910   82.0880 C.3   210  GLU210      0.1160
     92  CD        35.7930   12.3390   82.4150 C.2   210  GLU210      0.3649
     93  OE1       36.4200   13.3760   82.1480 O.co2 210  GLU210     -0.2457
     94  OE2       34.6560   12.3940   82.9500 O.co2 210  GLU210     -0.2457
     95  N         48.0400    7.0410   74.3610 N.3   238  ASP238     -0.1239
     96  CA        46.8860    7.8710   74.0340 C.3   238  ASP238      0.1674
     97  C         47.1930    9.3160   74.3980 C.2   238  ASP238      0.2266
     98  O         47.1790    9.6930   75.5690 O.2   238  ASP238     -0.2867
     99  CB        45.6700    7.3670   74.7980 C.3   238  ASP238      0.1410
    100  CG        44.4220    8.0430   74.4090 C.2   238  ASP238      0.3668
    101  OD1       44.5720    9.1050   73.7700 O.co2 238  ASP238     -0.2456
    102  OD2       43.2520    7.5560   74.7190 O.co2 238  ASP238     -0.2456
    103  N         45.3830   11.7820   72.9260 N.3   240  ILE240     -0.1231
    104  CA        44.1810   12.5100   72.4440 C.3   240  ILE240      0.1692
    105  C         43.8820   13.7190   73.3000 C.2   240  ILE240      0.2592
    106  O         43.5000   14.7700   72.7650 O.2   240  ILE240     -0.2718
    107  CB        42.9760   11.5360   72.2890 C.3   240  ILE240      0.0266
    108  CG1       43.2560   10.5860   71.1070 C.3   240  ILE240      0.0019
    109  CG2       41.6560   12.2290   72.1230 C.3   240  ILE240      0.0020
    110  CD1       42.5410    9.2690   71.1820 C.3   240  ILE240      0.0001
    111  N         44.0110   13.5650   74.6090 N.am  241  GLN241     -0.1966
    112  CA        43.7530   14.6620   75.5240 C.3   241  GLN241      0.1733
    113  C         45.0800   15.3670   75.9180 C.2   241  GLN241      0.2617
    114  O         45.0850   16.5560   76.0890 O.2   241  GLN241     -0.2715
    115  CB        43.0200   14.1540   76.7850 C.3   241  GLN241      0.0408
    116  CG        42.7410   15.2830   77.7580 C.3   241  GLN241      0.0908
    117  CD        41.8120   14.9460   78.9210 C.2   241  GLN241      0.2608
    118  OE1       41.8660   15.6420   79.9360 O.2   241  GLN241     -0.2717
    119  NE2       40.9290   13.9310   78.7790 N.am  241  GLN241     -0.0878
    120  N         46.1900   14.6450   76.0730 N.am  242  THR242     -0.1951
    121  CA        47.4350   15.2210   76.5940 C.3   242  THR242      0.1897
    122  C         48.3520   15.7870   75.5500 C.2   242  THR242      0.2313
    123  O         49.2950   16.5070   75.8900 O.2   242  THR242     -0.2863
    124  CB        48.2130   14.2200   77.4440 C.3   242  THR242      0.1794
    125  OG1       48.5210   13.0890   76.6430 O.3   242  THR242     -0.2208
    126  CG2       47.4950   13.7530   78.6120 C.3   242  THR242      0.0378
    127  N         41.0820   15.3300   69.0490 N.3   267  LYS267     -0.1245
    128  CA        40.7530   16.5880   69.7200 C.3   267  LYS267      0.1561
    129  C         41.3350   17.8340   69.0160 C.2   267  LYS267      0.2260
    130  O         40.9100   18.2040   67.9190 O.2   267  LYS267     -0.2867
    131  CB        41.0630   16.4970   71.2000 C.3   267  LYS267      0.0271
    132  CG        40.0710   15.6210   71.9410 C.3   267  LYS267      0.0035
    133  CD        40.3050   15.7550   73.4260 C.3   267  LYS267      0.0206
    134  CE        39.4760   14.8970   74.3560 C.3   267  LYS267      0.1093
    135  NZ        38.0790   15.3360   74.4980 N.3   267  LYS267     -0.1314
    136  N         38.3040   20.9010   86.8560 N.3   390  ARG390     -0.1245
    137  CA        39.2660   20.9630   85.7630 C.3   390  ARG390      0.1563
    138  C         39.4310   22.3330   85.2060 C.2   390  ARG390      0.2260
    139  O         38.4580   23.1120   85.1330 O.2   390  ARG390     -0.2867
    140  CB        38.8190   20.0580   84.6420 C.3   390  ARG390      0.0307
    141  CG        38.8940   18.6300   85.0530 C.3   390  ARG390      0.0489
    142  CD        38.5770   17.7810   83.8510 C.3   390  ARG390      0.2205
    143  NE        37.1910   17.8970   83.4500 N.pl3 390  ARG390     -0.0865
    144  CZ        36.5750   17.1450   82.5560 C.cat 390  ARG390      0.5346
    145  NH1       37.2390   16.1970   81.9200 N.pl3 390  ARG390      0.1354
    146  NH2       35.2810   17.2930   82.3630 N.pl3 390  ARG390      0.1354
@<TRIPOS>BOND
     1    20    21    1
     2    26    24    1
     3    21    24    1
     4    21    22    1
     5    23    22    2
     6    25    24    1
     7    22    27   am
     8   130   129    2
     9    27    28    1
    10   129   128    1
    11   127   128    1
    12    33    34    2
    13    33    32    1
    14    28    29    1
    15   128   131    1
    16    30    29    2
    17    29    31   am
    18    31    32    1
    19    32    35    1
    20   108   110    1
    21   108   107    1
    22   131   132    1
    23   132   133    1
    24   109   107    1
    25    60    61   ar
    26    60    58   ar
    27   107   104    1
    28   104   103    1
    29   104   105    1
    30    61    59   ar
    31   106   105    2
    32    58    55   ar
    33   105   111   am
    34   133   134    1
    35    51    50    2
    36    68    69    2
    37    68    67    1
    38   101   100   ar
    39    59    57   ar
    40    96    95    1
    41    96    97    1
    42    96    99    1
    43    66    67    1
    44    66    64   am
    45    55    57   ar
    46    55    53   ar
    47   134   135    1
    48    97    98    2
    49   100   102   ar
    50   100    99    1
    51    63    64    1
    52    63    62    1
    53    67    70    1
    54    70    71    1
    55   111   112    1
    56    57    56   ar
    57    50    62   am
    58    50    49    1
    59    64    65    2
    60    52    53    1
    61    52    49    1
    62    53    54   ar
    63   112   113    1
    64   112   115    1
    65   122   123    2
    66   122   121    1
    67    71    72    1
    68    49    48    1
    69    12    11    1
    70   113   120   am
    71   113   114    2
    72    16    15    2
    73    56    54   ar
    74   120   121    1
    75     9    11   ar
    76     9     7   ar
    77    15    14    1
    78    11    10   ar
    79    13    14    1
    80   121   124    1
    81   125   124    1
    82   115   116    1
    83     7     6   ar
    84    47    46    1
    85    72    73    1
    86    48    38   am
    87    14    17    1
    88    44    46   ar
    89    44    42   ar
    90   124   126    1
    91    10     8   ar
    92    17    19    1
    93    17    18    1
    94    46    45   ar
    95   116   117    1
    96    39    38    2
    97    73    74    2
    98    42    41   ar
    99     6     8   ar
   100     6     5    1
   101    38    37    1
   102     5     2    1
   103   119   117   am
   104    45    43   ar
   105   117   118    2
   106    82    81    1
   107    82    83    1
   108    78    77    1
   109    78    81    1
   110    78    79    1
   111     1     2    1
   112    74    75    1
   113    74    76    1
   114    41    43   ar
   115    41    40    1
   116    37    40    1
   117    37    36    1
   118     2     3    1
   119    79    80    2
   120    83    84   ar
   121    83    85   ar
   122     4     3    2
   123    90    91    1
   124    90    87    1
   125   145   144    1
   126    86    87    1
   127    91    92    1
   128    93    92   ar
   129   146   144    1
   130    92    94   ar
   131   144   143    2
   132    87    88    1
   133   143   142    1
   134   142   141    1
   135    88    89    2
   136   140   141    1
   137   140   137    1
   138   139   138    2
   139   138   137    1
   140   137   136    1
