@<TRIPOS>MOLECULE
tmp/5djgA00.pdb
 195 190 0 0 0
SMALL
GASTEIGER

@<TRIPOS>ATOM
      1  N         12.0290   27.6810   20.9180 N.3    68  GLU68      -0.1245
      2  CA        13.4610   27.9720   20.8710 C.3    68  GLU68       0.1567
      3  C         14.0350   28.1420   22.2690 C.2    68  GLU68       0.2260
      4  O         15.1770   27.7580   22.5280 O.2    68  GLU68      -0.2867
      5  CB        13.7570   29.2320   20.0530 C.3    68  GLU68       0.0388
      6  CG        15.2730   29.4680   19.8970 C.3    68  GLU68       0.1160
      7  CD        15.6030   30.7130   19.1230 C.2    68  GLU68       0.3649
      8  OE1       14.6750   31.4830   18.8210 O.co2  68  GLU68      -0.2457
      9  OE2       16.7920   30.9250   18.8210 O.co2  68  GLU68      -0.2457
     10  N          8.4090   30.6000   18.1490 N.3    86  ASP86      -0.1239
     11  CA         9.5680   31.4650   18.3300 C.3    86  ASP86       0.1674
     12  C          9.1000   32.6920   19.0910 C.2    86  ASP86       0.2266
     13  O          8.4330   33.5450   18.5040 O.2    86  ASP86      -0.2867
     14  CB        10.1690   31.8700   16.9840 C.3    86  ASP86       0.1410
     15  CG        11.6090   32.3540   17.1130 C.2    86  ASP86       0.3668
     16  OD1       12.0160   32.6870   18.2390 O.co2  86  ASP86      -0.2456
     17  OD2       12.3360   32.3790   16.1060 O.co2  86  ASP86      -0.2456
     18  N         10.5900   35.2320   20.1150 N.3    88  LEU88      -0.1231
     19  CA        11.1560   36.4280   19.5200 C.3    88  LEU88       0.1693
     20  C         12.0600   36.0240   18.3650 C.2    88  LEU88       0.2592
     21  O         13.1530   35.5150   18.5620 O.2    88  LEU88      -0.2718
     22  CB        11.9310   37.2550   20.5590 C.3    88  LEU88       0.0284
     23  CG        12.7520   38.4240   20.0050 C.3    88  LEU88       0.0019
     24  CD1       11.9000   39.3530   19.1360 C.3    88  LEU88       0.0001
     25  CD2       13.4550   39.2030   21.1180 C.3    88  LEU88       0.0001
     26  N         11.5960   36.2570   17.1540 N.am   89  ASP89      -0.1960
     27  CA        12.4170   36.0220   15.9820 C.3    89  ASP89       0.1840
     28  C         13.0360   37.3480   15.5180 C.2    89  ASP89       0.2623
     29  O         12.3400   38.3510   15.3340 O.2    89  ASP89      -0.2715
     30  CB        11.5910   35.3720   14.8750 C.3    89  ASP89       0.1450
     31  CG        12.4200   35.0470   13.6470 C.2    89  ASP89       0.3671
     32  OD1       13.1710   34.0540   13.6970 O.co2  89  ASP89      -0.2456
     33  OD2       12.3110   35.7880   12.6430 O.co2  89  ASP89      -0.2456
     34  N         14.3530   37.3600   15.3460 N.am   90  GLY90      -0.1940
     35  CA        15.0390   38.6020   15.0130 C.3    90  GLY90       0.2014
     36  C         15.4430   39.3420   16.2710 C.2    90  GLY90       0.2640
     37  O         15.2850   40.5590   16.3780 O.2    90  GLY90      -0.2714
     38  N         15.9690   38.5840   17.2270 N.am   91  THR91      -0.1936
     39  CA        16.4360   39.1090   18.5070 C.3    91  THR91       0.2028
     40  C         17.4270   40.2560   18.3270 C.2    91  THR91       0.2642
     41  O         17.3930   41.2600   19.0520 O.2    91  THR91      -0.2714
     42  CB        17.0830   37.9790   19.3450 C.3    91  THR91       0.1808
     43  OG1       16.1050   36.9540   19.6010 O.3    91  THR91      -0.2208
     44  CG2       17.6090   38.5090   20.6670 C.3    91  THR91       0.0379
     45  N         18.3130   40.1040   17.3520 N.am   92  ARG92      -0.1963
     46  CA        19.2710   41.1450   17.0190 C.3    92  ARG92       0.1729
     47  C         18.6190   42.4830   16.6690 C.2    92  ARG92       0.2616
     48  O         19.0060   43.5370   17.1920 O.2    92  ARG92      -0.2715
     49  CB        20.1350   40.6860   15.8530 C.3    92  ARG92       0.0348
     50  CG        21.1200   41.7320   15.3980 C.3    92  ARG92       0.0492
     51  CD        22.2380   41.0950   14.6190 C.3    92  ARG92       0.2205
     52  NE        22.1570   41.3910   13.1960 N.pl3  92  ARG92      -0.0865
     53  CZ        22.7460   42.4350   12.6270 C.cat  92  ARG92       0.5346
     54  NH1       23.4450   43.2820   13.3690 N.pl3  92  ARG92       0.1354
     55  NH2       22.6310   42.6380   11.3220 N.pl3  92  ARG92       0.1354
     56  N         17.6440   42.4350   15.7650 N.am   93  GLU93      -0.1977
     57  CA        16.9500   43.6390   15.3210 C.3    93  GLU93       0.1602
     58  C         16.1000   44.2540   16.4390 C.2    93  GLU93       0.2287
     59  O         16.0860   45.4800   16.6160 O.2    93  GLU93      -0.2864
     60  CB        16.0850   43.3250   14.0930 C.3    93  GLU93       0.0415
     61  CG        16.8940   43.1250   12.8250 C.3    93  GLU93       0.1163
     62  CD        17.6580   41.8050   12.7970 C.2    93  GLU93       0.3649
     63  OE1       17.2540   40.8460   13.4940 O.co2  93  GLU93      -0.2457
     64  OE2       18.6710   41.7290   12.0710 O.co2  93  GLU93      -0.2457
     65  N         18.6980   37.4200    4.5980 N.3   149  SER149     -0.1202
     66  CA        19.2270   37.8040    5.9000 C.3   149  SER149      0.2020
     67  C         20.2060   38.9750    5.8230 C.2   149  SER149      0.2619
     68  O         21.0910   39.0090    4.9690 O.2   149  SER149     -0.2717
     69  CB        19.9120   36.6050    6.5660 C.3   149  SER149      0.2103
     70  OG        20.6230   37.0120    7.7290 O.3   149  SER149     -0.2182
     71  N         20.0370   39.9290    6.7350 N.am  150  ALA150     -0.1965
     72  CA        20.9320   41.0770    6.8390 C.3   150  ALA150      0.1728
     73  C         22.2070   40.6920    7.5690 C.2   150  ALA150      0.2617
     74  O         23.1570   41.4700    7.6430 O.2   150  ALA150     -0.2715
     75  CB        20.2340   42.2400    7.5550 C.3   150  ALA150      0.0334
     76  N         22.2360   39.4760    8.0950 N.am  151  THR151     -0.1937
     77  CA        23.3800   39.0330    8.8770 C.3   151  THR151      0.2028
     78  C         24.1250   37.9100    8.1800 C.2   151  THR151      0.2642
     79  O         25.3340   37.9900    7.9620 O.2   151  THR151     -0.2714
     80  CB        22.9450   38.5600   10.2710 C.3   151  THR151      0.1808
     81  OG1       22.1090   39.5590   10.8650 O.3   151  THR151     -0.2208
     82  CG2       24.1610   38.3030   11.1630 C.3   151  THR151      0.0379
     83  N         23.3890   36.8670    7.8230 N.am  152  ARG152     -0.1977
     84  CA        23.9780   35.6750    7.2330 C.3   152  ARG152      0.1597
     85  C         23.2660   35.2850    5.9390 C.2   152  ARG152      0.2287
     86  O         22.6050   34.2530    5.8800 O.2   152  ARG152     -0.2864
     87  CB        23.9300   34.5180    8.2430 C.3   152  ARG152      0.0334
     88  CG        24.7880   34.7500    9.4780 C.3   152  ARG152      0.0492
     89  CD        24.6580   33.6250   10.4960 C.3   152  ARG152      0.2205
     90  NE        23.4800   33.7820   11.3430 N.pl3 152  ARG152     -0.0865
     91  CZ        23.1830   32.9870   12.3710 C.cat 152  ARG152      0.5346
     92  NH1       23.9820   31.9720   12.6820 N.pl3 152  ARG152      0.1354
     93  NH2       22.0840   33.2000   13.0830 N.pl3 152  ARG152      0.1354
     94  N         16.1580   41.8730    8.5840 N.3   172  GLY172     -0.1210
     95  CA        16.2600   40.9300    9.6850 C.3   172  GLY172      0.1956
     96  C         14.9650   40.1470    9.8150 C.2   172  GLY172      0.2613
     97  O         13.9230   40.5910    9.3210 O.2   172  GLY172     -0.2717
     98  N         15.0530   38.9780   10.4480 N.am  173  SER173     -0.1938
     99  CA        13.9000   38.1440   10.8410 C.3   173  SER173      0.2055
    100  C         13.3110   37.3230    9.6820 C.2   173  SER173      0.2642
    101  O         13.0570   37.8290    8.5970 O.2   173  SER173     -0.2714
    102  CB        12.8060   39.0090   11.5020 C.3   173  SER173      0.2130
    103  OG        11.5980   38.2920   11.6990 O.3   173  SER173     -0.2179
    104  N         13.1360   36.0330    9.9300 N.am  174  ALA174     -0.1977
    105  CA        12.4820   35.1350    8.9930 C.3   174  ALA174      0.1597
    106  C         11.0160   35.5200    8.8480 C.2   174  ALA174      0.2287
    107  O         10.4730   35.5640    7.7480 O.2   174  ALA174     -0.2864
    108  CB        12.6200   33.6740    9.4690 C.3   174  ALA174      0.0319
    109  N         10.7020   38.8320    6.8580 N.3   177  LYS177     -0.1245
    110  CA        10.9930   38.6350    5.4420 C.3   177  LYS177      0.1561
    111  C          9.8600   37.9000    4.7360 C.2   177  LYS177      0.2260
    112  O          9.5360   38.2010    3.5860 O.2   177  LYS177     -0.2867
    113  CB        12.3060   37.8640    5.2600 C.3   177  LYS177      0.0271
    114  CG        13.5310   38.7350    5.4440 C.3   177  LYS177      0.0035
    115  CD        14.8160   38.0180    5.1390 C.3   177  LYS177      0.0206
    116  CE        15.2820   37.1820    6.3120 C.3   177  LYS177      0.1093
    117  NZ        15.5540   38.0130    7.5170 N.3   177  LYS177     -0.1314
    118  N         11.5830   35.2270   -0.5590 N.3   189  TYR189     -0.1241
    119  CA        12.4550   35.1510    0.5940 C.3   189  TYR189      0.1605
    120  C         13.2260   33.8540    0.4320 C.2   189  TYR189      0.2264
    121  O         12.6370   32.7860    0.3300 O.2   189  TYR189     -0.2867
    122  CB        11.6380   35.1720    1.8850 C.3   189  TYR189      0.0534
    123  CG        12.3630   34.7260    3.1430 C.ar  189  TYR189     -0.0201
    124  CD1       13.7350   34.9260    3.3110 C.ar  189  TYR189     -0.0009
    125  CD2       11.6600   34.0980    4.1640 C.ar  189  TYR189     -0.0009
    126  CE1       14.3800   34.5080    4.4740 C.ar  189  TYR189      0.0417
    127  CE2       12.2890   33.6910    5.3270 C.ar  189  TYR189      0.0417
    128  CZ        13.6420   33.9000    5.4820 C.ar  189  TYR189      0.1957
    129  OH        14.2560   33.4780    6.6500 O.3   189  TYR189     -0.2866
    130  N         16.5500   31.5230    1.9000 N.3   191  HIS191     -0.1226
    131  CA        17.5450   31.3180    2.9410 C.3   191  HIS191      0.1752
    132  C         18.2420   29.9760    2.8070 C.2   191  HIS191      0.2596
    133  O         17.6340   28.9790    2.4420 O.2   191  HIS191     -0.2718
    134  CB        16.9090   31.4340    4.3370 C.3   191  HIS191      0.0759
    135  CG        17.9120   31.4060    5.4520 C.ar  191  HIS191      0.0818
    136  ND1       18.7570   32.4590    5.7170 N.ar  191  HIS191     -0.2268
    137  CD2       18.2260   30.4370    6.3450 C.ar  191  HIS191      0.1154
    138  CE1       19.5440   32.1460    6.7350 C.ar  191  HIS191      0.1986
    139  NE2       19.2420   30.9250    7.1310 N.ar  191  HIS191     -0.2212
    140  N         19.5310   29.9620    3.1090 N.am  192  ALA192     -0.1966
    141  CA        20.2860   28.7230    3.2230 C.3   192  ALA192      0.1728
    142  C         21.3300   28.9180    4.3190 C.2   192  ALA192      0.2617
    143  O         21.5310   30.0410    4.7740 O.2   192  ALA192     -0.2715
    144  CB        20.9450   28.3510    1.8890 C.3   192  ALA192      0.0334
    145  N         21.9810   27.8400    4.7470 N.am  193  GLY193     -0.1940
    146  CA        23.0910   27.9530    5.6820 C.3   193  GLY193      0.2014
    147  C         22.7580   27.6770    7.1400 C.2   193  GLY193      0.2639
    148  O         23.6410   27.7030    7.9980 O.2   193  GLY193     -0.2714
    149  N         21.4890   27.4150    7.4340 N.am  194  GLY194     -0.1939
    150  CA        21.0920   27.0830    8.7970 C.3   194  GLY194      0.2014
    151  C         19.8790   27.8510    9.3030 C.2   194  GLY194      0.2639
    152  O         19.7190   29.0300    9.0010 O.2   194  GLY194     -0.2714
    153  N         19.0210   27.1640   10.0550 N.am  195  GLN195     -0.1963
    154  CA        17.7960   27.7270   10.6470 C.3   195  GLN195      0.1733
    155  C         17.1250   26.6220   11.4430 C.2   195  GLN195      0.2616
    156  O         17.5420   25.4720   11.3650 O.2   195  GLN195     -0.2715
    157  CB        16.8230   28.2860    9.5880 C.3   195  GLN195      0.0408
    158  CG        16.5950   29.7800    9.6990 C.3   195  GLN195      0.0908
    159  CD        15.4020   30.2730    8.8970 C.2   195  GLN195      0.2608
    160  OE1       14.4310   29.5420    8.6740 O.2   195  GLN195     -0.2717
    161  NE2       15.4630   31.5300    8.4750 N.am  195  GLN195     -0.0878
    162  N         16.0870   26.9580   12.2000 N.am  196  TRP196     -0.1974
    163  CA        15.4080   25.9710   13.0330 C.3   196  TRP196      0.1640
    164  C         13.9290   25.9960   12.7620 C.2   196  TRP196      0.2290
    165  O         13.4340   26.9940   12.2530 O.2   196  TRP196     -0.2864
    166  CB        15.6510   26.2490   14.5050 C.3   196  TRP196      0.0576
    167  CG        17.0670   26.2420   14.8570 C.ar  196  TRP196      0.0006
    168  CD1       17.9380   27.2910   14.7960 C.ar  196  TRP196      0.0946
    169  CD2       17.8120   25.1190   15.3160 C.ar  196  TRP196      0.0152
    170  NE1       19.1860   26.8840   15.1920 N.ar  196  TRP196     -0.2442
    171  CE2       19.1330   25.5540   15.5240 C.ar  196  TRP196      0.0810
    172  CE3       17.4890   23.7830   15.5710 C.ar  196  TRP196      0.0012
    173  CZ2       20.1330   24.7010   15.9750 C.ar  196  TRP196      0.0191
    174  CZ3       18.4810   22.9400   16.0250 C.ar  196  TRP196      0.0001
    175  CH2       19.7890   23.4010   16.2210 C.ar  196  TRP196      0.0015
    176  N         11.8590   29.1190   13.5060 N.3   199  ASP199     -0.1239
    177  CA        12.1100   30.2380   12.5910 C.3   199  ASP199      0.1674
    178  C         11.1810   30.2700   11.3830 C.2   199  ASP199      0.2266
    179  O         10.8390   31.3380   10.9020 O.2   199  ASP199     -0.2867
    180  CB        13.5410   30.2020   12.0820 C.3   199  ASP199      0.1410
    181  CG        14.5480   30.3430   13.1830 C.2   199  ASP199      0.3668
    182  OD1       14.3190   31.1550   14.1050 O.co2 199  ASP199     -0.2456
    183  OD2       15.5660   29.6220   13.1250 O.co2 199  ASP199     -0.2456
    184  N         16.4450   21.1890   13.2730 N.3   230  TYR230     -0.1241
    185  CA        17.2880   21.9970   12.4050 C.3   230  TYR230      0.1605
    186  C         16.7610   21.9080   10.9900 C.2   230  TYR230      0.2264
    187  O         16.5680   20.8180   10.4650 O.2   230  TYR230     -0.2867
    188  CB        18.7250   21.5070   12.4740 C.3   230  TYR230      0.0534
    189  CG        19.7610   22.3190   11.7250 C.ar  230  TYR230     -0.0201
    190  CD1       20.1250   23.5990   12.1460 C.ar  230  TYR230     -0.0009
    191  CD2       20.4290   21.7740   10.6320 C.ar  230  TYR230     -0.0009
    192  CE1       21.1030   24.3230   11.4740 C.ar  230  TYR230      0.0417
    193  CE2       21.4080   22.4850    9.9620 C.ar  230  TYR230      0.0417
    194  CZ        21.7430   23.7540   10.3820 C.ar  230  TYR230      0.1957
    195  OH        22.7260   24.4440    9.7010 O.3   230  TYR230     -0.2866
@<TRIPOS>BOND
     1   118   119    1
     2   121   120    2
     3   120   119    1
     4   119   122    1
     5   122   123    1
     6   144   141    1
     7   130   131    1
     8   133   132    2
     9   132   131    1
    10   132   140   am
    11   131   134    1
    12   140   141    1
    13   123   124   ar
    14   123   125   ar
    15   141   142    1
    16   124   126   ar
    17   112   111    2
    18   125   127   ar
    19   142   145   am
    20   142   143    2
    21   134   135    1
    22   126   128   ar
    23    65    66    1
    24   111   110    1
    25   145   146    1
    26    68    67    2
    27   115   114    1
    28   115   116    1
    29   113   110    1
    30   113   114    1
    31   127   128   ar
    32   110   109    1
    33   135   136   ar
    34   135   137   ar
    35   128   129    1
    36   146   147    1
    37   136   138   ar
    38    67    66    1
    39    67    71   am
    40    86    85    2
    41    66    69    1
    42    85    84    1
    43   116   117    1
    44   137   139   ar
    45    69    70    1
    46   138   139   ar
    47    71    72    1
    48    72    75    1
    49    72    73    1
    50   147   149   am
    51   147   148    2
    52    84    83    1
    53    84    87    1
    54   149   150    1
    55    73    74    2
    56    73    76   am
    57   107   106    2
    58    83    78   am
    59    79    78    2
    60    76    77    1
    61    78    77    1
    62    87    88    1
    63   161   159   am
    64    94    95    1
    65   101   100    2
    66   160   159    2
    67   150   151    1
    68   106   105    1
    69    77    80    1
    70   159   158    1
    71   105   108    1
    72   105   104    1
    73   152   151    2
    74   151   153   am
    75    97    96    2
    76    88    89    1
    77   157   158    1
    78   157   154    1
    79   100   104   am
    80   100    99    1
    81    95    96    1
    82   195   194    1
    83    96    98   am
    84   193   194   ar
    85   193   191   ar
    86   153   154    1
    87    80    81    1
    88    80    82    1
    89   194   192   ar
    90    98    99    1
    91   187   186    2
    92    89    90    1
    93   191   189   ar
    94   154   155    1
    95    99   102    1
    96   179   178    2
    97   186   185    1
    98    55    53    1
    99    90    91    2
   100   156   155    2
   101   178   177    1
   102   155   162   am
   103   192   190   ar
   104   102   103    1
   105   189   190   ar
   106   189   188    1
   107    64    62   ar
   108   180   177    1
   109   180   181    1
   110   162   163    1
   111   165   164    2
   112    91    92    1
   113    91    93    1
   114   185   188    1
   115   185   184    1
   116   177   176    1
   117    53    52    2
   118    53    54    1
   119    33    31   ar
   120   164   163    1
   121    62    61    1
   122    62    63   ar
   123    61    60    1
   124   163   166    1
   125   183   181   ar
   126   181   182   ar
   127    52    51    1
   128    31    32   ar
   129    31    30    1
   130    60    57    1
   131   166   167    1
   132    51    50    1
   133   168   167   ar
   134   168   170   ar
   135   167   169   ar
   136    30    27    1
   137    35    34    1
   138    35    36    1
   139   170   171   ar
   140   169   171   ar
   141   169   172   ar
   142    57    56    1
   143    57    58    1
   144    29    28    2
   145    34    28   am
   146    50    49    1
   147    28    27    1
   148   171   173   ar
   149   172   174   ar
   150    56    47   am
   151    49    46    1
   152   173   175   ar
   153    27    26    1
   154   174   175   ar
   155    17    15   ar
   156    36    37    2
   157    36    38   am
   158    58    59    2
   159    47    46    1
   160    47    48    2
   161    14    15    1
   162    14    11    1
   163    46    45    1
   164    15    16   ar
   165    26    20   am
   166    38    39    1
   167    45    40   am
   168    10    11    1
   169    40    39    1
   170    40    41    2
   171    11    12    1
   172    20    21    2
   173    20    19    1
   174    13    12    2
   175    39    42    1
   176     8     7   ar
   177     9     7   ar
   178     7     6    1
   179    24    23    1
   180    42    43    1
   181    42    44    1
   182    19    18    1
   183    19    22    1
   184     6     5    1
   185    23    22    1
   186    23    25    1
   187     5     2    1
   188     2     1    1
   189     2     3    1
   190     3     4    2
