@<TRIPOS>MOLECULE
tmp/5djhA00.pdb
 169 163 0 0 0
SMALL
GASTEIGER

@<TRIPOS>ATOM
      1  N         12.1590   27.7620   20.7450 N.3    68  GLU68      -0.1245
      2  CA        13.5800   28.1160   20.7150 C.3    68  GLU68       0.1567
      3  C         14.1590   28.2990   22.1210 C.2    68  GLU68       0.2260
      4  O         15.3170   27.9780   22.3610 O.2    68  GLU68      -0.2867
      5  CB        13.7920   29.4210   19.9400 C.3    68  GLU68       0.0388
      6  CG        15.2780   29.7320   19.7510 C.3    68  GLU68       0.1160
      7  CD        15.5310   31.0370   19.0420 C.2    68  GLU68       0.3649
      8  OE1       14.6020   31.8700   18.9540 O.co2  68  GLU68      -0.2457
      9  OE2       16.6760   31.2230   18.5710 O.co2  68  GLU68      -0.2457
     10  N          8.5860   30.5910   18.0060 N.3    86  ASP86      -0.1239
     11  CA         9.7460   31.4620   18.1620 C.3    86  ASP86       0.1674
     12  C          9.2440   32.6640   18.9540 C.2    86  ASP86       0.2266
     13  O          8.5580   33.5220   18.4110 O.2    86  ASP86      -0.2867
     14  CB        10.3150   31.8810   16.8030 C.3    86  ASP86       0.1410
     15  CG        11.7180   32.4370   16.9150 C.2    86  ASP86       0.3668
     16  OD1       12.0780   32.9510   18.0040 O.co2  86  ASP86      -0.2456
     17  OD2       12.4610   32.3700   15.9160 O.co2  86  ASP86      -0.2456
     18  N         11.5640   36.3660   17.1280 N.3    89  ASP89      -0.1225
     19  CA        12.4320   36.1380   15.9790 C.3    89  ASP89       0.1805
     20  C         12.9940   37.4700   15.5030 C.2    89  ASP89       0.2598
     21  O         12.2550   38.4280   15.3600 O.2    89  ASP89      -0.2718
     22  CB        11.6600   35.4540   14.8450 C.3    89  ASP89       0.1424
     23  CG        12.5460   35.1490   13.6800 C.2    89  ASP89       0.3668
     24  OD1       13.5130   34.3860   13.8850 O.co2  89  ASP89      -0.2456
     25  OD2       12.3330   35.7020   12.5790 O.co2  89  ASP89      -0.2456
     26  N         14.3050   37.5360   15.2830 N.am   90  GLY90      -0.1957
     27  CA        14.9490   38.8140   15.0220 C.3    90  GLY90       0.1869
     28  C         15.3120   39.4960   16.3310 C.2    90  GLY90       0.2309
     29  O         15.1600   40.7090   16.4750 O.2    90  GLY90      -0.2863
     30  N         17.5010   42.5050   15.8660 N.3    93  GLU93      -0.1245
     31  CA        16.7970   43.7100   15.4380 C.3    93  GLU93       0.1567
     32  C         15.9430   44.3170   16.5520 C.2    93  GLU93       0.2260
     33  O         15.8980   45.5420   16.7140 O.2    93  GLU93      -0.2867
     34  CB        15.9310   43.4020   14.2030 C.3    93  GLU93       0.0388
     35  CG        16.7230   43.1730   12.9120 C.3    93  GLU93       0.1160
     36  CD        17.4870   41.8570   12.8580 C.2    93  GLU93       0.3649
     37  OE1       17.1390   40.9080   13.5940 O.co2  93  GLU93      -0.2457
     38  OE2       18.4370   41.7820   12.0510 O.co2  93  GLU93      -0.2457
     39  N         18.4030   37.5750    4.6440 N.3   147  SER147     -0.1202
     40  CA        18.9450   37.9460    5.9440 C.3   147  SER147      0.2020
     41  C         19.8700   39.1610    5.8760 C.2   147  SER147      0.2619
     42  O         20.7550   39.2440    5.0120 O.2   147  SER147     -0.2717
     43  CB        19.7140   36.7670    6.5290 C.3   147  SER147      0.2103
     44  OG        20.3760   37.1600    7.7220 O.3   147  SER147     -0.2182
     45  N         19.6600   40.0980    6.7960 N.am  148  ALA148     -0.1965
     46  CA        20.5260   41.2630    6.9320 C.3   148  ALA148      0.1728
     47  C         21.8250   40.8970    7.6440 C.2   148  ALA148      0.2617
     48  O         22.7210   41.7280    7.7740 O.2   148  ALA148     -0.2715
     49  CB        19.8030   42.3630    7.6970 C.3   148  ALA148      0.0334
     50  N         21.9330   39.6510    8.0970 N.am  149  THR149     -0.1937
     51  CA        23.0740   39.2340    8.9050 C.3   149  THR149      0.2028
     52  C         23.8580   38.1150    8.2400 C.2   149  THR149      0.2642
     53  O         25.0860   38.1890    8.1200 O.2   149  THR149     -0.2714
     54  CB        22.6190   38.7540   10.3030 C.3   149  THR149      0.1808
     55  OG1       21.8470   39.7840   10.9290 O.3   149  THR149     -0.2208
     56  CG2       23.8200   38.4080   11.1830 C.3   149  THR149      0.0379
     57  N         23.1410   37.0800    7.8120 N.am  150  ARG150     -0.1977
     58  CA        23.7530   35.9140    7.1850 C.3   150  ARG150      0.1597
     59  C         23.0410   35.5330    5.8870 C.2   150  ARG150      0.2287
     60  O         22.4160   34.4780    5.8110 O.2   150  ARG150     -0.2864
     61  CB        23.7410   34.7280    8.1590 C.3   150  ARG150      0.0334
     62  CG        24.6210   34.9200    9.3870 C.3   150  ARG150      0.0492
     63  CD        24.4850   33.7560   10.3580 C.3   150  ARG150      0.2205
     64  NE        23.3000   33.8740   11.2060 N.pl3 150  ARG150     -0.0865
     65  CZ        23.0170   33.0500   12.2110 C.cat 150  ARG150      0.5346
     66  NH1       23.8290   32.0380   12.4920 N.pl3 150  ARG150      0.1354
     67  NH2       21.9230   33.2340   12.9380 N.pl3 150  ARG150      0.1354
     68  N         15.8530   41.9650    8.5940 N.3   170  GLY170     -0.1210
     69  CA        15.9730   40.9940    9.6680 C.3   170  GLY170      0.1956
     70  C         14.6950   40.2070    9.8760 C.2   170  GLY170      0.2613
     71  O         13.6200   40.6620    9.4610 O.2   170  GLY170     -0.2717
     72  N         14.8540   39.0260   10.4850 N.am  171  SER171     -0.1938
     73  CA        13.7270   38.1600   10.8910 C.3   171  SER171      0.2055
     74  C         13.1060   37.3540    9.7550 C.2   171  SER171      0.2642
     75  O         12.8170   37.8960    8.6750 O.2   171  SER171     -0.2714
     76  CB        12.6360   38.9430   11.6480 C.3   171  SER171      0.2130
     77  OG        11.4420   38.1780   11.7540 O.3   171  SER171     -0.2179
     78  N         12.9000   36.0630    9.9910 N.am  172  ALA172     -0.1977
     79  CA        12.2460   35.2190    9.0080 C.3   172  ALA172      0.1597
     80  C         10.7850   35.6290    8.8520 C.2   172  ALA172      0.2287
     81  O         10.2520   35.6680    7.7470 O.2   172  ALA172     -0.2864
     82  CB        12.3540   33.7540    9.4200 C.3   172  ALA172      0.0319
     83  N         10.4840   38.8710    6.7990 N.3   175  LYS175     -0.1245
     84  CA        10.7220   38.6390    5.3820 C.3   175  LYS175      0.1561
     85  C          9.5860   37.8840    4.6930 C.2   175  LYS175      0.2260
     86  O          9.2160   38.2150    3.5660 O.2   175  LYS175     -0.2867
     87  CB        12.0700   37.9490    5.1690 C.3   175  LYS175      0.0271
     88  CG        13.2370   38.8910    5.4380 C.3   175  LYS175      0.0035
     89  CD        14.5860   38.2820    5.0590 C.3   175  LYS175      0.0206
     90  CE        15.1290   37.3460    6.1320 C.3   175  LYS175      0.1093
     91  NZ        15.3250   38.0330    7.4500 N.3   175  LYS175     -0.1314
     92  N         11.3240   35.3360   -0.5880 N.3   187  TYR187     -0.1241
     93  CA        12.2400   35.2500    0.5340 C.3   187  TYR187      0.1605
     94  C         13.0090   33.9510    0.3330 C.2   187  TYR187      0.2264
     95  O         12.4080   32.8820    0.2220 O.2   187  TYR187     -0.2867
     96  CB        11.4350   35.2310    1.8390 C.3   187  TYR187      0.0534
     97  CG        12.1630   34.8020    3.1030 C.ar  187  TYR187     -0.0201
     98  CD1       13.5310   35.0230    3.2830 C.ar  187  TYR187     -0.0009
     99  CD2       11.4600   34.1670    4.1270 C.ar  187  TYR187     -0.0009
    100  CE1       14.1710   34.6160    4.4610 C.ar  187  TYR187      0.0417
    101  CE2       12.0880   33.7700    5.2980 C.ar  187  TYR187      0.0417
    102  CZ        13.4400   33.9990    5.4580 C.ar  187  TYR187      0.1957
    103  OH        14.0590   33.5970    6.6150 O.3   187  TYR187     -0.2866
    104  N         16.3050   31.6290    1.8500 N.3   189  HIS189     -0.1226
    105  CA        17.3140   31.4260    2.8780 C.3   189  HIS189      0.1752
    106  C         18.0360   30.1020    2.7170 C.2   189  HIS189      0.2596
    107  O         17.4660   29.1190    2.2430 O.2   189  HIS189     -0.2718
    108  CB        16.7250   31.5370    4.2960 C.3   189  HIS189      0.0759
    109  CG        17.7680   31.5780    5.3680 C.ar  189  HIS189      0.0818
    110  ND1       18.5730   32.6800    5.5710 N.ar  189  HIS189     -0.2268
    111  CD2       18.1580   30.6520    6.2770 C.ar  189  HIS189      0.1154
    112  CE1       19.4020   32.4380    6.5700 C.ar  189  HIS189      0.1986
    113  NE2       19.1760   31.2130    7.0120 N.ar  189  HIS189     -0.2212
    114  N         19.3020   30.0880    3.1110 N.am  190  ALA190     -0.1966
    115  CA        20.0720   28.8590    3.1990 C.3   190  ALA190      0.1728
    116  C         21.1700   29.0690    4.2310 C.2   190  ALA190      0.2617
    117  O         21.4270   30.2070    4.6400 O.2   190  ALA190     -0.2715
    118  CB        20.6750   28.5130    1.8460 C.3   190  ALA190      0.0334
    119  N         21.8170   27.9840    4.6450 N.am  191  GLY191     -0.1940
    120  CA        22.9490   28.0860    5.5450 C.3   191  GLY191      0.2014
    121  C         22.6150   27.8090    6.9950 C.2   191  GLY191      0.2639
    122  O         23.4960   27.8600    7.8470 O.2   191  GLY191     -0.2714
    123  N         21.3460   27.5290    7.2710 N.am  192  GLY192     -0.1939
    124  CA        20.9340   27.1620    8.6160 C.3   192  GLY192      0.2014
    125  C         19.7340   27.9370    9.1180 C.2   192  GLY192      0.2639
    126  O         19.5380   29.1020    8.7710 O.2   192  GLY192     -0.2714
    127  N         18.9250   27.2590    9.9250 N.am  193  GLN193     -0.1963
    128  CA        17.7280   27.8260   10.5420 C.3   193  GLN193      0.1733
    129  C         17.0760   26.7090   11.3280 C.2   193  GLN193      0.2616
    130  O         17.5130   25.5580   11.2510 O.2   193  GLN193     -0.2715
    131  CB        16.7260   28.3770    9.5110 C.3   193  GLN193      0.0408
    132  CG        16.4460   29.8740    9.6560 C.3   193  GLN193      0.0908
    133  CD        15.2840   30.3430    8.8020 C.2   193  GLN193      0.2608
    134  OE1       14.3440   29.5840    8.5280 O.2   193  GLN193     -0.2717
    135  NE2       15.3300   31.6090    8.3850 N.am  193  GLN193     -0.0878
    136  N         16.0350   27.0480   12.0780 N.am  194  TRP194     -0.1974
    137  CA        15.3500   26.0790   12.9270 C.3   194  TRP194      0.1640
    138  C         13.8770   26.0480   12.5820 C.2   194  TRP194      0.2290
    139  O         13.3530   26.9810   11.9610 O.2   194  TRP194     -0.2864
    140  CB        15.4990   26.4670   14.3930 C.3   194  TRP194      0.0576
    141  CG        16.8980   26.5420   14.8480 C.ar  194  TRP194      0.0006
    142  CD1       17.7010   27.6490   14.8580 C.ar  194  TRP194      0.0946
    143  CD2       17.6880   25.4660   15.3530 C.ar  194  TRP194      0.0152
    144  NE1       18.9430   27.3230   15.3410 N.ar  194  TRP194     -0.2442
    145  CE2       18.9610   25.9880   15.6530 C.ar  194  TRP194      0.0810
    146  CE3       17.4430   24.1100   15.5790 C.ar  194  TRP194      0.0012
    147  CZ2       19.9850   25.2030   16.1730 C.ar  194  TRP194      0.0191
    148  CZ3       18.4630   23.3290   16.0990 C.ar  194  TRP194      0.0001
    149  CH2       19.7190   23.8790   16.3860 C.ar  194  TRP194      0.0015
    150  N         11.7170   29.0630   13.1920 N.3   197  ASP197     -0.1239
    151  CA        11.9410   30.1880   12.2840 C.3   197  ASP197      0.1674
    152  C         11.0120   30.1880   11.0890 C.2   197  ASP197      0.2266
    153  O         10.5960   31.2510   10.6270 O.2   197  ASP197     -0.2867
    154  CB        13.3930   30.1960   11.8130 C.3   197  ASP197      0.1410
    155  CG        14.3280   30.5520   12.9220 C.2   197  ASP197      0.3668
    156  OD1       14.0150   31.5550   13.5930 O.co2 197  ASP197     -0.2456
    157  OD2       15.3320   29.8440   13.1290 O.co2 197  ASP197     -0.2456
    158  N         16.6300   21.3100   13.1940 N.3   228  TYR228     -0.1241
    159  CA        17.3910   22.1160   12.2440 C.3   228  TYR228      0.1605
    160  C         16.7460   21.9870   10.8730 C.2   228  TYR228      0.2264
    161  O         16.5290   20.8810   10.3690 O.2   228  TYR228     -0.2867
    162  CB        18.8270   21.6140   12.1960 C.3   228  TYR228      0.0534
    163  CG        19.8350   22.4820   11.4680 C.ar  228  TYR228     -0.0201
    164  CD1       20.1600   23.7560   11.9260 C.ar  228  TYR228     -0.0009
    165  CD2       20.5130   21.9900   10.3630 C.ar  228  TYR228     -0.0009
    166  CE1       21.1160   24.5310   11.2700 C.ar  228  TYR228      0.0417
    167  CE2       21.4650   22.7470    9.7100 C.ar  228  TYR228      0.0417
    168  CZ        21.7640   24.0110   10.1640 C.ar  228  TYR228      0.1957
    169  OH        22.7160   24.7470    9.4960 O.3   228  TYR228     -0.2866
@<TRIPOS>BOND
     1    92    93    1
     2    95    94    2
     3    94    93    1
     4    93    96    1
     5    96    97    1
     6   118   115    1
     7   104   105    1
     8   107   106    2
     9   106   105    1
    10   106   114   am
    11   105   108    1
    12    97    98   ar
    13    97    99   ar
    14   114   115    1
    15   115   116    1
    16    98   100   ar
    17    86    85    2
    18    99   101   ar
    19   116   117    2
    20   116   119   am
    21   108   109    1
    22   100   102   ar
    23    39    40    1
    24   119   120    1
    25    85    84    1
    26    42    41    2
    27    89    88    1
    28    89    90    1
    29    87    84    1
    30    87    88    1
    31   101   102   ar
    32   109   110   ar
    33   109   111   ar
    34    84    83    1
    35   102   103    1
    36   120   121    1
    37   110   112   ar
    38    60    59    2
    39    41    40    1
    40    41    45   am
    41    59    58    1
    42    40    43    1
    43    90    91    1
    44   111   113   ar
    45    43    44    1
    46   112   113   ar
    47    45    46    1
    48    46    47    1
    49    46    49    1
    50   121   123   am
    51   121   122    2
    52    58    57    1
    53    58    61    1
    54   123   124    1
    55    47    48    2
    56    47    50   am
    57    81    80    2
    58    57    52   am
    59    50    51    1
    60    53    52    2
    61    61    62    1
    62    52    51    1
    63   135   133   am
    64   134   133    2
    65    68    69    1
    66   124   125    1
    67    75    74    2
    68   126   125    2
    69   133   132    1
    70    80    79    1
    71    51    54    1
    72    79    82    1
    73    79    78    1
    74   125   127   am
    75    62    63    1
    76    71    70    2
    77   169   168    1
    78   131   132    1
    79   131   128    1
    80    69    70    1
    81   167   168   ar
    82   167   165   ar
    83    74    78   am
    84    74    73    1
    85    70    72   am
    86   127   128    1
    87   168   166   ar
    88    54    55    1
    89    54    56    1
    90    63    64    1
    91   165   163   ar
    92   161   160    2
    93    72    73    1
    94   128   129    1
    95   153   152    2
    96   160   159    1
    97    73    76    1
    98   152   151    1
    99    64    65    2
   100   130   129    2
   101   166   164   ar
   102   129   136   am
   103   163   164   ar
   104   163   162    1
   105    76    77    1
   106   154   151    1
   107   154   155    1
   108   139   138    2
   109    38    36   ar
   110   136   137    1
   111   162   159    1
   112    65    66    1
   113    65    67    1
   114   159   158    1
   115   151   150    1
   116    25    23   ar
   117   138   137    1
   118    36    35    1
   119    36    37   ar
   120    35    34    1
   121   155   157   ar
   122   155   156   ar
   123   137   140    1
   124    23    24   ar
   125    23    22    1
   126    34    31    1
   127   140   141    1
   128    22    19    1
   129   141   142   ar
   130   141   143   ar
   131   142   144   ar
   132    27    26    1
   133    27    28    1
   134    26    20   am
   135   144   145   ar
   136   143   146   ar
   137   143   145   ar
   138    21    20    2
   139    31    30    1
   140    31    32    1
   141    20    19    1
   142   146   148   ar
   143   145   147   ar
   144    17    15   ar
   145    19    18    1
   146   148   149   ar
   147   147   149   ar
   148    28    29    2
   149    32    33    2
   150    14    15    1
   151    14    11    1
   152    15    16   ar
   153    10    11    1
   154    11    12    1
   155    13    12    2
   156     9     7   ar
   157     8     7   ar
   158     7     6    1
   159     6     5    1
   160     5     2    1
   161     2     1    1
   162     2     3    1
   163     3     4    2
