@<TRIPOS>MOLECULE
tmp/5djpA00.pdb
 126 119 0 0 0
SMALL
GASTEIGER

@<TRIPOS>ATOM
      1  N         -6.9150   76.3770   20.6410 N.3     3  TYR3       -0.1241
      2  CA        -5.5920   76.4310   20.0210 C.3     3  TYR3        0.1605
      3  C         -5.5760   75.6350   18.6960 C.2     3  TYR3        0.2264
      4  O         -5.1440   76.1690   17.6650 O.2     3  TYR3       -0.2867
      5  CB        -4.5100   75.9330   20.9990 C.3     3  TYR3        0.0534
      6  CG        -4.0610   76.9740   22.0040 C.ar    3  TYR3       -0.0201
      7  CD1       -4.8680   77.3250   23.0840 C.ar    3  TYR3       -0.0009
      8  CD2       -2.8230   77.6020   21.8820 C.ar    3  TYR3       -0.0009
      9  CE1       -4.4790   78.3130   23.9840 C.ar    3  TYR3        0.0417
     10  CE2       -2.4230   78.5900   22.7780 C.ar    3  TYR3        0.0417
     11  CZ        -3.2520   78.9390   23.8290 C.ar    3  TYR3        0.1957
     12  OH        -2.8450   79.8800   24.7390 O.3     3  TYR3       -0.2866
     13  N          5.7590   73.6500   18.0830 N.3    50  LYS50      -0.1245
     14  CA         4.3360   73.5440   18.3770 C.3    50  LYS50       0.1561
     15  C          3.5520   74.8520   18.0880 C.2    50  LYS50       0.2260
     16  O          2.3340   74.7940   17.9700 O.2    50  LYS50      -0.2867
     17  CB         4.1300   73.0400   19.8130 C.3    50  LYS50       0.0271
     18  CG         4.4560   71.5560   20.0000 C.3    50  LYS50       0.0035
     19  CD         5.7710   71.3500   20.7200 C.3    50  LYS50       0.0206
     20  CE         6.1680   69.8950   20.8190 C.3    50  LYS50       0.1093
     21  NZ         7.5190   69.7410   21.4210 N.3    50  LYS50      -0.1314
     22  N          2.9130   77.3910   19.9650 N.3    52  ASN52      -0.1225
     23  CA         2.0560   77.7080   21.0930 C.3    52  ASN52       0.1785
     24  C          2.0680   79.1660   21.5340 C.2    52  ASN52       0.2597
     25  O          0.9860   79.7340   21.7830 O.2    52  ASN52      -0.2718
     26  CB         2.3800   76.7930   22.2270 C.3    52  ASN52       0.1169
     27  CG         1.7320   75.4590   22.0220 C.2    52  ASN52       0.2627
     28  OD1        0.6520   75.3590   21.4400 O.2    52  ASN52      -0.2716
     29  ND2        2.3920   74.4070   22.4710 N.am   52  ASN52      -0.0877
     30  N          3.2710   79.7650   21.5870 N.am   53  ARG53      -0.1979
     31  CA         3.5060   81.1670   21.9290 C.3    53  ARG53       0.1597
     32  C          2.8310   82.1010   20.9120 C.2    53  ARG53       0.2287
     33  O          2.1330   83.0240   21.3210 O.2    53  ARG53      -0.2864
     34  CB         5.0110   81.4580   22.0290 C.3    53  ARG53       0.0334
     35  CG         5.6590   80.8940   23.2790 C.3    53  ARG53       0.0492
     36  CD         7.1610   80.7650   23.0950 C.3    53  ARG53       0.2205
     37  NE         7.7950   80.1070   24.2370 N.pl3  53  ARG53      -0.0865
     38  CZ         7.8540   78.7870   24.4190 C.cat  53  ARG53       0.5346
     39  NH1        7.3240   77.9580   23.5250 N.pl3  53  ARG53       0.1354
     40  NH2        8.4520   78.2870   25.4910 N.pl3  53  ARG53       0.1354
     41  N         -1.0360   81.7890   21.0460 N.3    56  THR56      -0.1218
     42  CA        -1.5190   82.5070   22.2290 C.3    56  THR56       0.1862
     43  C         -1.9340   83.9390   21.8190 C.2    56  THR56       0.2287
     44  O         -2.9960   84.3650   22.2380 O.2    56  THR56      -0.2866
     45  CB        -0.4790   82.4470   23.3750 C.3    56  THR56       0.1770
     46  OG1       -0.2970   81.0880   23.7830 O.3    56  THR56      -0.2211
     47  CG2       -0.8880   83.2810   24.5740 C.3    56  THR56       0.0375
     48  N         11.4180   83.9080   19.3100 N.3    89  GLN89      -0.1245
     49  CA        11.8860   82.6290   19.8410 C.3    89  GLN89       0.1566
     50  C         12.9610   81.9680   18.9540 C.2    89  GLN89       0.2260
     51  O         13.9390   81.4600   19.4930 O.2    89  GLN89      -0.2867
     52  CB        10.7310   81.6680   20.0150 C.3    89  GLN89       0.0367
     53  CG        11.2100   80.4100   20.7200 C.3    89  GLN89       0.0905
     54  CD        10.0890   79.4890   20.9420 C.2    89  GLN89       0.2608
     55  OE1        9.8280   79.1110   22.0740 O.2    89  GLN89      -0.2717
     56  NE2        9.3560   79.1770   19.8750 N.am   89  GLN89      -0.0878
     57  N          7.6080   84.0640   26.7650 N.3   198  SER198     -0.1202
     58  CA         6.7380   82.9290   26.4830 C.3   198  SER198      0.2020
     59  C          5.3230   83.1410   26.9380 C.2   198  SER198      0.2618
     60  O          4.4110   82.6010   26.3110 O.2   198  SER198     -0.2717
     61  CB         7.2750   81.6510   27.1240 C.3   198  SER198      0.2103
     62  OG         8.6640   81.5010   26.9110 O.3   198  SER198     -0.2182
     63  N          5.1360   83.8640   28.0580 N.am  199  PHE199     -0.1975
     64  CA         3.8190   84.0300   28.6650 C.3   199  PHE199      0.1639
     65  C          3.2860   85.4420   28.6700 C.2   199  PHE199      0.2290
     66  O          2.1330   85.6200   28.3350 O.2   199  PHE199     -0.2864
     67  CB         3.8130   83.4500   30.0870 C.3   199  PHE199      0.0560
     68  CG         3.8860   81.9440   30.0530 C.ar  199  PHE199     -0.0200
     69  CD1        5.1190   81.2890   30.0170 C.ar  199  PHE199     -0.0042
     70  CD2        2.7250   81.1770   30.0220 C.ar  199  PHE199     -0.0042
     71  CE1        5.1870   79.8910   29.9450 C.ar  199  PHE199     -0.0003
     72  CE2        2.7920   79.7800   29.9580 C.ar  199  PHE199     -0.0003
     73  CZ         4.0190   79.1460   29.9260 C.ar  199  PHE199     -0.0000
     74  N          5.4660   76.3660   34.4620 N.3   232  PHE232     -0.1241
     75  CA         5.8450   75.7260   33.2060 C.3   232  PHE232      0.1605
     76  C          7.2960   75.2240   33.1960 C.2   232  PHE232      0.2264
     77  O          7.5030   74.0420   32.9420 O.2   232  PHE232     -0.2867
     78  CB         5.6300   76.6670   32.0230 C.3   232  PHE232      0.0534
     79  CG         5.9380   76.0350   30.6810 C.ar  232  PHE232     -0.0203
     80  CD1        5.1040   75.0570   30.1430 C.ar  232  PHE232     -0.0042
     81  CD2        7.0500   76.4260   29.9510 C.ar  232  PHE232     -0.0042
     82  CE1        5.3810   74.4850   28.8950 C.ar  232  PHE232     -0.0003
     83  CE2        7.3150   75.8650   28.6940 C.ar  232  PHE232     -0.0003
     84  CZ         6.4770   74.9050   28.1740 C.ar  232  PHE232     -0.0000
     85  N          7.9070   72.4490   35.7890 N.3   235  GLN235     -0.1231
     86  CA         7.2990   71.2300   35.2690 C.3   235  GLN235      0.1698
     87  C          8.1470   70.6270   34.1250 C.2   235  GLN235      0.2592
     88  O          8.3060   69.4060   34.0740 O.2   235  GLN235     -0.2718
     89  CB         5.8270   71.4790   34.8490 C.3   235  GLN235      0.0381
     90  CG         5.0700   70.2200   34.4130 C.3   235  GLN235      0.0905
     91  CD         3.6320   70.4660   34.0120 C.2   235  GLN235      0.2608
     92  OE1        2.6950   69.9960   34.6730 O.2   235  GLN235     -0.2717
     93  NE2        3.4200   71.1620   32.8950 N.am  235  GLN235     -0.0878
     94  N          8.7080   71.4730   33.2530 N.am  236  ASP236     -0.1974
     95  CA         9.5380   71.0680   32.1110 C.3   236  ASP236      0.1709
     96  C         10.8790   70.3920   32.5340 C.2   236  ASP236      0.2293
     97  O         11.3800   69.4940   31.8350 O.2   236  ASP236     -0.2864
     98  CB         9.7990   72.2820   31.2070 C.3   236  ASP236      0.1436
     99  CG        10.4450   71.9570   29.8820 C.2   236  ASP236      0.3671
    100  OD1        9.7160   71.5500   28.9500 O.co2 236  ASP236     -0.2456
    101  OD2       11.6720   72.1540   29.7600 O.co2 236  ASP236     -0.2456
    102  N         -4.9250   79.1280   28.4230 N.3   337  LEU337     -0.1245
    103  CA        -3.4750   79.0070   28.4560 C.3   337  LEU337      0.1561
    104  C         -3.0710   78.0570   29.6170 C.2   337  LEU337      0.2260
    105  O         -2.3770   77.0670   29.3770 O.2   337  LEU337     -0.2867
    106  CB        -2.8670   80.4290   28.5700 C.3   337  LEU337      0.0270
    107  CG        -1.3590   80.6230   28.5630 C.3   337  LEU337      0.0019
    108  CD1       -0.7220   80.0570   27.3250 C.3   337  LEU337      0.0001
    109  CD2       -1.0180   82.0880   28.6660 C.3   337  LEU337      0.0001
    110  N         -3.5940   74.2150   28.9300 N.3   340  LYS340     -0.1231
    111  CA        -2.5280   73.6500   28.1020 C.3   340  LYS340      0.1693
    112  C         -1.2380   73.3390   28.9270 C.2   340  LYS340      0.2591
    113  O         -0.5680   72.3400   28.6730 O.2   340  LYS340     -0.2718
    114  CB        -2.1970   74.6150   26.9410 C.3   340  LYS340      0.0285
    115  CG        -3.3650   74.9050   25.9940 C.3   340  LYS340      0.0035
    116  CD        -3.6210   73.8360   24.9440 C.3   340  LYS340      0.0206
    117  CE        -2.8140   74.0470   23.6850 C.3   340  LYS340      0.1093
    118  NZ        -3.2280   73.1120   22.6010 N.3   340  LYS340     -0.1314
    119  N         -0.9330   74.1760   29.9280 N.am  341  ILE341     -0.1980
    120  CA         0.2590   74.0450   30.7520 C.3   341  ILE341      0.1595
    121  C          0.0440   73.0860   31.9320 C.2   341  ILE341      0.2287
    122  O          0.8400   72.1640   32.0830 O.2   341  ILE341     -0.2864
    123  CB         0.7920   75.4660   31.1670 C.3   341  ILE341      0.0276
    124  CG1        1.5380   76.1260   29.9980 C.3   341  ILE341      0.0022
    125  CG2        1.7100   75.4370   32.4110 C.3   341  ILE341      0.0022
    126  CD1        0.7830   77.0530   29.1970 C.3   341  ILE341      0.0001
@<TRIPOS>BOND
     1     4     3    2
     2    16    15    2
     3    13    14    1
     4    15    14    1
     5    14    17    1
     6     3     2    1
     7    50    51    2
     8    50    49    1
     9    48    49    1
    10    17    18    1
    11    49    52    1
    12    56    54   am
    13    22    23    1
    14    18    19    1
    15    52    53    1
    16     2     1    1
    17     2     5    1
    18    19    20    1
    19    53    54    1
    20    20    21    1
    21    32    33    2
    22    32    31    1
    23    54    55    2
    24     5     6    1
    25    41    42    1
    26    23    24    1
    27    23    26    1
    28    28    27    2
    29    24    30   am
    30    24    25    2
    31    30    31    1
    32    43    42    1
    33    43    44    2
    34     8     6   ar
    35     8    10   ar
    36    31    34    1
    37     6     7   ar
    38    27    26    1
    39    27    29   am
    40    34    35    1
    41    42    45    1
    42   118   117    1
    43    10    11   ar
    44     7     9   ar
    45    36    35    1
    46    36    37    1
    47    45    46    1
    48    45    47    1
    49    39    38    1
    50   117   116    1
    51    11     9   ar
    52    11    12    1
    53    37    38    2
    54    38    40    1
    55   116   115    1
    56   115   114    1
    57    60    59    2
    58    58    57    1
    59    58    59    1
    60    58    61    1
    61    62    61    1
    62    59    63   am
    63   114   111    1
    64   108   107    1
    65    63    64    1
    66   111   112    1
    67   111   110    1
    68    84    83   ar
    69    84    82   ar
    70    66    65    2
    71   102   103    1
    72   103   106    1
    73   103   104    1
    74   107   106    1
    75   107   109    1
    76    64    65    1
    77    64    67    1
    78   113   112    2
    79    83    81   ar
    80    82    80   ar
    81   112   119   am
    82   100    99   ar
    83   126   124    1
    84   105   104    2
    85   101    99   ar
    86    99    98    1
    87    73    71   ar
    88    73    72   ar
    89   119   120    1
    90    71    69   ar
    91    81    79   ar
    92    72    70   ar
    93   124   123    1
    94    69    68   ar
    95    70    68   ar
    96    68    67    1
    97    80    79   ar
    98    79    78    1
    99   120   123    1
   100   120   121    1
   101   123   125    1
   102    98    95    1
   103    97    96    2
   104   121   122    2
   105    78    75    1
   106    95    96    1
   107    95    94    1
   108    93    91   am
   109    77    76    2
   110    76    75    1
   111    75    74    1
   112    94    87   am
   113    91    90    1
   114    91    92    2
   115    88    87    2
   116    87    86    1
   117    90    89    1
   118    89    86    1
   119    86    85    1
