@<TRIPOS>MOLECULE
tmp/5djrA00.pdb
 118 111 0 0 0
SMALL
GASTEIGER

@<TRIPOS>ATOM
      1  N         -6.4480   76.0590   23.0110 N.3     2  TYR2       -0.1241
      2  CA        -5.1380   75.9690   22.3420 C.3     2  TYR2        0.1605
      3  C         -5.1340   74.9700   21.1950 C.2     2  TYR2        0.2264
      4  O         -4.6070   75.2880   20.1300 O.2     2  TYR2       -0.2867
      5  CB        -4.0420   75.5670   23.3470 C.3     2  TYR2        0.0534
      6  CG        -3.6150   76.6720   24.2870 C.ar    2  TYR2       -0.0201
      7  CD1       -4.4440   77.0920   25.3240 C.ar    2  TYR2       -0.0009
      8  CD2       -2.3530   77.2570   24.1800 C.ar    2  TYR2       -0.0009
      9  CE1       -4.0640   78.1210   26.1800 C.ar    2  TYR2        0.0417
     10  CE2       -1.9500   78.2610   25.0530 C.ar    2  TYR2        0.0417
     11  CZ        -2.8100   78.6890   26.0500 C.ar    2  TYR2        0.1957
     12  OH        -2.4260   79.6560   26.9350 O.3     2  TYR2       -0.2866
     13  N          6.1240   73.2900   20.4910 N.3    49  LYS49      -0.1245
     14  CA         4.6970   73.1810   20.8650 C.3    49  LYS49       0.1561
     15  C          3.8610   74.4410   20.5380 C.2    49  LYS49       0.2260
     16  O          2.6400   74.3470   20.4750 O.2    49  LYS49      -0.2867
     17  CB         4.5370   72.7870   22.3490 C.3    49  LYS49       0.0271
     18  CG         5.1150   71.4260   22.7240 C.3    49  LYS49       0.0035
     19  CD         4.6130   71.0030   24.1000 C.3    49  LYS49       0.0206
     20  CE         5.2980   69.7790   24.6600 C.3    49  LYS49       0.1093
     21  NZ         4.5570   69.2330   25.8390 N.3    49  LYS49      -0.1314
     22  N          3.2560   77.0020   22.3630 N.3    51  ASN51      -0.1225
     23  CA         2.4670   77.4000   23.5240 C.3    51  ASN51       0.1785
     24  C          2.5210   78.8800   23.8680 C.2    51  ASN51       0.2597
     25  O          1.4700   79.4700   24.1370 O.2    51  ASN51      -0.2718
     26  CB         2.8220   76.5560   24.7230 C.3    51  ASN51       0.1169
     27  CG         2.1690   75.1980   24.6840 C.2    51  ASN51       0.2627
     28  OD1        1.1010   74.9900   24.0870 O.2    51  ASN51      -0.2716
     29  ND2        2.8080   74.2380   25.3020 N.am   51  ASN51      -0.0877
     30  N          3.7030   79.4760   23.8280 N.am   52  ARG52      -0.1979
     31  CA         3.9080   80.8930   24.1380 C.3    52  ARG52       0.1597
     32  C          3.2530   81.7980   23.1180 C.2    52  ARG52       0.2287
     33  O          2.5640   82.7370   23.5160 O.2    52  ARG52      -0.2864
     34  CB         5.3920   81.2230   24.2950 C.3    52  ARG52       0.0334
     35  CG         6.0320   80.5470   25.4900 C.3    52  ARG52       0.0492
     36  CD         7.5350   80.6570   25.4010 C.3    52  ARG52       0.2205
     37  NE         8.2030   80.0340   26.5380 N.pl3  52  ARG52      -0.0865
     38  CZ         8.4310   78.7310   26.6640 C.cat  52  ARG52       0.5346
     39  NH1        7.9990   77.8800   25.7390 N.pl3  52  ARG52       0.1354
     40  NH2        9.0770   78.2660   27.7250 N.pl3  52  ARG52       0.1354
     41  N         -0.6120   81.5340   23.3670 N.3    55  THR55      -0.1218
     42  CA        -1.1040   82.2890   24.5360 C.3    55  THR55       0.1862
     43  C         -1.5700   83.6870   24.1060 C.2    55  THR55       0.2287
     44  O         -2.5800   84.1700   24.6300 O.2    55  THR55      -0.2866
     45  CB        -0.0140   82.3540   25.6280 C.3    55  THR55       0.1770
     46  OG1        0.3130   81.0350   26.0300 O.3    55  THR55      -0.2211
     47  CG2       -0.4360   83.1300   26.8490 C.3    55  THR55       0.0375
     48  N          8.1450   83.8850   28.9270 N.3   197  SER197     -0.1202
     49  CA         7.2940   82.7150   28.7420 C.3   197  SER197      0.2020
     50  C          5.8670   82.9500   29.2060 C.2   197  SER197      0.2618
     51  O          4.9420   82.3310   28.6840 O.2   197  SER197     -0.2717
     52  CB         7.8700   81.5040   29.4740 C.3   197  SER197      0.2103
     53  OG         9.2330   81.2610   29.1590 O.3   197  SER197     -0.2182
     54  N          5.6800   83.8140   30.2050 N.am  198  PHE198     -0.1975
     55  CA         4.3630   84.0090   30.7650 C.3   198  PHE198      0.1639
     56  C          3.8830   85.4200   30.7030 C.2   198  PHE198      0.2290
     57  O          2.7730   85.6430   30.2210 O.2   198  PHE198     -0.2864
     58  CB         4.3030   83.4570   32.2020 C.3   198  PHE198      0.0560
     59  CG         4.4200   81.9570   32.1910 C.ar  198  PHE198     -0.0200
     60  CD1        3.3100   81.1590   31.9310 C.ar  198  PHE198     -0.0042
     61  CD2        5.6510   81.3350   32.4030 C.ar  198  PHE198     -0.0042
     62  CE1        3.4350   79.7650   31.8790 C.ar  198  PHE198     -0.0003
     63  CE2        5.7690   79.9460   32.3360 C.ar  198  PHE198     -0.0003
     64  CZ         4.6590   79.1750   32.0880 C.ar  198  PHE198     -0.0000
     65  N          6.3260   76.5510   36.9050 N.3   231  PHE231     -0.1241
     66  CA         6.6430   75.9080   35.6290 C.3   231  PHE231      0.1605
     67  C          8.0700   75.3700   35.5900 C.2   231  PHE231      0.2264
     68  O          8.2730   74.1930   35.2850 O.2   231  PHE231     -0.2867
     69  CB         6.3830   76.8440   34.4340 C.3   231  PHE231      0.0534
     70  CG         6.5210   76.1230   33.1120 C.ar  231  PHE231     -0.0203
     71  CD1        5.5530   75.2170   32.6900 C.ar  231  PHE231     -0.0042
     72  CD2        7.6520   76.2990   32.3170 C.ar  231  PHE231     -0.0042
     73  CE1        5.7040   74.5170   31.4890 C.ar  231  PHE231     -0.0003
     74  CE2        7.7920   75.6140   31.1080 C.ar  231  PHE231     -0.0003
     75  CZ         6.8200   74.7250   30.7060 C.ar  231  PHE231     -0.0000
     76  N          8.7680   72.6560   38.3510 N.3   234  GLN234     -0.1245
     77  CA         8.1710   71.4130   37.8570 C.3   234  GLN234      0.1566
     78  C          9.0710   70.7630   36.7940 C.2   234  GLN234      0.2260
     79  O          9.3030   69.5520   36.8570 O.2   234  GLN234     -0.2867
     80  CB         6.7480   71.6570   37.3360 C.3   234  GLN234      0.0367
     81  CG         6.0920   70.4180   36.7170 C.3   234  GLN234      0.0905
     82  CD         4.6370   70.6170   36.3800 C.2   234  GLN234      0.2608
     83  OE1        3.7510   69.9590   36.9400 O.2   234  GLN234     -0.2717
     84  NE2        4.3610   71.4990   35.4310 N.am  234  GLN234     -0.0878
     85  N         11.1940   63.3150   27.0610 N.3   249  LYS249     -0.1245
     86  CA        12.5600   63.8020   27.3060 C.3   249  LYS249      0.1561
     87  C         13.2900   62.9880   28.3950 C.2   249  LYS249      0.2260
     88  O         12.6460   62.4140   29.2800 O.2   249  LYS249     -0.2867
     89  CB        12.5800   65.3240   27.6040 C.3   249  LYS249      0.0271
     90  CG        11.5650   65.7960   28.6470 C.3   249  LYS249      0.0035
     91  CD        11.3160   67.3030   28.5870 C.3   249  LYS249      0.0206
     92  CE        10.1590   67.7190   29.4680 C.3   249  LYS249      0.1093
     93  NZ         9.9130   69.1860   29.4130 N.3   249  LYS249     -0.1314
     94  N         -4.0260   78.8760   31.5710 N.3   336  LEU336     -0.1245
     95  CA        -2.5870   78.6340   31.7440 C.3   336  LEU336      0.1561
     96  C         -2.3380   77.6810   32.8940 C.2   336  LEU336      0.2260
     97  O         -1.6520   76.6800   32.7120 O.2   336  LEU336     -0.2867
     98  CB        -1.8480   79.9520   31.9970 C.3   336  LEU336      0.0270
     99  CG        -1.7580   80.9200   30.8390 C.3   336  LEU336      0.0019
    100  CD1       -1.2090   82.2540   31.2970 C.3   336  LEU336      0.0001
    101  CD2       -0.8390   80.4110   29.7830 C.3   336  LEU336      0.0001
    102  N         -3.0640   74.0460   32.2130 N.3   339  LYS339     -0.1231
    103  CA        -2.0280   73.5070   31.3580 C.3   339  LYS339      0.1693
    104  C         -0.7100   73.2400   32.1180 C.2   339  LYS339      0.2591
    105  O         -0.0820   72.1990   31.9160 O.2   339  LYS339     -0.2718
    106  CB        -1.8180   74.4390   30.1540 C.3   339  LYS339      0.0285
    107  CG        -2.9260   74.2970   29.1060 C.3   339  LYS339      0.0035
    108  CD        -2.5120   74.7930   27.7100 C.3   339  LYS339      0.0206
    109  CE        -1.8950   73.7000   26.8590 C.3   339  LYS339      0.1093
    110  NZ        -1.8290   74.0750   25.4220 N.3   339  LYS339     -0.1314
    111  N         -0.3000   74.1720   32.9870 N.am  340  ILE340     -0.1980
    112  CA         0.9370   74.0760   33.7860 C.3   340  ILE340      0.1595
    113  C          0.8080   73.0080   34.8820 C.2   340  ILE340      0.2287
    114  O          1.7330   72.2420   35.0870 O.2   340  ILE340     -0.2864
    115  CB         1.3280   75.4790   34.3690 C.3   340  ILE340      0.0276
    116  CG1        1.7000   76.4770   33.2700 C.3   340  ILE340      0.0022
    117  CG2        2.4420   75.3990   35.4200 C.3   340  ILE340      0.0022
    118  CD1        1.3120   77.8500   33.6230 C.3   340  ILE340      0.0001
@<TRIPOS>BOND
     1     4     3    2
     2    16    15    2
     3    13    14    1
     4    15    14    1
     5    14    17    1
     6     3     2    1
     7     2     1    1
     8     2     5    1
     9    17    18    1
    10    22    23    1
    11    18    19    1
    12    32    33    2
    13    32    31    1
    14     5     6    1
    15    41    42    1
    16    23    24    1
    17    23    26    1
    18    30    24   am
    19    30    31    1
    20    24    25    2
    21    28    27    2
    22    19    20    1
    23    43    42    1
    24    43    44    2
    25    31    34    1
    26     8     6   ar
    27     8    10   ar
    28     6     7   ar
    29    34    35    1
    30    42    45    1
    31    20    21    1
    32    27    26    1
    33    27    29   am
    34    10    11   ar
    35     7     9   ar
    36    36    35    1
    37    36    37    1
    38   110   109    1
    39    45    46    1
    40    45    47    1
    41    39    38    1
    42    11     9   ar
    43    11    12    1
    44    37    38    2
    45    38    40    1
    46   109   108    1
    47    85    86    1
    48    86    89    1
    49    86    87    1
    50    89    90    1
    51   108   107    1
    52    87    88    2
    53    91    90    1
    54    91    92    1
    55    51    50    2
    56    49    48    1
    57    49    50    1
    58    49    52    1
    59   107   106    1
    60    53    52    1
    61    50    54   am
    62    93    92    1
    63   101    99    1
    64   106   103    1
    65    54    55    1
    66    57    56    2
    67    56    55    1
    68    75    74   ar
    69    75    73   ar
    70    55    58    1
    71    99   100    1
    72    99    98    1
    73    74    72   ar
    74   103   104    1
    75   103   102    1
    76    73    71   ar
    77    94    95    1
    78    95    98    1
    79    95    96    1
    80    62    60   ar
    81    62    64   ar
    82   105   104    2
    83    60    59   ar
    84    64    63   ar
    85   104   111   am
    86    59    58    1
    87    59    61   ar
    88    72    70   ar
    89    63    61   ar
    90    71    70   ar
    91    97    96    2
    92   111   112    1
    93    70    69    1
    94   116   118    1
    95   116   115    1
    96   112   115    1
    97   112   113    1
    98   115   117    1
    99    69    66    1
   100   113   114    2
   101    68    67    2
   102    84    82   am
   103    67    66    1
   104    66    65    1
   105    82    81    1
   106    82    83    2
   107    81    80    1
   108    78    79    2
   109    78    77    1
   110    80    77    1
   111    77    76    1
