@<TRIPOS>MOLECULE
tmp/5djsA00.pdb
 163 159 0 0 0
SMALL
GASTEIGER

@<TRIPOS>ATOM
      1  N         38.4880   26.1750   26.5040 N.3   176  PRO176     -0.2116
      2  CA        39.7460   26.6220   25.9030 C.3   176  PRO176      0.1372
      3  C         39.9190   26.3400   24.4140 C.2   176  PRO176      0.2244
      4  O         40.2610   27.2520   23.6670 O.2   176  PRO176     -0.2868
      5  CB        40.7800   25.8550   26.7210 C.3   176  PRO176      0.0268
      6  CG        40.1870   25.9160   28.1010 C.3   176  PRO176      0.0207
      7  CD        38.6880   25.8540   27.9300 C.3   176  PRO176      0.0892
      8  N         37.5460   28.4990   22.5560 N.3   179  TYR179     -0.1241
      9  CA        37.9200   29.9050   22.7510 C.3   179  TYR179      0.1605
     10  C         39.0380   30.3340   21.8030 C.2   179  TYR179      0.2264
     11  O         38.9690   31.4120   21.2230 O.2   179  TYR179     -0.2867
     12  CB        38.3230   30.1970   24.2180 C.3   179  TYR179      0.0534
     13  CG        37.2020   30.0600   25.2520 C.ar  179  TYR179     -0.0201
     14  CD1       35.8910   30.4820   24.9720 C.ar  179  TYR179     -0.0009
     15  CD2       37.4590   29.5430   26.5250 C.ar  179  TYR179     -0.0009
     16  CE1       34.8760   30.3690   25.9120 C.ar  179  TYR179      0.0417
     17  CE2       36.4460   29.4240   27.4690 C.ar  179  TYR179      0.0417
     18  CZ        35.1570   29.8390   27.1570 C.ar  179  TYR179      0.1957
     19  OH        34.1420   29.7200   28.0830 O.3   179  TYR179     -0.2866
     20  N         44.1480   30.7480   39.3470 N.3   332  PHE332     -0.1227
     21  CA        42.8290   30.2370   38.9790 C.3   332  PHE332      0.1736
     22  C         42.9000   28.9710   38.1070 C.2   332  PHE332      0.2595
     23  O         42.0700   28.7570   37.2120 O.2   332  PHE332     -0.2718
     24  CB        41.9960   31.3450   38.3090 C.3   332  PHE332      0.0547
     25  CG        41.8540   32.6070   39.1260 C.ar  332  PHE332     -0.0202
     26  CD1       42.0630   32.6350   40.5170 C.ar  332  PHE332     -0.0042
     27  CD2       41.4700   33.7820   38.4960 C.ar  332  PHE332     -0.0042
     28  CE1       41.9270   33.8150   41.2340 C.ar  332  PHE332     -0.0003
     29  CE2       41.3240   34.9600   39.2110 C.ar  332  PHE332     -0.0003
     30  CZ        41.5480   34.9760   40.5810 C.ar  332  PHE332     -0.0000
     31  N         43.8620   28.1110   38.4270 N.am  333  ASN333     -0.1960
     32  CA        44.1010   26.8720   37.7000 C.3   333  ASN333      0.1819
     33  C         43.4110   25.6430   38.3300 C.2   333  ASN333      0.2621
     34  O         43.1270   25.6100   39.5370 O.2   333  ASN333     -0.2715
     35  CB        45.6120   26.6380   37.5890 C.3   333  ASN333      0.1195
     36  CG        46.2580   27.5350   36.5590 C.2   333  ASN333      0.2630
     37  OD1       45.7890   27.6120   35.4360 O.2   333  ASN333     -0.2716
     38  ND2       47.3380   28.2020   36.9250 N.am  333  ASN333     -0.0877
     39  N         43.1400   24.6530   37.4740 N.am  334  ARG334     -0.1977
     40  CA        42.6430   23.3280   37.8670 C.3   334  ARG334      0.1597
     41  C         43.4450   22.7460   39.0290 C.2   334  ARG334      0.2287
     42  O         44.6710   22.9390   39.1070 O.2   334  ARG334     -0.2864
     43  CB        42.7440   22.3400   36.6880 C.3   334  ARG334      0.0334
     44  CG        41.7960   22.6180   35.5320 C.3   334  ARG334      0.0492
     45  CD        41.7780   21.4970   34.4910 C.3   334  ARG334      0.2205
     46  NE        42.9080   21.5300   33.5370 N.pl3 334  ARG334     -0.0865
     47  CZ        43.8510   20.5940   33.3980 C.cat 334  ARG334      0.5346
     48  NH1       43.8600   19.5040   34.1570 N.pl3 334  ARG334      0.1354
     49  NH2       44.8070   20.7430   32.4880 N.pl3 334  ARG334      0.1354
     50  N         46.7940   20.6890   38.7570 N.3   337  MET337     -0.1245
     51  CA        48.0320   21.4260   38.5320 C.3   337  MET337      0.1570
     52  C         48.6730   21.9390   39.8280 C.2   337  MET337      0.2261
     53  O         49.8630   22.2630   39.8380 O.2   337  MET337     -0.2867
     54  CB        47.7380   22.5830   37.5820 C.3   337  MET337      0.0387
     55  CG        47.0200   22.1370   36.3090 C.3   337  MET337      0.0595
     56  SD        47.2030   23.2840   34.9490 S.3   337  MET337     -0.1393
     57  CE        45.5320   23.8610   34.7960 C.3   337  MET337      0.0692
     58  N         40.7550   29.7430   42.6820 N.3   361  ILE361     -0.1231
     59  CA        39.4080   29.5380   42.1480 C.3   361  ILE361      0.1692
     60  C         39.4660   28.3900   41.1560 C.2   361  ILE361      0.2592
     61  O         40.1760   28.4650   40.1460 O.2   361  ILE361     -0.2718
     62  CB        38.8580   30.7820   41.4260 C.3   361  ILE361      0.0266
     63  CG1       38.8280   31.9980   42.3610 C.3   361  ILE361      0.0019
     64  CG2       37.4490   30.5040   40.9150 C.3   361  ILE361      0.0020
     65  CD1       38.6250   33.3160   41.6470 C.3   361  ILE361      0.0001
     66  N         38.6980   27.3420   41.4330 N.am  362  ALA362     -0.1966
     67  CA        38.7380   26.1070   40.6440 C.3   362  ALA362      0.1728
     68  C         37.5440   25.2080   40.9730 C.2   362  ALA362      0.2616
     69  O         36.8280   25.4230   41.9590 O.2   362  ALA362     -0.2715
     70  CB        40.0410   25.3600   40.8890 C.3   362  ALA362      0.0334
     71  N         37.3440   24.1950   40.1430 N.am  363  THR363     -0.1951
     72  CA        36.2560   23.2440   40.3280 C.3   363  THR363      0.1897
     73  C         36.6880   22.2880   41.4110 C.2   363  THR363      0.2313
     74  O         37.8370   21.8510   41.4050 O.2   363  THR363     -0.2863
     75  CB        36.0200   22.4280   39.0580 C.3   363  THR363      0.1794
     76  OG1       37.2590   21.8220   38.6800 O.3   363  THR363     -0.2208
     77  CG2       35.5310   23.3180   37.9250 C.3   363  THR363      0.0378
     78  N         33.7230   27.6340   41.5250 N.3   393  PRO393     -0.2102
     79  CA        33.8990   28.1660   40.1660 C.3   393  PRO393      0.1504
     80  C         32.7520   29.0740   39.6800 C.2   393  PRO393      0.2576
     81  O         31.6220   28.9740   40.1740 O.2   393  PRO393     -0.2718
     82  CB        34.0080   26.8990   39.3040 C.3   393  PRO393      0.0282
     83  CG        33.2390   25.8680   40.0530 C.3   393  PRO393      0.0208
     84  CD        33.3940   26.1930   41.5160 C.3   393  PRO393      0.0893
     85  N         33.0750   29.9440   38.7180 N.am  394  MET394     -0.1966
     86  CA        32.1790   30.9920   38.2170 C.3   394  MET394      0.1721
     87  C         32.0740   31.0110   36.6960 C.2   394  MET394      0.2458
     88  O         32.9350   30.4540   36.0100 O.2   394  MET394     -0.2730
     89  CB        32.7450   32.3500   38.5980 C.3   394  MET394      0.0427
     90  CG        32.8600   32.6030   40.0810 C.3   394  MET394      0.0599
     91  SD        33.6410   34.1970   40.3390 S.3   394  MET394     -0.1393
     92  CE        35.3340   33.7920   40.0400 C.3   394  MET394      0.0692
     93  N         31.0410   31.7000   36.1580 N.am  395  PRO395     -0.2716
     94  CA        31.0180   32.0380   34.7300 C.3   395  PRO395      0.1536
     95  C         32.2870   32.7770   34.2770 C.2   395  PRO395      0.2598
     96  O         33.0030   33.3490   35.1050 O.2   395  PRO395     -0.2715
     97  CB        29.7840   32.9430   34.6010 C.3   395  PRO395      0.0310
     98  CG        28.8760   32.5070   35.7020 C.3   395  PRO395      0.0237
     99  CD        29.7670   32.0480   36.8250 C.3   395  PRO395      0.0939
    100  N         32.5450   32.7510   32.9720 N.am  396  ARG396     -0.1978
    101  CA        33.7880   33.2850   32.3790 C.3   396  ARG396      0.1597
    102  C         34.0490   34.7670   32.7140 C.2   396  ARG396      0.2287
    103  O         35.1040   35.0870   33.2540 O.2   396  ARG396     -0.2864
    104  CB        33.7780   33.0450   30.8570 C.3   396  ARG396      0.0334
    105  CG        34.7950   33.8160   30.0140 C.3   396  ARG396      0.0492
    106  CD        36.0060   33.0090   29.5450 C.3   396  ARG396      0.2205
    107  NE        36.3000   33.3160   28.1330 N.pl3 396  ARG396     -0.0865
    108  CZ        37.4870   33.2110   27.5300 C.cat 396  ARG396      0.5346
    109  NH1       38.5730   32.8060   28.1870 N.pl3 396  ARG396      0.1354
    110  NH2       37.5920   33.5260   26.2370 N.pl3 396  ARG396      0.1354
    111  N         34.6700   35.4840   36.3610 N.3   399  LEU399     -0.1245
    112  CA        36.0320   35.0970   36.7590 C.3   399  LEU399      0.1561
    113  C         37.0620   36.1170   36.3040 C.2   399  LEU399      0.2260
    114  O         37.9490   36.4950   37.0740 O.2   399  LEU399     -0.2867
    115  CB        36.4050   33.7160   36.2150 C.3   399  LEU399      0.0270
    116  CG        37.8010   33.1780   36.5890 C.3   399  LEU399      0.0019
    117  CD1       37.7950   32.4270   37.9180 C.3   399  LEU399      0.0001
    118  CD2       38.3500   32.2990   35.4770 C.3   399  LEU399      0.0001
    119  N         53.0960   21.3390   35.4780 N.3   415  TYR415     -0.1241
    120  CA        52.1530   21.5640   34.3900 C.3   415  TYR415      0.1605
    121  C         51.7740   23.0630   34.4330 C.2   415  TYR415      0.2264
    122  O         50.9710   23.5130   35.2740 O.2   415  TYR415     -0.2867
    123  CB        50.9370   20.6410   34.5600 C.3   415  TYR415      0.0534
    124  CG        49.9620   20.4960   33.3880 C.ar  415  TYR415     -0.0201
    125  CD1       49.4040   21.6100   32.7440 C.ar  415  TYR415     -0.0009
    126  CD2       49.5200   19.2330   32.9780 C.ar  415  TYR415     -0.0009
    127  CE1       48.4760   21.4700   31.7080 C.ar  415  TYR415      0.0417
    128  CE2       48.5920   19.0880   31.9450 C.ar  415  TYR415      0.0417
    129  CZ        48.0720   20.2140   31.3110 C.ar  415  TYR415      0.1957
    130  OH        47.1610   20.1080   30.2850 O.3   415  TYR415     -0.2866
    131  N         50.0520   26.5260   33.3680 N.3   417  GLY417     -0.1210
    132  CA        48.7710   26.9570   32.8570 C.3   417  GLY417      0.1956
    133  C         48.9370   27.6340   31.5100 C.2   417  GLY417      0.2612
    134  O         50.0520   27.8060   31.0270 O.2   417  GLY417     -0.2717
    135  N         47.8260   28.0030   30.8920 N.am  418  CYS418     -0.1956
    136  CA        47.8700   28.6050   29.5740 C.3   418  CYS418      0.1843
    137  C         46.7930   29.6520   29.4480 C.2   418  CYS418      0.2626
    138  O         47.0940   30.8400   29.4130 O.2   418  CYS418     -0.2714
    139  CB        47.7210   27.5380   28.4890 C.3   418  CYS418      0.0997
    140  SG        47.6610   28.2020   26.8150 S.3   418  CYS418     -0.0797
    141  N         45.5390   29.2220   29.4250 N.am  419  THR419     -0.1936
    142  CA        44.4640   30.1690   29.1820 C.3   419  THR419      0.2028
    143  C         44.1940   31.0130   30.4370 C.2   419  THR419      0.2642
    144  O         43.8130   32.1760   30.2980 O.2   419  THR419     -0.2714
    145  CB        43.1860   29.5700   28.5020 C.3   419  THR419      0.1808
    146  OG1       42.0160   29.9360   29.2320 O.3   419  THR419     -0.2208
    147  CG2       43.2230   28.0510   28.3240 C.3   419  THR419      0.0379
    148  N         44.4410   30.4780   31.6390 N.am  420  THR420     -0.1950
    149  CA        44.2990   31.2910   32.8630 C.3   420  THR420      0.1897
    150  C         45.3670   32.3810   32.8900 C.2   420  THR420      0.2313
    151  O         45.1020   33.5120   33.2930 O.2   420  THR420     -0.2863
    152  CB        44.3730   30.4850   34.1880 C.3   420  THR420      0.1794
    153  OG1       45.6790   29.9330   34.3540 O.3   420  THR420     -0.2208
    154  CG2       43.3340   29.3780   34.2430 C.3   420  THR420      0.0378
    155  N         44.3100   34.9610   30.4010 N.3   423  GLU423     -0.1245
    156  CA        43.2010   35.6950   31.0010 C.3   423  GLU423      0.1567
    157  C         43.6670   36.7400   32.0070 C.2   423  GLU423      0.2260
    158  O         43.0960   37.8270   32.0720 O.2   423  GLU423     -0.2867
    159  CB        42.2140   34.7340   31.6690 C.3   423  GLU423      0.0388
    160  CG        41.3310   33.9910   30.6740 C.3   423  GLU423      0.1160
    161  CD        40.4950   32.9040   31.3090 C.2   423  GLU423      0.3649
    162  OE1       40.7960   32.4680   32.4500 O.co2 423  GLU423     -0.2457
    163  OE2       39.5260   32.4850   30.6500 O.co2 423  GLU423     -0.2457
@<TRIPOS>BOND
     1    11    10    2
     2    10     9    1
     3     8     9    1
     4     9    12    1
     5     4     3    2
     6    12    13    1
     7     3     2    1
     8    14    13   ar
     9    14    16   ar
    10    13    15   ar
    11     2     1    1
    12     2     5    1
    13    16    18   ar
    14   110   108    1
    15     1     7    1
    16    15    17   ar
    17     5     6    1
    18   140   139    1
    19    18    17   ar
    20    18    19    1
    21   108   107    2
    22   108   109    1
    23     7     6    1
    24   107   106    1
    25   147   145    1
    26   139   136    1
    27   145   142    1
    28   145   146    1
    29   142   141    1
    30   142   143    1
    31   138   137    2
    32   141   137   am
    33   137   136    1
    34   106   105    1
    35   136   135    1
    36   105   104    1
    37   130   129    1
    38   144   143    2
    39   155   156    1
    40   143   148   am
    41   163   161   ar
    42   160   161    1
    43   160   159    1
    44   104   101    1
    45   135   133   am
    46   156   159    1
    47   156   157    1
    48   134   133    2
    49   161   162   ar
    50   129   127   ar
    51   129   128   ar
    52   133   132    1
    53   148   149    1
    54   127   125   ar
    55   128   126   ar
    56   157   158    2
    57   101   102    1
    58   101   100    1
    59    49    47    1
    60   102   103    2
    61   125   124   ar
    62   132   131    1
    63   149   150    1
    64   149   152    1
    65   150   151    2
    66   100    95   am
    67   126   124   ar
    68   124   123    1
    69    47    46    2
    70    47    48    1
    71    46    45    1
    72   152   154    1
    73   152   153    1
    74    95    94    1
    75    95    96    2
    76   120   121    1
    77   120   123    1
    78   120   119    1
    79   121   122    2
    80    45    44    1
    81    97    94    1
    82    97    98    1
    83    94    93    1
    84    57    56    1
    85    56    55    1
    86    37    36    2
    87   118   116    1
    88    44    43    1
    89    98    99    1
    90    88    87    2
    91    93    87   am
    92    93    99    1
    93   115   116    1
    94   115   112    1
    95   113   112    1
    96   113   114    2
    97    55    54    1
    98   111   112    1
    99    36    38   am
   100    36    35    1
   101   116   117    1
   102    43    40    1
   103    87    86    1
   104    23    22    2
   105    39    40    1
   106    39    33   am
   107    54    51    1
   108    35    32    1
   109    32    33    1
   110    32    31    1
   111    40    41    1
   112    77    75    1
   113    22    31   am
   114    22    21    1
   115    86    89    1
   116    86    85    1
   117    24    21    1
   118    24    25    1
   119    33    34    2
   120    27    25   ar
   121    27    29   ar
   122    51    50    1
   123    51    52    1
   124    89    90    1
   125    76    75    1
   126    85    80   am
   127    21    20    1
   128    41    42    2
   129    75    72    1
   130    25    26   ar
   131    29    30   ar
   132    82    83    1
   133    82    79    1
   134    80    79    1
   135    80    81    2
   136    52    53    2
   137    92    91    1
   138    83    84    1
   139    90    91    1
   140    71    72    1
   141    71    68   am
   142    61    60    2
   143    79    78    1
   144    72    73    1
   145    26    28   ar
   146    30    28   ar
   147    67    70    1
   148    67    68    1
   149    67    66    1
   150    64    62    1
   151    68    69    2
   152    60    66   am
   153    60    59    1
   154    74    73    2
   155    62    59    1
   156    62    63    1
   157    84    78    1
   158    65    63    1
   159    59    58    1
