@<TRIPOS>MOLECULE
tmp/5djvA00.pdb
 187 176 0 0 0
SMALL
GASTEIGER

@<TRIPOS>ATOM
      1  N         -6.7020   76.5220   21.0850 N.3     3  TYR3       -0.1241
      2  CA        -5.3420   76.3240   20.6140 C.3     3  TYR3        0.1605
      3  C         -5.3230   75.3680   19.4150 C.2     3  TYR3        0.2264
      4  O         -5.0660   75.8170   18.2950 O.2     3  TYR3       -0.2867
      5  CB        -4.4700   75.7640   21.7490 C.3     3  TYR3        0.0534
      6  CG        -3.8270   76.8160   22.6180 C.ar    3  TYR3       -0.0201
      7  CD1       -4.5650   77.4950   23.5850 C.ar    3  TYR3       -0.0009
      8  CD2       -2.4660   77.1110   22.5020 C.ar    3  TYR3       -0.0009
      9  CE1       -3.9740   78.4720   24.3900 C.ar    3  TYR3        0.0417
     10  CE2       -1.8630   78.0710   23.3130 C.ar    3  TYR3        0.0417
     11  CZ        -2.6200   78.7420   24.2600 C.ar    3  TYR3        0.1957
     12  OH        -2.0340   79.6430   25.0990 O.3     3  TYR3       -0.2866
     13  N          8.6850   73.5350   16.3230 N.3    49  GLY49      -0.1210
     14  CA         8.2490   73.5350   17.7130 C.3    49  GLY49       0.1956
     15  C          6.7570   73.3250   17.8260 C.2    49  GLY49       0.2612
     16  O          6.1140   72.8550   16.8820 O.2    49  GLY49      -0.2717
     17  N          6.1940   73.7050   18.9770 N.am   50  LYS50      -0.1965
     18  CA         4.7600   73.5600   19.2270 C.3    50  LYS50       0.1728
     19  C          3.9830   74.8530   18.9460 C.2    50  LYS50       0.2616
     20  O          2.7790   74.7790   18.8070 O.2    50  LYS50      -0.2715
     21  CB         4.4840   72.9980   20.6340 C.3    50  LYS50       0.0311
     22  CG         5.2540   71.7080   20.9640 C.3    50  LYS50       0.0038
     23  CD         4.5060   70.8700   21.9970 C.3    50  LYS50       0.0206
     24  CE         5.0270   69.4530   22.1010 C.3    50  LYS50       0.1093
     25  NZ         4.3050   68.6770   23.1480 N.3    50  LYS50      -0.1314
     26  N          4.6730   76.0330   18.8180 N.am   51  TYR51      -0.1960
     27  CA         4.0720   77.3420   18.4690 C.3    51  TYR51       0.1771
     28  C          3.1250   77.9210   19.5200 C.2    51  TYR51       0.2620
     29  O          2.3580   78.8280   19.1980 O.2    51  TYR51      -0.2715
     30  CB         3.3470   77.2880   17.0940 C.3    51  TYR51       0.0574
     31  CG         4.1240   76.5850   16.0070 C.ar   51  TYR51      -0.0198
     32  CD1        5.3070   77.1190   15.5170 C.ar   51  TYR51      -0.0009
     33  CD2        3.6970   75.3590   15.4950 C.ar   51  TYR51      -0.0009
     34  CE1        6.0390   76.4730   14.5290 C.ar   51  TYR51       0.0417
     35  CE2        4.4350   74.6920   14.5140 C.ar   51  TYR51       0.0417
     36  CZ         5.6170   75.2520   14.0480 C.ar   51  TYR51       0.1957
     37  OH         6.3730   74.6500   13.0800 O.3    51  TYR51      -0.2866
     38  N          3.1910   77.4350   20.7670 N.am   52  ASN52      -0.1958
     39  CA         2.2540   77.8060   21.8300 C.3    52  ASN52       0.1819
     40  C          2.3460   79.2510   22.2800 C.2    52  ASN52       0.2621
     41  O          1.2960   79.8690   22.5000 O.2    52  ASN52      -0.2715
     42  CB         2.3590   76.8500   23.0060 C.3    52  ASN52       0.1195
     43  CG         1.7440   75.5050   22.7110 C.2    52  ASN52       0.2630
     44  OD1        0.6310   75.3910   22.1910 O.2    52  ASN52      -0.2716
     45  ND2        2.4540   74.4490   23.0450 N.am   52  ASN52      -0.0877
     46  N          3.5620   79.8030   22.3780 N.am   53  ARG53      -0.1977
     47  CA         3.7540   81.2240   22.7320 C.3    53  ARG53       0.1597
     48  C          3.1480   82.1590   21.6760 C.2    53  ARG53       0.2287
     49  O          2.4480   83.1110   22.0380 O.2    53  ARG53      -0.2864
     50  CB         5.2260   81.5660   22.9330 C.3    53  ARG53       0.0334
     51  CG         5.8800   80.8200   24.0680 C.3    53  ARG53       0.0492
     52  CD         7.3860   80.9240   23.9420 C.3    53  ARG53       0.2205
     53  NE         8.0760   80.2180   25.0170 N.pl3  53  ARG53      -0.0865
     54  CZ         8.1310   78.8910   25.1410 C.cat  53  ARG53       0.5346
     55  NH1        7.4860   78.1060   24.2800 N.pl3  53  ARG53       0.1354
     56  NH2        8.7910   78.3420   26.1480 N.pl3  53  ARG53       0.1354
     57  N         -0.5920   81.8280   21.8150 N.3    56  THR56      -0.1218
     58  CA        -1.1610   82.5520   22.9630 C.3    56  THR56       0.1862
     59  C         -1.5970   83.9610   22.5480 C.2    56  THR56       0.2287
     60  O         -2.6420   84.4120   23.0010 O.2    56  THR56      -0.2866
     61  CB        -0.1960   82.5480   24.1750 C.3    56  THR56       0.1770
     62  OG1        0.1000   81.2030   24.5510 O.3    56  THR56      -0.2211
     63  CG2       -0.7850   83.2450   25.3790 C.3    56  THR56       0.0375
     64  N          7.4100   83.9960   18.0790 N.3    86  GLU86      -0.1245
     65  CA         8.1200   82.7910   17.6500 C.3    86  GLU86       0.1567
     66  C          9.5160   83.1110   17.0890 C.2    86  GLU86       0.2260
     67  O         10.4500   82.3330   17.2940 O.2    86  GLU86      -0.2867
     68  CB         7.2710   81.9400   16.6780 C.3    86  GLU86       0.0388
     69  CG         6.0860   81.2260   17.3260 C.3    86  GLU86       0.1160
     70  CD         6.3580   80.2460   18.4580 C.2    86  GLU86       0.3649
     71  OE1        5.5540   80.1960   19.4170 O.co2  86  GLU86      -0.2457
     72  OE2        7.3610   79.5050   18.3740 O.co2  86  GLU86      -0.2457
     73  N         11.9110   83.9380   20.0530 N.3    89  GLN89      -0.1245
     74  CA        12.3700   82.6800   20.6320 C.3    89  GLN89       0.1566
     75  C         13.4280   81.9940   19.7410 C.2    89  GLN89       0.2260
     76  O         14.4550   81.5460   20.2540 O.2    89  GLN89      -0.2867
     77  CB        11.1890   81.7590   20.9050 C.3    89  GLN89       0.0367
     78  CG        11.6720   80.4490   21.5010 C.3    89  GLN89       0.0905
     79  CD        10.5620   79.5750   21.8770 C.2    89  GLN89       0.2608
     80  OE1       10.4040   79.2460   23.0540 O.2    89  GLN89      -0.2717
     81  NE2        9.7580   79.2070   20.8830 N.am   89  GLN89      -0.0878
     82  N         15.0650   69.7280   19.8150 N.3   106  ARG106     -0.1245
     83  CA        13.8350   69.0190   19.3960 C.3   106  ARG106      0.1563
     84  C         14.1990   67.8720   18.4540 C.2   106  ARG106      0.2260
     85  O         13.5200   67.6770   17.4380 O.2   106  ARG106     -0.2867
     86  CB        12.7840   69.9410   18.7010 C.3   106  ARG106      0.0307
     87  CG        12.4540   71.2620   19.3550 C.3   106  ARG106      0.0489
     88  CD        12.3210   72.3180   18.2690 C.3   106  ARG106      0.2205
     89  NE        11.8610   73.6130   18.7760 N.pl3 106  ARG106     -0.0865
     90  CZ        11.9060   74.7430   18.0780 C.cat 106  ARG106      0.5346
     91  NH1       12.4160   74.7540   16.8490 N.pl3 106  ARG106      0.1354
     92  NH2       11.4470   75.8730   18.6030 N.pl3 106  ARG106      0.1354
     93  N          8.1140   84.0720   27.5780 N.3   198  SER198     -0.1202
     94  CA         7.2230   82.9300   27.3780 C.3   198  SER198      0.2020
     95  C          5.7960   83.1670   27.8160 C.2   198  SER198      0.2618
     96  O          4.9000   82.6270   27.1880 O.2   198  SER198     -0.2717
     97  CB         7.7590   81.6780   28.0740 C.3   198  SER198      0.2103
     98  OG         9.0970   81.4170   27.6980 O.3   198  SER198     -0.2182
     99  N          5.5960   83.9110   28.9100 N.am  199  PHE199     -0.1975
    100  CA         4.3020   84.1240   29.5260 C.3   199  PHE199      0.1639
    101  C          3.8040   85.5550   29.5300 C.2   199  PHE199      0.2290
    102  O          2.6300   85.7930   29.2280 O.2   199  PHE199     -0.2864
    103  CB         4.3100   83.5580   30.9530 C.3   199  PHE199      0.0560
    104  CG         4.3510   82.0580   30.9170 C.ar  199  PHE199     -0.0200
    105  CD1        3.1840   81.3190   30.7680 C.ar  199  PHE199     -0.0042
    106  CD2        5.5670   81.3790   30.9410 C.ar  199  PHE199     -0.0042
    107  CE1        3.2300   79.9270   30.6650 C.ar  199  PHE199     -0.0003
    108  CE2        5.6080   79.9880   30.8430 C.ar  199  PHE199     -0.0003
    109  CZ         4.4400   79.2770   30.7000 C.ar  199  PHE199     -0.0000
    110  N          6.1680   76.6880   35.4070 N.3   232  PHE232     -0.1241
    111  CA         6.4780   76.0370   34.1330 C.3   232  PHE232      0.1605
    112  C          7.9060   75.5160   34.0330 C.2   232  PHE232      0.2264
    113  O          8.0980   74.3780   33.6310 O.2   232  PHE232     -0.2867
    114  CB         6.2020   76.9770   32.9510 C.3   232  PHE232      0.0534
    115  CG         6.3840   76.3070   31.6090 C.ar  232  PHE232     -0.0203
    116  CD1        5.5110   75.3060   31.1880 C.ar  232  PHE232     -0.0042
    117  CD2        7.4300   76.6700   30.7700 C.ar  232  PHE232     -0.0042
    118  CE1        5.6810   74.6830   29.9470 C.ar  232  PHE232     -0.0003
    119  CE2        7.6050   76.0400   29.5330 C.ar  232  PHE232     -0.0003
    120  CZ         6.7260   75.0560   29.1270 C.ar  232  PHE232     -0.0000
    121  N          8.5390   72.7200   36.3950 N.3   235  GLN235     -0.1245
    122  CA         7.9500   71.5210   35.8090 C.3   235  GLN235      0.1566
    123  C          8.8550   70.9890   34.6870 C.2   235  GLN235      0.2260
    124  O          8.9680   69.7870   34.5280 O.2   235  GLN235     -0.2867
    125  CB         6.5380   71.7980   35.2770 C.3   235  GLN235      0.0367
    126  CG         5.6830   70.5340   35.2210 C.3   235  GLN235      0.0905
    127  CD         4.3330   70.7110   34.5700 C.2   235  GLN235      0.2608
    128  OE1        3.3360   70.1380   35.0140 O.2   235  GLN235     -0.2717
    129  NE2        4.2610   71.4770   33.4940 N.am  235  GLN235     -0.0878
    130  N         10.2620   67.1490   34.8380 N.3   239  LEU239     -0.1245
    131  CA         9.9390   66.2190   33.7430 C.3   239  LEU239      0.1561
    132  C         11.1810   65.7920   32.9300 C.2   239  LEU239      0.2260
    133  O         11.1610   64.7420   32.2820 O.2   239  LEU239     -0.2867
    134  CB         8.8740   66.8050   32.8000 C.3   239  LEU239      0.0270
    135  CG         7.4860   67.0900   33.3790 C.3   239  LEU239      0.0019
    136  CD1        6.7610   68.1010   32.5210 C.3   239  LEU239      0.0001
    137  CD2        6.6540   65.8200   33.5130 C.3   239  LEU239      0.0001
    138  N          6.5600   63.7160   26.6930 N.3   248  THR248     -0.1218
    139  CA         7.3690   64.9430   26.5920 C.3   248  THR248      0.1862
    140  C          8.1400   65.1040   25.2700 C.2   248  THR248      0.2287
    141  O          8.0860   66.1780   24.6640 O.2   248  THR248     -0.2866
    142  CB         8.3270   65.0830   27.7960 C.3   248  THR248      0.1770
    143  OG1        9.2850   64.0270   27.7760 O.3   248  THR248     -0.2211
    144  CG2        7.6020   65.1060   29.1390 C.3   248  THR248      0.0375
    145  N         11.5580   64.5550   25.1850 N.3   250  LYS250     -0.1245
    146  CA        12.8640   65.0330   25.6520 C.3   250  LYS250      0.1561
    147  C         13.4400   64.0320   26.6660 C.2   250  LYS250      0.2260
    148  O         12.7140   63.5700   27.5530 O.2   250  LYS250     -0.2867
    149  CB        12.7350   66.4390   26.2820 C.3   250  LYS250      0.0271
    150  CG        12.4830   67.5640   25.2690 C.3   250  LYS250      0.0035
    151  CD        11.9600   68.8540   25.9070 C.3   250  LYS250      0.0206
    152  CE        11.5220   69.8650   24.8660 C.3   250  LYS250      0.1093
    153  NZ        10.9560   71.1020   25.4770 N.3   250  LYS250     -0.1314
    154  N         -4.6200   79.2970   29.5130 N.3   337  LEU337     -0.1245
    155  CA        -3.1750   79.1250   29.5670 C.3   337  LEU337      0.1561
    156  C         -2.7820   78.2140   30.7640 C.2   337  LEU337      0.2260
    157  O         -2.0510   77.2470   30.5600 O.2   337  LEU337     -0.2867
    158  CB        -2.5280   80.5180   29.6200 C.3   337  LEU337      0.0270
    159  CG        -1.0240   80.6650   29.5720 C.3   337  LEU337      0.0019
    160  CD1       -0.4050   79.9360   28.3910 C.3   337  LEU337      0.0001
    161  CD2       -0.6310   82.1530   29.5700 C.3   337  LEU337      0.0001
    162  N         -3.3350   74.4660   30.1470 N.3   340  LYS340     -0.1231
    163  CA        -2.3320   73.9100   29.2540 C.3   340  LYS340      0.1693
    164  C         -0.9700   73.6620   29.9370 C.2   340  LYS340      0.2591
    165  O         -0.2620   72.7100   29.5910 O.2   340  LYS340     -0.2718
    166  CB        -2.2050   74.7890   28.0090 C.3   340  LYS340      0.0285
    167  CG        -3.4030   74.6180   27.0850 C.3   340  LYS340      0.0035
    168  CD        -3.1000   75.0890   25.6820 C.3   340  LYS340      0.0206
    169  CE        -2.8620   73.9590   24.7020 C.3   340  LYS340      0.1093
    170  NZ        -4.1200   73.2460   24.3440 N.3   340  LYS340     -0.1314
    171  N         -0.6530   74.4830   30.9390 N.am  341  ILE341     -0.1980
    172  CA         0.5780   74.4520   31.7090 C.3   341  ILE341      0.1595
    173  C          0.5170   73.4160   32.8370 C.2   341  ILE341      0.2287
    174  O          1.4450   72.6160   32.9770 O.2   341  ILE341     -0.2864
    175  CB         0.9290   75.9020   32.1960 C.3   341  ILE341      0.0276
    176  CG1        1.1890   76.8780   31.0070 C.3   341  ILE341      0.0022
    177  CG2        2.0680   75.9480   33.2270 C.3   341  ILE341      0.0022
    178  CD1        2.1860   76.4280   29.9050 C.3   341  ILE341      0.0001
    179  N         -0.2710   70.1650   34.2300 N.3   343  LYS343     -0.1245
    180  CA        -0.4850   68.7560   33.8260 C.3   343  LYS343      0.1561
    181  C         -1.0000   68.5900   32.3740 C.2   343  LYS343      0.2260
    182  O         -1.7580   69.4090   31.8450 O.2   343  LYS343     -0.2867
    183  CB        -1.3840   67.9940   34.8230 C.3   343  LYS343      0.0271
    184  CG        -1.2100   66.4790   34.7750 C.3   343  LYS343      0.0035
    185  CD        -2.1530   65.7760   35.7350 C.3   343  LYS343      0.0206
    186  CE        -1.9500   64.2820   35.7310 C.3   343  LYS343      0.1093
    187  NZ        -2.8180   63.6080   36.7310 N.3   343  LYS343     -0.1314
@<TRIPOS>BOND
     1    37    36    1
     2    36    35   ar
     3    36    34   ar
     4    35    33   ar
     5    34    32   ar
     6    33    31   ar
     7    32    31   ar
     8    31    30    1
     9    13    14    1
    10    68    69    1
    11    68    65    1
    12    91    90    1
    13    16    15    2
    14    66    67    2
    15    66    65    1
    16    30    27    1
    17    69    70    1
    18    85    84    2
    19    65    64    1
    20    14    15    1
    21    15    17   am
    22    90    92    1
    23    90    89    2
    24    88    89    1
    25    88    87    1
    26     4     3    2
    27    72    70   ar
    28    84    83    1
    29    70    71   ar
    30    27    26    1
    31    27    28    1
    32    86    87    1
    33    86    83    1
    34    20    19    2
    35    26    19   am
    36    19    18    1
    37    17    18    1
    38    29    28    2
    39    18    21    1
    40    83    82    1
    41     3     2    1
    42    28    38   am
    43    75    76    2
    44    75    74    1
    45    73    74    1
    46     2     1    1
    47     2     5    1
    48    74    77    1
    49    21    22    1
    50    38    39    1
    51    81    79   am
    52    77    78    1
    53    22    23    1
    54    78    79    1
    55    48    49    2
    56    48    47    1
    57     5     6    1
    58    57    58    1
    59    39    40    1
    60    39    42    1
    61    79    80    2
    62    23    24    1
    63    24    25    1
    64    44    43    2
    65    40    46   am
    66    40    41    2
    67    46    47    1
    68     8     6   ar
    69     8    10   ar
    70    59    58    1
    71    59    60    2
    72     6     7   ar
    73    43    42    1
    74    43    45   am
    75    47    50    1
    76    50    51    1
    77    58    61    1
    78    10    11   ar
    79     7     9   ar
    80    52    51    1
    81    52    53    1
    82    61    62    1
    83    61    63    1
    84    11     9   ar
    85    11    12    1
    86    55    54    1
    87   170   169    1
    88   141   140    2
    89   169   168    1
    90   152   153    1
    91   152   151    1
    92    53    54    2
    93    54    56    1
    94   145   146    1
    95   150   151    1
    96   150   149    1
    97   140   139    1
    98   146   149    1
    99   146   147    1
   100   168   167    1
   101   139   138    1
   102   139   142    1
   103   147   148    2
   104   167   166    1
   105    96    95    2
   106    94    93    1
   107    94    95    1
   108    94    97    1
   109    98    97    1
   110   143   142    1
   111   142   144    1
   112    95    99   am
   113   166   163    1
   114   160   159    1
   115    99   100    1
   116   120   119   ar
   117   120   118   ar
   118   102   101    2
   119   163   164    1
   120   163   162    1
   121   154   155    1
   122   100   101    1
   123   100   103    1
   124   119   117   ar
   125   155   158    1
   126   155   156    1
   127   161   159    1
   128   159   158    1
   129   165   164    2
   130   178   176    1
   131   164   171   am
   132   118   116   ar
   133   157   156    2
   134   107   109   ar
   135   107   105   ar
   136   109   108   ar
   137   105   104   ar
   138   117   115   ar
   139   108   106   ar
   140   104   106   ar
   141   104   103    1
   142   171   172    1
   143   176   175    1
   144   116   115   ar
   145   115   114    1
   146   172   175    1
   147   172   173    1
   148   182   181    2
   149   175   177    1
   150   133   132    2
   151   181   180    1
   152   136   135    1
   153   134   135    1
   154   134   131    1
   155   173   174    2
   156   132   131    1
   157   114   111    1
   158   135   137    1
   159   129   127   am
   160   113   112    2
   161   131   130    1
   162   180   179    1
   163   180   183    1
   164   112   111    1
   165   111   110    1
   166   124   123    2
   167   127   128    2
   168   127   126    1
   169   123   122    1
   170   184   183    1
   171   184   185    1
   172   126   125    1
   173   125   122    1
   174   186   185    1
   175   186   187    1
   176   122   121    1
