@<TRIPOS>MOLECULE
tmp/5dk3B04.pdb
 83 82 0 0 0
SMALL
GASTEIGER

@<TRIPOS>ATOM
      1  N         13.6580  -56.7460  -49.1370 N.3   372  SER372     -0.1217
      2  CA        12.5830  -57.6890  -48.7760 C.3   372  SER372      0.1889
      3  C         11.4780  -57.7860  -49.8350 C.2   372  SER372      0.2288
      4  O         10.7960  -58.8060  -49.8790 O.2   372  SER372     -0.2866
      5  CB        11.9590  -57.3180  -47.4420 C.3   372  SER372      0.2089
      6  OG        11.2300  -56.1080  -47.5650 O.3   372  SER372     -0.2183
      7  N          9.6240  -58.8290  -52.7660 N.3   374  ILE374     -0.1231
      8  CA         9.7460  -59.9910  -53.6180 C.3   374  ILE374      0.1692
      9  C          8.3640  -60.5730  -53.8830 C.2   374  ILE374      0.2592
     10  O          7.4040  -60.2610  -53.1720 O.2   374  ILE374     -0.2718
     11  CB        10.6430  -61.0120  -52.8420 C.3   374  ILE374      0.0266
     12  CG1       11.2200  -62.0910  -53.7550 C.3   374  ILE374      0.0019
     13  CG2        9.9030  -61.6270  -51.6380 C.3   374  ILE374      0.0020
     14  CD1       12.4020  -62.7860  -53.1490 C.3   374  ILE374      0.0001
     15  N          8.2670  -61.3900  -54.9210 N.am  375  ALA375     -0.1966
     16  CA         7.0510  -62.1280  -55.1890 C.3   375  ALA375      0.1728
     17  C          7.3810  -63.5080  -55.6130 C.2   375  ALA375      0.2616
     18  O          8.3560  -63.7230  -56.3220 O.2   375  ALA375     -0.2715
     19  CB         6.2100  -61.4580  -56.2400 C.3   375  ALA375      0.0334
     20  N          6.5410  -64.4410  -55.2000 N.am  376  VAL376     -0.1977
     21  CA         6.6480  -65.8270  -55.5700 C.3   376  VAL376      0.1596
     22  C          5.3270  -66.2670  -56.2290 C.2   376  VAL376      0.2287
     23  O          4.2640  -65.9170  -55.7570 O.2   376  VAL376     -0.2864
     24  CB         6.9870  -66.7120  -54.3370 C.3   376  VAL376      0.0276
     25  CG1        7.2670  -68.1570  -54.7540 C.3   376  VAL376      0.0022
     26  CG2        8.1740  -66.1540  -53.5860 C.3   376  VAL376      0.0022
     27  N         -1.8760  -71.4720  -53.6170 N.3   388  TYR388     -0.1227
     28  CA        -0.6040  -71.4090  -52.9500 C.3   388  TYR388      0.1736
     29  C         -0.5500  -70.2010  -52.0710 C.2   388  TYR388      0.2595
     30  O         -1.2870  -69.2540  -52.2640 O.2   388  TYR388     -0.2718
     31  CB         0.5530  -71.4120  -53.9500 C.3   388  TYR388      0.0548
     32  CG         0.4830  -70.3170  -54.9910 C.ar  388  TYR388     -0.0200
     33  CD1        1.0520  -69.0700  -54.7550 C.ar  388  TYR388     -0.0009
     34  CD2       -0.0370  -70.5660  -56.2580 C.ar  388  TYR388     -0.0009
     35  CE1        1.0690  -68.0980  -55.7280 C.ar  388  TYR388      0.0417
     36  CE2        0.0920  -69.6340  -57.2770 C.ar  388  TYR388      0.0417
     37  CZ         0.6650  -68.4060  -57.0100 C.ar  388  TYR388      0.1957
     38  OH         0.6390  -67.3860  -57.9170 O.3   388  TYR388     -0.2866
     39  N          0.3060  -70.2650  -51.0640 N.am  389  LYS389     -0.1966
     40  CA         0.4900  -69.2000  -50.0870 C.3   389  LYS389      0.1728
     41  C          1.9570  -69.0600  -49.7690 C.2   389  LYS389      0.2617
     42  O          2.6920  -70.0540  -49.6600 O.2   389  LYS389     -0.2715
     43  CB        -0.2580  -69.5220  -48.7830 C.3   389  LYS389      0.0311
     44  CG        -1.7800  -69.6510  -48.8650 C.3   389  LYS389      0.0038
     45  CD        -2.4890  -68.3190  -49.1540 C.3   389  LYS389      0.0206
     46  CE        -3.9840  -68.4670  -49.4670 C.3   389  LYS389      0.1093
     47  NZ        -4.2210  -69.0170  -50.8520 N.3   389  LYS389     -0.1314
     48  N          2.3590  -67.8440  -49.5570 N.am  390  THR390     -0.1937
     49  CA         3.7070  -67.4790  -49.2250 C.3   390  THR390      0.2028
     50  C          3.7430  -66.7340  -47.9140 C.2   390  THR390      0.2643
     51  O          2.9380  -65.8510  -47.6830 O.2   390  THR390     -0.2714
     52  CB         4.2750  -66.7040  -50.4060 C.3   390  THR390      0.1808
     53  OG1        4.1120  -67.5130  -51.5710 O.3   390  THR390     -0.2208
     54  CG2        5.7230  -66.3430  -50.2210 C.3   390  THR390      0.0379
     55  N          4.7530  -67.0050  -47.1020 N.am  391  THR391     -0.1937
     56  CA         4.9050  -66.3220  -45.8180 C.3   391  THR391      0.2013
     57  C          5.4670  -64.9270  -46.0450 C.2   391  THR391      0.2484
     58  O          6.1690  -64.7040  -47.0350 O.2   391  THR391     -0.2729
     59  CB         5.8980  -67.0950  -44.8940 C.3   391  THR391      0.1807
     60  OG1        7.2220  -67.0200  -45.3910 O.3   391  THR391     -0.2208
     61  CG2        5.5470  -68.5580  -44.7070 C.3   391  THR391      0.0379
     62  N          5.3410  -63.9980  -45.0890 N.am  392  PRO392     -0.2715
     63  CA         6.0890  -62.7610  -45.2400 C.3   392  PRO392      0.1521
     64  C          7.6120  -63.0230  -45.1240 C.2   392  PRO392      0.2440
     65  O          8.0610  -64.0560  -44.5790 O.2   392  PRO392     -0.2731
     66  CB         5.5580  -61.8640  -44.1090 C.3   392  PRO392      0.0310
     67  CG         4.3960  -62.5400  -43.5530 C.3   392  PRO392      0.0237
     68  CD         4.5880  -64.0040  -43.8260 C.3   392  PRO392      0.0939
     69  N          8.4240  -62.1170  -45.6780 N.am  393  PRO393     -0.2727
     70  CA         9.8910  -62.2400  -45.5230 C.3   393  PRO393      0.1402
     71  C         10.3020  -62.1650  -44.0510 C.2   393  PRO393      0.2269
     72  O          9.6930  -61.4200  -43.2970 O.2   393  PRO393     -0.2865
     73  CB        10.4360  -61.0190  -46.2750 C.3   393  PRO393      0.0296
     74  CG         9.3100  -60.5510  -47.1500 C.3   393  PRO393      0.0237
     75  CD         8.0620  -60.8890  -46.4010 C.3   393  PRO393      0.0939
     76  N         12.0770  -66.5350  -47.0020 N.3   403  LEU403     -0.1245
     77  CA        10.6590  -66.8860  -46.8670 C.3   403  LEU403      0.1561
     78  C         10.4040  -68.2930  -47.3660 C.2   403  LEU403      0.2260
     79  O         11.3080  -68.9370  -47.8970 O.2   403  LEU403     -0.2867
     80  CB         9.7030  -65.8710  -47.5220 C.3   403  LEU403      0.0270
     81  CG         9.8920  -65.5400  -48.9940 C.3   403  LEU403      0.0019
     82  CD1        9.4810  -66.7030  -49.8790 C.3   403  LEU403      0.0001
     83  CD2        9.0760  -64.2930  -49.3180 C.3   403  LEU403      0.0001
@<TRIPOS>BOND
     1    38    37    1
     2    36    37   ar
     3    36    34   ar
     4    37    35   ar
     5    18    17    2
     6    34    32   ar
     7    19    16    1
     8    22    23    2
     9    22    21    1
    10    35    33   ar
    11    17    20   am
    12    17    16    1
    13    21    20    1
    14    21    24    1
    15    16    15    1
    16    32    33   ar
    17    32    31    1
    18    15     9   am
    19    25    24    1
    20    24    26    1
    21    31    28    1
    22     9     8    1
    23     9    10    2
    24    12    14    1
    25    12    11    1
    26     8    11    1
    27     8     7    1
    28    27    28    1
    29    28    29    1
    30    11    13    1
    31    30    29    2
    32    29    39   am
    33    53    52    1
    34    39    40    1
    35    47    46    1
    36    52    54    1
    37    52    49    1
    38    40    41    1
    39    40    43    1
    40     4     3    2
    41    82    81    1
    42     3     2    1
    43    41    42    2
    44    41    48   am
    45    48    49    1
    46    46    45    1
    47    83    81    1
    48    49    50    1
    49    45    44    1
    50     1     2    1
    51    81    80    1
    52    44    43    1
    53     2     5    1
    54    50    51    2
    55    50    55   am
    56    79    78    2
    57     6     5    1
    58    80    77    1
    59    78    77    1
    60    74    75    1
    61    74    73    1
    62    55    56    1
    63    58    57    2
    64    76    77    1
    65    75    69    1
    66    73    70    1
    67    57    56    1
    68    57    62   am
    69    56    59    1
    70    69    70    1
    71    69    64   am
    72    70    71    1
    73    60    59    1
    74    63    64    1
    75    63    62    1
    76    63    66    1
    77    64    65    2
    78    62    68    1
    79    59    61    1
    80    66    67    1
    81    71    72    2
    82    68    67    1
