@<TRIPOS>MOLECULE
tmp/5dk3D04.pdb
 97 94 0 0 0
SMALL
GASTEIGER

@<TRIPOS>ATOM
      1  N         16.6740   18.2360   -3.5830 N.3    88  PHE88      -0.1227
      2  CA        16.0740   16.9090   -3.8760 C.3    88  PHE88       0.1736
      3  C         15.4290   16.2500   -2.6620 C.2    88  PHE88       0.2595
      4  O         14.3370   15.6920   -2.8000 O.2    88  PHE88      -0.2718
      5  CB        17.0850   15.9290   -4.4830 C.3    88  PHE88       0.0547
      6  CG        17.7330   16.3290   -5.7810 C.ar   88  PHE88      -0.0202
      7  CD1       16.9910   16.9330   -6.7930 C.ar   88  PHE88      -0.0042
      8  CD2       19.0500   15.9780   -6.0530 C.ar   88  PHE88      -0.0042
      9  CE1       17.5800   17.2520   -8.0140 C.ar   88  PHE88      -0.0003
     10  CE2       19.6430   16.3210   -7.2620 C.ar   88  PHE88      -0.0003
     11  CZ        18.8970   16.9300   -8.2470 C.ar   88  PHE88      -0.0000
     12  N         16.0340   16.4110   -1.4620 N.am   89  ASP89      -0.1974
     13  CA        15.5090   15.8020   -0.2470 C.3    89  ASP89       0.1709
     14  C         14.3180   16.5940    0.3960 C.2    89  ASP89       0.2293
     15  O         13.8220   16.2000    1.4600 O.2    89  ASP89      -0.2864
     16  CB        16.6360   15.5030    0.7510 C.3    89  ASP89       0.1436
     17  CG        17.1320   16.6630    1.5650 C.2    89  ASP89       0.3671
     18  OD1       16.9110   17.8220    1.1450 O.co2  89  ASP89      -0.2456
     19  OD2       17.7470   16.4160    2.6160 O.co2  89  ASP89      -0.2456
     20  N         11.7020   16.4470   -1.3370 N.3    91  THR91      -0.1218
     21  CA        10.6580   15.6380   -1.9600 C.3    91  THR91       0.1862
     22  C          9.8480   14.9550   -0.8700 C.2    91  THR91       0.2287
     23  O         10.3650   14.1100   -0.1560 O.2    91  THR91      -0.2866
     24  CB        11.2650   14.6200   -2.9490 C.3    91  THR91       0.1770
     25  OG1       11.7390   15.3420   -4.0760 O.3    91  THR91      -0.2211
     26  CG2       10.2610   13.5530   -3.3850 C.3    91  THR91       0.0375
     27  N          7.6530   17.1390   -5.6660 N.3   117  THR117     -0.1203
     28  CA         8.8090   16.4310   -6.2020 C.3   117  THR117      0.1994
     29  C          9.8260   17.4720   -6.6070 C.2   117  THR117      0.2618
     30  O          9.4900   18.4040   -7.3210 O.2   117  THR117     -0.2717
     31  CB         8.3940   15.5300   -7.3680 C.3   117  THR117      0.1784
     32  OG1        7.3350   14.6880   -6.9160 O.3   117  THR117     -0.2211
     33  CG2        9.5280   14.6670   -7.8570 C.3   117  THR117      0.0376
     34  N         11.0620   17.3170   -6.1510 N.am  118  VAL118     -0.1965
     35  CA        12.1770   18.2260   -6.4680 C.3   118  VAL118      0.1727
     36  C         13.1620   17.4080   -7.3180 C.2   118  VAL118      0.2617
     37  O         13.6730   16.4080   -6.8400 O.2   118  VAL118     -0.2715
     38  CB        12.8040   18.8330   -5.1970 C.3   118  VAL118      0.0290
     39  CG1       13.9360   19.7940   -5.5570 C.3   118  VAL118      0.0023
     40  CG2       11.7330   19.5310   -4.3610 C.3   118  VAL118      0.0023
     41  N         13.3280   17.7720   -8.5980 N.am  119  SER119     -0.1936
     42  CA        14.1300   16.9930   -9.5480 C.3   119  SER119      0.2055
     43  C         14.5920   17.7990  -10.7890 C.2   119  SER119      0.2643
     44  O         13.8940   18.7100  -11.2220 O.2   119  SER119     -0.2714
     45  CB        13.2860   15.8150  -10.0280 C.3   119  SER119      0.2130
     46  OG        13.8320   15.1290  -11.1440 O.3   119  SER119     -0.2179
     47  N         15.6970   17.3680  -11.4300 N.am  120  SER120     -0.1949
     48  CA        16.1820   18.0090  -12.6670 C.3   120  SER120      0.1924
     49  C         15.4880   17.4860  -13.9240 C.2   120  SER120      0.2314
     50  O         15.4810   18.1820  -14.9350 O.2   120  SER120     -0.2863
     51  CB        17.6900   17.9050  -12.7790 C.3   120  SER120      0.2116
     52  OG        18.2270   18.6870  -11.7250 O.3   120  SER120     -0.2180
     53  N         12.6930    5.0350   -7.5730 N.3   177  LEU177     -0.1231
     54  CA        13.3780    6.1760   -8.1790 C.3   177  LEU177      0.1693
     55  C         14.7850    5.7210   -8.5300 C.2   177  LEU177      0.2592
     56  O         15.5610    5.3680   -7.6360 O.2   177  LEU177     -0.2718
     57  CB        13.4390    7.3650   -7.2140 C.3   177  LEU177      0.0284
     58  CG        14.0500    8.6450   -7.7780 C.3   177  LEU177      0.0019
     59  CD1       13.4420    9.0040   -9.1700 C.3   177  LEU177      0.0001
     60  CD2       13.8830    9.7810   -6.7810 C.3   177  LEU177      0.0001
     61  N         15.1080    5.6880   -9.8210 N.am  178  GLN178     -0.1966
     62  CA        16.4080    5.1970  -10.2740 C.3   178  GLN178      0.1733
     63  C         17.4800    6.2900  -10.1880 C.2   178  GLN178      0.2617
     64  O         17.1430    7.4630  -10.1250 O.2   178  GLN178     -0.2715
     65  CB        16.2970    4.6610  -11.7190 C.3   178  GLN178      0.0408
     66  CG        15.1720    3.6170  -11.9460 C.3   178  GLN178      0.0908
     67  CD        14.9570    3.3670  -13.4230 C.2   178  GLN178      0.2608
     68  OE1       15.5280    2.4390  -14.0040 O.2   178  GLN178     -0.2717
     69  NE2       14.2150    4.2530  -14.0870 N.am  178  GLN178     -0.0878
     70  N         18.7690    5.9090  -10.2930 N.am  179  SER179     -0.1936
     71  CA        19.9050    6.8560  -10.2680 C.3   179  SER179      0.2055
     72  C         19.7600    7.9850  -11.2850 C.2   179  SER179      0.2644
     73  O         20.1940    9.1020  -11.0210 O.2   179  SER179     -0.2714
     74  CB        21.2260    6.1270  -10.4910 C.3   179  SER179      0.2130
     75  OG        21.1240    5.1990  -11.5620 O.3   179  SER179     -0.2179
     76  N         19.1200    7.6950  -12.4330 N.am  180  SER180     -0.1935
     77  CA        18.8160    8.6720  -13.4910 C.3   180  SER180      0.2055
     78  C         17.8340    9.7600  -13.0460 C.2   180  SER180      0.2643
     79  O         17.7090   10.7770  -13.7240 O.2   180  SER180     -0.2714
     80  CB        18.1860    7.9520  -14.6820 C.3   180  SER180      0.2130
     81  OG        17.0540    7.2010  -14.2700 O.3   180  SER180     -0.2179
     82  N         17.0790    9.5030  -11.9810 N.am  181  GLY181     -0.1954
     83  CA        16.0500   10.4140  -11.5150 C.3   181  GLY181      0.1869
     84  C         14.7270   10.1540  -12.1980 C.2   181  GLY181      0.2309
     85  O         13.7830   10.9260  -12.0320 O.2   181  GLY181     -0.2863
     86  N         11.5280    7.3930  -12.7320 N.3   183  TYR183     -0.1241
     87  CA        10.8830    6.3160  -11.9910 C.3   183  TYR183      0.1605
     88  C         10.7430    5.0210  -12.8160 C.2   183  TYR183      0.2264
     89  O         11.0560    4.9680  -14.0100 O.2   183  TYR183     -0.2867
     90  CB         9.5290    6.7820  -11.4650 C.3   183  TYR183      0.0534
     91  CG         9.6380    7.8860  -10.4540 C.ar  183  TYR183     -0.0201
     92  CD1        9.7420    7.6060   -9.0940 C.ar  183  TYR183     -0.0009
     93  CD2        9.5590    9.2190  -10.8410 C.ar  183  TYR183     -0.0009
     94  CE1        9.7990    8.6250   -8.1470 C.ar  183  TYR183      0.0417
     95  CE2        9.5710   10.2450   -9.9040 C.ar  183  TYR183      0.0417
     96  CZ         9.7280    9.9480   -8.5560 C.ar  183  TYR183      0.1957
     97  OH         9.7590   10.9620   -7.6200 O.3   183  TYR183     -0.2866
@<TRIPOS>BOND
     1    50    49    2
     2    80    81    1
     3    80    77    1
     4    69    67   am
     5    89    88    2
     6    68    67    2
     7    49    48    1
     8    79    78    2
     9    77    78    1
    10    77    76    1
    11    67    66    1
    12    78    82   am
    13    88    87    1
    14    51    48    1
    15    51    52    1
    16    86    87    1
    17    48    47    1
    18    76    72   am
    19    84    85    2
    20    84    83    1
    21    87    90    1
    22    82    83    1
    23    66    65    1
    24    65    62    1
    25    75    74    1
    26    90    91    1
    27    47    43   am
    28    72    73    2
    29    72    71    1
    30    44    43    2
    31    46    45    1
    32    93    91   ar
    33    93    95   ar
    34    43    42    1
    35    74    71    1
    36    91    92   ar
    37    70    71    1
    38    70    63   am
    39    62    63    1
    40    62    61    1
    41    63    64    2
    42    45    42    1
    43    95    96   ar
    44    61    55   am
    45    42    41    1
    46    59    58    1
    47    92    94   ar
    48    41    36   am
    49    96    94   ar
    50    96    97    1
    51    55    54    1
    52    55    56    2
    53    11     9   ar
    54    11    10   ar
    55    54    53    1
    56    54    57    1
    57     9     7   ar
    58    33    31    1
    59    58    57    1
    60    58    60    1
    61    31    32    1
    62    31    28    1
    63    30    29    2
    64    36    37    2
    65    36    35    1
    66    10     8   ar
    67     7     6   ar
    68    29    28    1
    69    29    34   am
    70    35    34    1
    71    35    38    1
    72    28    27    1
    73     8     6   ar
    74     6     5    1
    75    39    38    1
    76    38    40    1
    77     5     2    1
    78    25    24    1
    79     2     1    1
    80     2     3    1
    81    26    24    1
    82    24    21    1
    83     4     3    2
    84     3    12   am
    85    21    20    1
    86    21    22    1
    87    12    13    1
    88    22    23    2
    89    13    14    1
    90    13    16    1
    91    14    15    2
    92    16    17    1
    93    18    17   ar
    94    17    19   ar
