@<TRIPOS>MOLECULE
tmp/5dk4A01.pdb
 159 148 0 0 0
SMALL
GASTEIGER

@<TRIPOS>ATOM
      1  N          8.6820   34.1140   99.7970 N.3     5  PHE5       -0.1227
      2  CA         9.6510   33.0350   99.6340 C.3     5  PHE5        0.1736
      3  C          9.0640   31.9470   98.7560 C.2     5  PHE5        0.2596
      4  O          7.9090   31.5650   98.9260 O.2     5  PHE5       -0.2718
      5  CB        10.0680   32.4390  100.9800 C.3     5  PHE5        0.0547
      6  CG        11.1990   31.4530  100.8710 C.ar    5  PHE5       -0.0202
      7  CD1       10.9820   30.1770  100.3810 C.ar    5  PHE5       -0.0042
      8  CD2       12.4800   31.8070  101.2450 C.ar    5  PHE5       -0.0042
      9  CE1       12.0220   29.2790  100.2590 C.ar    5  PHE5       -0.0003
     10  CE2       13.5210   30.9100  101.1320 C.ar    5  PHE5       -0.0003
     11  CZ        13.2890   29.6440  100.6380 C.ar    5  PHE5       -0.0000
     12  N          9.8540   31.4580   97.8080 N.am    6  SER6       -0.1938
     13  CA         9.4550   30.2870   97.0390 C.3     6  SER6        0.2055
     14  C         10.6670   29.5020   96.5770 C.2     6  SER6        0.2644
     15  O         11.7450   30.0570   96.3830 O.2     6  SER6       -0.2714
     16  CB         8.5930   30.6920   95.8450 C.3     6  SER6        0.2130
     17  OG         7.7780   29.6080   95.4350 O.3     6  SER6       -0.2179
     18  N         10.4630   28.2030   96.3920 N.am    7  GLY7       -0.1939
     19  CA        11.5380   27.2890   96.0460 C.3     7  GLY7        0.2014
     20  C         11.1720   26.3640   94.8990 C.2     7  GLY7        0.2639
     21  O         10.0070   26.0070   94.7230 O.2     7  GLY7       -0.2714
     22  N         12.1740   25.9800   94.1150 N.am    8  ILE8       -0.1963
     23  CA        11.9920   25.0250   93.0250 C.3     8  ILE8        0.1727
     24  C         13.1210   24.0110   93.1170 C.2     8  ILE8        0.2616
     25  O         14.2640   24.3920   93.3680 O.2     8  ILE8       -0.2715
     26  CB        11.9930   25.7240   91.6420 C.3     8  ILE8        0.0290
     27  CG1       10.8060   26.6890   91.5470 C.3     8  ILE8        0.0022
     28  CG2       11.9570   24.6960   90.4980 C.3     8  ILE8        0.0023
     29  CD1       10.7510   27.4970   90.2650 C.3     8  ILE8        0.0001
     30  N         12.8040   22.7260   92.9500 N.am    9  GLN9       -0.1977
     31  CA        13.8180   21.6720   93.0390 C.3     9  GLN9        0.1601
     32  C         14.6480   21.5500   91.7690 C.2     9  GLN9        0.2287
     33  O         14.0930   21.5690   90.6700 O.2     9  GLN9       -0.2864
     34  CB        13.1920   20.3060   93.2800 C.3     9  GLN9        0.0394
     35  CG        12.2340   20.1860   94.4130 C.3     9  GLN9        0.0908
     36  CD        11.7680   18.7520   94.5430 C.2     9  GLN9        0.2608
     37  OE1       12.5310   17.8820   94.9600 O.2     9  GLN9       -0.2717
     38  NE2       10.5310   18.4890   94.1430 N.am    9  GLN9       -0.0878
     39  N         16.2160   24.6120   95.7560 N.3    40  VAL40      -0.1245
     40  CA        16.1690   23.7520   96.9400 C.3    40  VAL40       0.1561
     41  C         16.7430   22.3610   96.6610 C.2    40  VAL40       0.2260
     42  O         16.0250   21.3750   96.5120 O.2    40  VAL40      -0.2867
     43  CB        14.7360   23.6530   97.5040 C.3    40  VAL40       0.0252
     44  CG1       14.3800   24.9550   98.2090 C.3    40  VAL40       0.0019
     45  CG2       13.7070   23.3410   96.4200 C.3    40  VAL40       0.0019
     46  N         15.9280   19.3990   98.9800 N.3    43  HIS43      -0.1241
     47  CA        14.6520   18.7520   98.6870 C.3    43  HIS43       0.1621
     48  C         14.8060   17.7420   97.5520 C.2    43  HIS43       0.2264
     49  O         14.1800   16.6830   97.5590 O.2    43  HIS43      -0.2867
     50  CB        13.5850   19.7860   98.3290 C.3    43  HIS43       0.0745
     51  CG        12.9720   20.4550   99.5180 C.ar   43  HIS43       0.0817
     52  ND1       12.0090   19.8530  100.2950 N.ar   43  HIS43      -0.2268
     53  CD2       13.1890   21.6740  100.0660 C.ar   43  HIS43       0.1154
     54  CE1       11.6540   20.6740  101.2720 C.ar   43  HIS43       0.1986
     55  NE2       12.3620   21.7850  101.1500 N.ar   43  HIS43      -0.2212
     56  N         15.6240   13.9370   98.1360 N.3    46  THR46      -0.1218
     57  CA        14.6810   13.0640   98.8340 C.3    46  THR46       0.1862
     58  C         14.4040   11.8180   97.9870 C.2    46  THR46       0.2287
     59  O         13.8990   10.8110   98.4890 O.2    46  THR46      -0.2866
     60  CB        13.3540   13.7810   99.1620 C.3    46  THR46       0.1770
     61  OG1       12.8520   14.4470   97.9960 O.3    46  THR46      -0.2211
     62  CG2       13.5650   14.8060  100.2650 C.3    46  THR46       0.0375
     63  N          3.5580    9.5280   96.3060 N.3   109  LYS109     -0.1245
     64  CA         4.9290    9.2660   95.8760 C.3   109  LYS109      0.1561
     65  C          5.5070    7.9950   96.5010 C.2   109  LYS109      0.2260
     66  O          6.5720    7.5340   96.0880 O.2   109  LYS109     -0.2867
     67  CB         5.8350   10.4530   96.2170 C.3   109  LYS109      0.0271
     68  CG         5.5050   11.7410   95.4720 C.3   109  LYS109      0.0035
     69  CD         6.5510   12.0910   94.4120 C.3   109  LYS109      0.0206
     70  CE         6.6930   13.6010   94.2610 C.3   109  LYS109      0.1093
     71  NZ         7.5830   13.9890   93.1260 N.3   109  LYS109     -0.1314
     72  N         11.6800   11.5490  102.0800 N.3   120  LEU120     -0.1245
     73  CA        10.4380   11.6860  101.3390 C.3   120  LEU120      0.1561
     74  C          9.2640   11.8900  102.2940 C.2   120  LEU120      0.2260
     75  O          8.2930   12.5730  101.9670 O.2   120  LEU120     -0.2867
     76  CB        10.2110   10.4560  100.4610 C.3   120  LEU120      0.0270
     77  CG         9.1180   10.5590   99.3970 C.3   120  LEU120      0.0019
     78  CD1        9.3950   11.7160   98.4490 C.3   120  LEU120      0.0001
     79  CD2        9.0120    9.2500   98.6340 C.3   120  LEU120      0.0001
     80  N         10.2770   15.7960  104.3150 N.3   123  TYR123     -0.1241
     81  CA        10.6350   17.0490  103.6530 C.3   123  TYR123      0.1605
     82  C          9.6680   18.2030  103.9770 C.2   123  TYR123      0.2264
     83  O         10.0610   19.3630  103.8750 O.2   123  TYR123     -0.2867
     84  CB        10.7510   16.8560  102.1270 C.3   123  TYR123      0.0534
     85  CG         9.4520   16.7940  101.3540 C.ar  123  TYR123     -0.0201
     86  CD1        8.7220   17.9460  101.0740 C.ar  123  TYR123     -0.0009
     87  CD2        8.9710   15.5860  100.8760 C.ar  123  TYR123     -0.0009
     88  CE1        7.5410   17.8880  100.3650 C.ar  123  TYR123      0.0417
     89  CE2        7.7970   15.5190  100.1640 C.ar  123  TYR123      0.0417
     90  CZ         7.0830   16.6680   99.9100 C.ar  123  TYR123      0.1957
     91  OH         5.9060   16.6040   99.1970 O.3   123  TYR123     -0.2866
     92  N         11.1560   20.5180  106.4040 N.3   126  LEU126     -0.1245
     93  CA        12.2440   21.2330  105.7380 C.3   126  LEU126      0.1561
     94  C         11.6680   22.3920  104.9230 C.2   126  LEU126      0.2260
     95  O         12.2060   23.5000  104.9180 O.2   126  LEU126     -0.2867
     96  CB        13.0500   20.2900  104.8390 C.3   126  LEU126      0.0270
     97  CG        14.1700   20.9320  104.0090 C.3   126  LEU126      0.0019
     98  CD1       15.2250   21.5580  104.9110 C.3   126  LEU126      0.0001
     99  CD2       14.8020   19.9250  103.0540 C.3   126  LEU126      0.0001
    100  N          8.8350   23.8390  105.6160 N.3   127  ALA127     -0.1245
    101  CA         8.3640   24.7930  106.6110 C.3   127  ALA127      0.1562
    102  C          9.5180   25.6620  107.0900 C.2   127  ALA127      0.2260
    103  O          9.3640   26.8680  107.2600 O.2   127  ALA127     -0.2867
    104  CB         7.7130   24.0740  107.7840 C.3   127  ALA127      0.0290
    105  N         12.2390   26.3630  105.3230 N.3   129  ASP129     -0.1225
    106  CA        12.5480   27.2280  104.1700 C.3   129  ASP129      0.1805
    107  C         11.7550   28.5290  104.2360 C.2   129  ASP129      0.2597
    108  O         12.2870   29.6140  104.0100 O.2   129  ASP129     -0.2718
    109  CB        12.2260   26.5370  102.8390 C.3   129  ASP129      0.1424
    110  CG        13.0710   25.3020  102.5750 C.2   129  ASP129      0.3668
    111  OD1       14.1930   25.1970  103.1080 O.co2 129  ASP129     -0.2456
    112  OD2       12.6040   24.4330  101.8040 O.co2 129  ASP129     -0.2456
    113  N         10.4730   28.3960  104.5560 N.am  130  ILE130     -0.1980
    114  CA         9.5430   29.5150  104.5980 C.3   130  ILE130      0.1595
    115  C          9.6910   30.3570  105.8670 C.2   130  ILE130      0.2287
    116  O          9.8330   31.5800  105.7990 O.2   130  ILE130     -0.2864
    117  CB         8.0860   29.0030  104.5060 C.3   130  ILE130      0.0276
    118  CG1        7.8390   28.3500  103.1430 C.3   130  ILE130      0.0022
    119  CG2        7.0950   30.1380  104.7520 C.3   130  ILE130      0.0022
    120  CD1        6.5960   27.4830  103.0950 C.3   130  ILE130      0.0001
    121  N          3.5970   32.9930  100.1370 N.3   138  VAL138     -0.1245
    122  CA         4.2950   31.8880   99.4920 C.3   138  VAL138      0.1561
    123  C          3.6260   31.5410   98.1590 C.2   138  VAL138      0.2260
    124  O          2.6050   30.8490   98.1450 O.2   138  VAL138     -0.2867
    125  CB         4.3170   30.6380  100.3930 C.3   138  VAL138      0.0252
    126  CG1        5.1530   29.5310   99.7510 C.3   138  VAL138      0.0019
    127  CG2        4.8410   30.9940  101.7870 C.3   138  VAL138      0.0019
    128  N          2.9520   29.4890   95.0530 N.3   140  VAL140     -0.1245
    129  CA         3.1320   28.0940   94.6670 C.3   140  VAL140      0.1561
    130  C          2.0090   27.6190   93.7530 C.2   140  VAL140      0.2260
    131  O          1.0220   28.3260   93.5450 O.2   140  VAL140     -0.2867
    132  CB         3.1770   27.1610   95.8980 C.3   140  VAL140      0.0252
    133  CG1        4.4710   27.3600   96.6750 C.3   140  VAL140      0.0019
    134  CG2        1.9490   27.3780   96.7940 C.3   140  VAL140      0.0019
    135  N         -0.5130   22.0110   94.0440 N.3   143  ASP143     -0.1225
    136  CA        -0.0920   20.7600   94.6750 C.3   143  ASP143      0.1805
    137  C          0.6210   20.9800   96.0150 C.2   143  ASP143      0.2597
    138  O          0.8000   20.0370   96.7890 O.2   143  ASP143     -0.2718
    139  CB         0.8150   19.9660   93.7260 C.3   143  ASP143      0.1424
    140  CG         2.1690   20.6180   93.5210 C.2   143  ASP143      0.3668
    141  OD1        2.2300   21.6800   92.8630 O.co2 143  ASP143     -0.2456
    142  OD2        3.1750   20.0490   94.0020 O.co2 143  ASP143     -0.2456
    143  N          1.0100   22.2230   96.2900 N.am  144  GLN144     -0.1979
    144  CA         1.7250   22.5580   97.5240 C.3   144  GLN144      0.1601
    145  C          0.8250   23.1860   98.5860 C.2   144  GLN144      0.2287
    146  O          1.2970   23.5960   99.6440 O.2   144  GLN144     -0.2864
    147  CB         2.8840   23.5090   97.2140 C.3   144  GLN144      0.0394
    148  CG         4.0290   22.8590   96.4630 C.3   144  GLN144      0.0908
    149  CD         4.5680   21.6580   97.2000 C.2   144  GLN144      0.2608
    150  OE1        5.2230   21.7990   98.2260 O.2   144  GLN144     -0.2717
    151  NE2        4.2820   20.4650   96.6880 N.am  144  GLN144     -0.0878
    152  N          1.6180   24.1020  102.7450 N.3   148  ILE148     -0.1245
    153  CA         1.5820   25.4310  103.3470 C.3   148  ILE148      0.1561
    154  C          0.6770   25.4260  104.5730 C.2   148  ILE148      0.2260
    155  O          0.9400   26.1250  105.5500 O.2   148  ILE148     -0.2867
    156  CB         1.0870   26.5030  102.3520 C.3   148  ILE148      0.0252
    157  CG1        1.9790   26.5450  101.1080 C.3   148  ILE148      0.0019
    158  CG2        1.0420   27.8730  103.0200 C.3   148  ILE148      0.0019
    159  CD1        3.4110   26.9530  101.3720 C.3   148  ILE148      0.0001
@<TRIPOS>BOND
     1    29    27    1
     2    28    26    1
     3    33    32    2
     4    27    26    1
     5    26    23    1
     6    32    31    1
     7   141   140   ar
     8    30    31    1
     9    30    24   am
    10    23    24    1
    11    23    22    1
    12    31    34    1
    13    24    25    2
    14    71    70    1
    15    34    35    1
    16   140   139    1
    17   140   142   ar
    18   131   130    2
    19   139   136    1
    20   130   129    1
    21   135   136    1
    22    22    20   am
    23    38    36   am
    24    70    69    1
    25    69    68    1
    26    35    36    1
    27    36    37    2
    28   129   128    1
    29   129   132    1
    30   136   137    1
    31    21    20    2
    32    20    19    1
    33    17    16    1
    34    68    67    1
    35    39    40    1
    36    16    13    1
    37    64    67    1
    38    64    63    1
    39    64    65    1
    40   132   133    1
    41   132   134    1
    42   137   143   am
    43   137   138    2
    44    19    18    1
    45    66    65    2
    46   143   144    1
    47    15    14    2
    48    18    14   am
    49    45    43    1
    50   148   149    1
    51   148   147    1
    52    42    41    2
    53    14    13    1
    54    41    40    1
    55   151   149   am
    56    40    43    1
    57    13    12    1
    58   149   150    2
    59   147   144    1
    60    43    44    1
    61   144   145    1
    62    48    49    2
    63    48    47    1
    64    12     3   am
    65    58    59    2
    66    58    57    1
    67    61    60    1
    68    56    57    1
    69   124   123    2
    70   123   122    1
    71    50    47    1
    72    50    51    1
    73    78    77    1
    74   145   146    2
    75    79    77    1
    76    47    46    1
    77     3     4    2
    78     3     2    1
    79    57    60    1
    80    60    62    1
    81    91    90    1
    82    77    76    1
    83   122   121    1
    84   122   125    1
    85    51    53   ar
    86    51    52   ar
    87     2     1    1
    88     2     5    1
    89   126   125    1
    90    90    89   ar
    91    90    88   ar
    92    53    55   ar
    93    89    87   ar
    94     9     7   ar
    95     9    11   ar
    96    52    54   ar
    97    88    86   ar
    98     7     6   ar
    99   125   127    1
   100    76    73    1
   101    11    10   ar
   102     6     5    1
   103     6     8   ar
   104    87    85   ar
   105    86    85   ar
   106   157   159    1
   107   157   156    1
   108    10     8   ar
   109    55    54   ar
   110    73    72    1
   111    73    74    1
   112    85    84    1
   113   112   110   ar
   114    75    74    2
   115    84    81    1
   116   156   158    1
   117   156   153    1
   118   110   109    1
   119   110   111   ar
   120   152   153    1
   121   109   106    1
   122    99    97    1
   123   120   118    1
   124   118   117    1
   125   153   154    1
   126    81    82    1
   127    81    80    1
   128    83    82    2
   129    97    96    1
   130    97    98    1
   131   108   107    2
   132   106   107    1
   133   106   105    1
   134   107   113   am
   135   117   114    1
   136   117   119    1
   137   113   114    1
   138   154   155    2
   139   114   115    1
   140    96    93    1
   141    95    94    2
   142    94    93    1
   143   100   101    1
   144    93    92    1
   145   116   115    2
   146   101   102    1
   147   101   104    1
   148   102   103    2
