@<TRIPOS>MOLECULE
tmp/5dk5B00.pdb
 89 84 0 0 0
SMALL
GASTEIGER

@<TRIPOS>ATOM
      1  N        -16.6470   -5.1570   34.9310 N.3    14  GLU14      -0.1245
      2  CA       -15.5780   -4.8070   34.0040 C.3    14  GLU14       0.1567
      3  C        -16.1220   -4.9780   32.5970 C.2    14  GLU14       0.2260
      4  O        -16.9190   -5.8830   32.3460 O.2    14  GLU14      -0.2867
      5  CB       -14.3410   -5.6750   34.2290 C.3    14  GLU14       0.0388
      6  CG       -13.7710   -5.5670   35.6360 C.3    14  GLU14       0.1160
      7  CD       -13.3160   -4.1610   35.9890 C.2    14  GLU14       0.3649
      8  OE1      -12.8400   -3.4420   35.0850 O.co2  14  GLU14      -0.2457
      9  OE2      -13.4410   -3.7760   37.1730 O.co2  14  GLU14      -0.2457
     10  N         -5.8500   -3.5860   31.4700 N.3    68  PHE68      -0.1227
     11  CA        -6.5810   -2.8530   32.4970 C.3    68  PHE68       0.1736
     12  C         -7.4430   -3.7650   33.3690 C.2    68  PHE68       0.2596
     13  O         -7.4870   -3.6050   34.5880 O.2    68  PHE68      -0.2718
     14  CB        -7.4570   -1.7780   31.8520 C.3    68  PHE68       0.0547
     15  CG        -8.2890   -1.0110   32.8360 C.ar   68  PHE68      -0.0202
     16  CD1       -7.7060   -0.0770   33.6760 C.ar   68  PHE68      -0.0042
     17  CD2       -9.6540   -1.2230   32.9220 C.ar   68  PHE68      -0.0042
     18  CE1       -8.4690    0.6310   34.5860 C.ar   68  PHE68      -0.0003
     19  CE2      -10.4230   -0.5190   33.8280 C.ar   68  PHE68      -0.0003
     20  CZ        -9.8290    0.4090   34.6620 C.ar   68  PHE68      -0.0000
     21  N         -8.1310   -4.7130   32.7400 N.am   69  THR69      -0.1953
     22  CA        -9.0580   -5.5900   33.4490 C.3    69  THR69       0.1897
     23  C         -8.3760   -6.8470   33.9880 C.2    69  THR69       0.2313
     24  O         -8.8630   -7.4690   34.9340 O.2    69  THR69      -0.2863
     25  CB       -10.2150   -6.0240   32.5370 C.3    69  THR69       0.1794
     26  OG1       -9.7000   -6.8190   31.4620 O.3    69  THR69      -0.2208
     27  CG2      -10.9440   -4.8070   31.9730 C.3    69  THR69       0.0378
     28  N        -18.0760    1.8160   43.8440 N.3   108  ASP108     -0.1239
     29  CA       -17.1190    2.8850   44.1070 C.3   108  ASP108      0.1674
     30  C        -17.4460    4.1360   43.2920 C.2   108  ASP108      0.2266
     31  O        -16.8050    5.1720   43.4530 O.2   108  ASP108     -0.2867
     32  CB       -15.6960    2.4120   43.8070 C.3   108  ASP108      0.1410
     33  CG       -15.4640    2.1410   42.3360 C.2   108  ASP108      0.3668
     34  OD1      -16.4330    1.8060   41.6220 O.co2 108  ASP108     -0.2456
     35  OD2      -14.3030    2.2580   41.8950 O.co2 108  ASP108     -0.2456
     36  N         -7.4000    7.1620   41.5480 N.3   158  THR158     -0.1218
     37  CA        -8.6970    6.4940   41.4330 C.3   158  THR158      0.1862
     38  C         -9.5070    6.6010   42.7200 C.2   158  THR158      0.2287
     39  O         -8.9770    6.9480   43.7740 O.2   158  THR158     -0.2866
     40  CB        -8.5370    5.0040   41.0840 C.3   158  THR158      0.1770
     41  OG1       -7.7440    4.3560   42.0870 O.3   158  THR158     -0.2211
     42  CG2       -7.8710    4.8400   39.7300 C.3   158  THR158      0.0375
     43  N        -11.0300    4.0750   44.4400 N.3   160  ILE160     -0.1245
     44  CA       -10.5640    3.0420   45.3580 C.3   160  ILE160      0.1561
     45  C         -9.1770    3.3890   45.8870 C.2   160  ILE160      0.2260
     46  O         -8.8850    3.1900   47.0660 O.2   160  ILE160     -0.2867
     47  CB       -10.5240    1.6560   44.6820 C.3   160  ILE160      0.0252
     48  CG1      -11.9440    1.1910   44.3530 C.3   160  ILE160      0.0019
     49  CG2       -9.8340    0.6270   45.5870 C.3   160  ILE160      0.0019
     50  CD1      -12.0080   -0.0450   43.4740 C.3   160  ILE160      0.0001
     51  N         -6.1520   -9.5830   40.5250 N.3   176  HIS176     -0.1226
     52  CA        -5.9300   -8.4520   39.6280 C.3   176  HIS176      0.1752
     53  C         -7.0710   -8.2980   38.6210 C.2   176  HIS176      0.2596
     54  O         -6.8360   -8.1020   37.4270 O.2   176  HIS176     -0.2718
     55  CB        -4.5930   -8.6060   38.8940 C.3   176  HIS176      0.0759
     56  CG        -3.4000   -8.5490   39.7950 C.ar  176  HIS176      0.0818
     57  ND1       -3.0550   -7.4150   40.5030 N.ar  176  HIS176     -0.2268
     58  CD2       -2.4640   -9.4800   40.1020 C.ar  176  HIS176      0.1154
     59  CE1       -1.9640   -7.6530   41.2060 C.ar  176  HIS176      0.1986
     60  NE2       -1.5840   -8.8960   40.9820 N.ar  176  HIS176     -0.2212
     61  N         -8.3050   -8.3890   39.1100 N.am  177  ASP177     -0.1960
     62  CA        -9.4800   -8.2450   38.2580 C.3   177  ASP177      0.1840
     63  C        -10.6530   -7.6400   39.0400 C.2   177  ASP177      0.2621
     64  O        -10.4490   -6.9400   40.0330 O.2   177  ASP177     -0.2715
     65  CB        -9.8570   -9.6040   37.6510 C.3   177  ASP177      0.1450
     66  CG       -10.1880  -10.6530   38.7010 C.2   177  ASP177      0.3671
     67  OD1      -10.3300  -10.3060   39.8930 O.co2 177  ASP177     -0.2456
     68  OD2      -10.3100  -11.8390   38.3260 O.co2 177  ASP177     -0.2456
     69  N        -11.8740   -7.9120   38.5880 N.am  178  ALA178     -0.1977
     70  CA       -13.0780   -7.3460   39.1900 C.3   178  ALA178      0.1597
     71  C        -13.2130   -7.6920   40.6690 C.2   178  ALA178      0.2287
     72  O        -13.6230   -6.8540   41.4710 O.2   178  ALA178     -0.2864
     73  CB       -14.3030   -7.8270   38.4390 C.3   178  ALA178      0.0319
     74  N        -10.9830   -8.2210   42.8590 N.3   180  ASP180     -0.1225
     75  CA       -10.0620   -7.4320   43.6710 C.3   180  ASP180      0.1805
     76  C        -10.6840   -6.0860   44.0220 C.2   180  ASP180      0.2597
     77  O        -10.5510   -5.6090   45.1500 O.2   180  ASP180     -0.2718
     78  CB        -8.7330   -7.2250   42.9430 C.3   180  ASP180      0.1424
     79  CG        -7.8630   -8.4650   42.9570 C.2   180  ASP180      0.3668
     80  OD1       -8.3820   -9.5590   43.2620 O.co2 180  ASP180     -0.2456
     81  OD2       -6.6570   -8.3440   42.6550 O.co2 180  ASP180     -0.2456
     82  N        -11.3640   -5.4800   43.0540 N.am  181  ASP181     -0.1974
     83  CA       -12.0760   -4.2300   43.2940 C.3   181  ASP181      0.1709
     84  C        -13.1470   -4.4410   44.3560 C.2   181  ASP181      0.2293
     85  O        -13.2960   -3.6310   45.2670 O.2   181  ASP181     -0.2864
     86  CB       -12.7060   -3.7030   42.0030 C.3   181  ASP181      0.1436
     87  CG       -11.6720   -3.2520   40.9900 C.2   181  ASP181      0.3671
     88  OD1      -10.4790   -3.5690   41.1740 O.co2 181  ASP181     -0.2456
     89  OD2      -12.0530   -2.5830   40.0070 O.co2 181  ASP181     -0.2456
@<TRIPOS>BOND
     1    26    25    1
     2    10    11    1
     3    14    11    1
     4    14    15    1
     5    27    25    1
     6     4     3    2
     7    11    12    1
     8    25    22    1
     9     3     2    1
    10    21    12   am
    11    21    22    1
    12    15    17   ar
    13    15    16   ar
    14    17    19   ar
    15    12    13    2
    16    22    23    1
    17    16    18   ar
    18    19    20   ar
    19    23    24    2
    20     2     5    1
    21     2     1    1
    22     5     6    1
    23    18    20   ar
    24     8     7   ar
    25     6     7    1
    26     7     9   ar
    27    54    53    2
    28    65    62    1
    29    65    66    1
    30    62    63    1
    31    62    61    1
    32    68    66   ar
    33    73    70    1
    34    69    63   am
    35    69    70    1
    36    53    61   am
    37    53    52    1
    38    66    67   ar
    39    55    52    1
    40    55    56    1
    41    63    64    2
    42    70    71    1
    43    52    51    1
    44    42    40    1
    45    56    58   ar
    46    56    57   ar
    47    89    87   ar
    48    58    60   ar
    49    57    59   ar
    50    71    72    2
    51    60    59   ar
    52    87    88   ar
    53    87    86    1
    54    40    37    1
    55    40    41    1
    56    37    36    1
    57    37    38    1
    58    34    33   ar
    59    35    33   ar
    60    86    83    1
    61    33    32    1
    62    81    79   ar
    63    38    39    2
    64    74    75    1
    65    78    79    1
    66    78    75    1
    67    79    80   ar
    68    82    83    1
    69    82    76   am
    70    30    31    2
    71    30    29    1
    72    83    84    1
    73    50    48    1
    74    75    76    1
    75    32    29    1
    76    28    29    1
    77    76    77    2
    78    48    47    1
    79    84    85    2
    80    43    44    1
    81    47    44    1
    82    47    49    1
    83    44    45    1
    84    45    46    2
