@<TRIPOS>MOLECULE
tmp/5dk6A00.pdb
 111 103 0 0 0
SMALL
GASTEIGER

@<TRIPOS>ATOM
      1  N         30.6280   46.2980   45.3120 N.3    79  SER79      -0.1202
      2  CA        29.2350   46.6870   45.3610 C.3    79  SER79       0.2020
      3  C         28.9950   47.8800   44.4610 C.2    79  SER79       0.2619
      4  O         29.9280   48.6040   44.1180 O.2    79  SER79      -0.2717
      5  CB        28.8250   47.0120   46.7890 C.3    79  SER79       0.2103
      6  OG        29.5750   48.0990   47.2790 O.3    79  SER79      -0.2182
      7  N         27.7360   48.0750   44.0860 N.am   80  ALA80      -0.1965
      8  CA        27.3350   49.2050   43.2570 C.3    80  ALA80       0.1728
      9  C         25.8710   49.5480   43.4950 C.2    80  ALA80       0.2616
     10  O         25.0870   48.6960   43.9030 O.2    80  ALA80      -0.2715
     11  CB        27.5710   48.8860   41.7830 C.3    80  ALA80       0.0334
     12  N         25.5010   50.7900   43.2030 N.am   81  GLY81      -0.1955
     13  CA        24.1050   51.2080   43.2550 C.3    81  GLY81       0.1869
     14  C         23.3930   51.0390   41.9220 C.2    81  GLY81       0.2309
     15  O         23.8650   51.4860   40.8760 O.2    81  GLY81      -0.2863
     16  N         32.1240   57.7860   40.2420 N.3   152  GLY152     -0.1225
     17  CA        32.4520   59.1030   40.7460 C.3   152  GLY152      0.1811
     18  C         32.8660   59.0120   42.2040 C.2   152  GLY152      0.2280
     19  O         32.6850   57.9820   42.8570 O.2   152  GLY152     -0.2866
     20  N         31.4310   60.7020   44.5980 N.3   154  THR154     -0.1203
     21  CA        30.3430   60.9770   45.5280 C.3   154  THR154      0.1994
     22  C         29.4940   59.7190   45.6560 C.2   154  THR154      0.2617
     23  O         29.1660   59.0830   44.6600 O.2   154  THR154     -0.2717
     24  CB        29.4120   62.1380   45.1100 C.3   154  THR154      0.1784
     25  OG1       28.5470   61.6730   44.0830 O.3   154  THR154     -0.2211
     26  CG2       30.1690   63.3820   44.6400 C.3   154  THR154      0.0376
     27  N         29.1550   59.3550   46.8860 N.am  155  PHE155     -0.1975
     28  CA        28.1980   58.2850   47.0930 C.3   155  PHE155      0.1639
     29  C         26.8300   58.7910   46.6420 C.2   155  PHE155      0.2290
     30  O         26.3930   59.8750   47.0360 O.2   155  PHE155     -0.2864
     31  CB        28.1680   57.8350   48.5500 C.3   155  PHE155      0.0560
     32  CG        27.1860   56.7380   48.8100 C.ar  155  PHE155     -0.0200
     33  CD1       27.4980   55.4290   48.4890 C.ar  155  PHE155     -0.0042
     34  CD2       25.9450   57.0170   49.3610 C.ar  155  PHE155     -0.0042
     35  CE1       26.5940   54.4130   48.7280 C.ar  155  PHE155     -0.0003
     36  CE2       25.0330   56.0080   49.5910 C.ar  155  PHE155     -0.0003
     37  CZ        25.3610   54.7010   49.2720 C.ar  155  PHE155     -0.0000
     38  N         23.2200   59.4360   46.4130 N.3   156  THR156     -0.1218
     39  CA        22.0850   59.2730   47.3120 C.3   156  THR156      0.1862
     40  C         21.0650   60.3910   47.1230 C.2   156  THR156      0.2287
     41  O         19.8580   60.1560   47.1590 O.2   156  THR156     -0.2866
     42  CB        22.5320   59.2320   48.7850 C.3   156  THR156      0.1770
     43  OG1       21.4510   58.7650   49.6010 O.3   156  THR156     -0.2211
     44  CG2       22.9530   60.6140   49.2540 C.3   156  THR156      0.0375
     45  N         26.2070   52.3110   39.3900 N.3   173  VAL173     -0.1231
     46  CA        27.1750   53.3180   39.7450 C.3   173  VAL173      0.1692
     47  C         28.0510   52.8580   40.9200 C.2   173  VAL173      0.2591
     48  O         27.6110   52.0850   41.7650 O.2   173  VAL173     -0.2718
     49  CB        26.4600   54.6280   40.1020 C.3   173  VAL173      0.0266
     50  CG1       25.8190   54.4980   41.4790 C.3   173  VAL173      0.0020
     51  CG2       27.4380   55.7810   40.0560 C.3   173  VAL173      0.0020
     52  N         29.2970   53.3330   40.9510 N.am  174  GLU174     -0.1979
     53  CA        30.2310   53.0400   42.0340 C.3   174  GLU174      0.1602
     54  C         31.3330   54.0960   42.0750 C.2   174  GLU174      0.2287
     55  O         31.2200   55.1330   41.4280 O.2   174  GLU174     -0.2864
     56  CB        30.8280   51.6430   41.9010 C.3   174  GLU174      0.0415
     57  CG        30.9110   51.1330   40.4960 C.3   174  GLU174      0.1163
     58  CD        32.2680   51.3640   39.8970 C.2   174  GLU174      0.3649
     59  OE1       32.8220   50.4080   39.3120 O.co2 174  GLU174     -0.2457
     60  OE2       32.7860   52.4940   40.0070 O.co2 174  GLU174     -0.2457
     61  N         30.4450   43.9870   39.3560 N.3   194  ARG194     -0.1245
     62  CA        29.8730   44.5510   40.5590 C.3   194  ARG194      0.1563
     63  C         28.4410   44.1190   40.7830 C.2   194  ARG194      0.2260
     64  O         27.6790   43.9180   39.8480 O.2   194  ARG194     -0.2867
     65  CB        30.0210   46.0830   40.5370 C.3   194  ARG194      0.0307
     66  CG        31.4230   46.4290   41.0240 C.3   194  ARG194      0.0489
     67  CD        31.8600   47.8290   40.9160 C.3   194  ARG194      0.2205
     68  NE        32.2800   48.2250   42.2450 N.pl3 194  ARG194     -0.0865
     69  CZ        33.3540   48.9360   42.5480 C.cat 194  ARG194      0.5346
     70  NH1       34.1590   49.3870   41.6060 N.pl3 194  ARG194      0.1354
     71  NH2       33.6030   49.2190   43.8220 N.pl3 194  ARG194      0.1354
     72  N         24.2560   46.5770   45.7720 N.3   197  SER197     -0.1202
     73  CA        24.1030   46.6120   47.2180 C.3   197  SER197      0.2020
     74  C         22.9340   47.5040   47.6100 C.2   197  SER197      0.2618
     75  O         22.5630   47.5740   48.7720 O.2   197  SER197     -0.2717
     76  CB        25.3870   47.1110   47.8830 C.3   197  SER197      0.2103
     77  OG        25.7010   48.4280   47.4560 O.3   197  SER197     -0.2182
     78  N         22.3720   48.1940   46.6290 N.am  198  ASP198     -0.1973
     79  CA        21.2930   49.1410   46.8670 C.3   198  ASP198      0.1709
     80  C         20.8110   49.7040   45.5430 C.2   198  ASP198      0.2293
     81  O         21.5010   49.5940   44.5330 O.2   198  ASP198     -0.2864
     82  CB        21.7520   50.2840   47.7910 C.3   198  ASP198      0.1436
     83  CG        22.9930   51.0090   47.2640 C.2   198  ASP198      0.3671
     84  OD1       24.0730   50.3780   47.2540 O.co2 198  ASP198     -0.2456
     85  OD2       22.8910   52.2020   46.8730 O.co2 198  ASP198     -0.2456
     86  N         20.2620   53.1490   43.7790 N.3   200  ALA200     -0.1231
     87  CA        20.8100   54.4770   44.0450 C.3   200  ALA200      0.1694
     88  C         19.7060   55.5160   44.2900 C.2   200  ALA200      0.2592
     89  O         18.8290   55.7000   43.4500 O.2   200  ALA200     -0.2718
     90  CB        21.7050   54.9090   42.8980 C.3   200  ALA200      0.0304
     91  N         19.7650   56.1880   45.4430 N.am  201  GLY201     -0.1957
     92  CA        18.7520   57.1510   45.8450 C.3   201  GLY201      0.1869
     93  C         18.6190   57.3320   47.3560 C.2   201  GLY201      0.2309
     94  O         19.6010   57.2220   48.1060 O.2   201  GLY201     -0.2863
     95  N         19.6970   54.5100   49.9230 N.3   204  SER204     -0.1217
     96  CA        21.0140   53.9350   49.6630 C.3   204  SER204      0.1889
     97  C         21.9110   53.7070   50.8860 C.2   204  SER204      0.2288
     98  O         22.4860   52.6280   51.0010 O.2   204  SER204     -0.2866
     99  CB        21.7620   54.7980   48.6340 C.3   204  SER204      0.2089
    100  OG        21.2040   54.6030   47.3500 O.3   204  SER204     -0.2183
    101  N         22.6920   49.9250   51.5160 N.3   208  PHE208     -0.1241
    102  CA        24.0920   49.5560   51.2980 C.3   208  PHE208      0.1605
    103  C         24.6650   48.7760   52.4780 C.2   208  PHE208      0.2264
    104  O         25.2340   47.6980   52.3000 O.2   208  PHE208     -0.2867
    105  CB        24.9290   50.8130   51.0430 C.3   208  PHE208      0.0534
    106  CG        26.4230   50.5950   51.1140 C.ar  208  PHE208     -0.0203
    107  CD1       27.1270   50.1430   50.0040 C.ar  208  PHE208     -0.0042
    108  CD2       27.1290   50.8870   52.2810 C.ar  208  PHE208     -0.0042
    109  CE1       28.5040   49.9590   50.0610 C.ar  208  PHE208     -0.0003
    110  CE2       28.5070   50.7090   52.3520 C.ar  208  PHE208     -0.0003
    111  CZ        29.1980   50.2460   51.2360 C.ar  208  PHE208     -0.0000
@<TRIPOS>BOND
     1    59    58   ar
     2    61    62    1
     3    45    46    1
     4    46    49    1
     5    46    47    1
     6    64    63    2
     7    58    60   ar
     8    58    57    1
     9    51    49    1
    10    49    50    1
    11    16    17    1
    12    57    56    1
    13    65    62    1
    14    65    66    1
    15    62    63    1
    16    17    18    1
    17    15    14    2
    18    67    66    1
    19    67    68    1
    20    47    52   am
    21    47    48    2
    22    52    53    1
    23    55    54    2
    24    70    69    1
    25    11     8    1
    26    56    53    1
    27    14    13    1
    28    53    54    1
    29    18    19    2
    30    68    69    2
    31    69    71    1
    32    90    87    1
    33    12    13    1
    34    12     9   am
    35     8     9    1
    36     8     7    1
    37    89    88    2
    38     9    10    2
    39    86    87    1
    40    87    88    1
    41    25    24    1
    42     7     3   am
    43     4     3    2
    44    88    91   am
    45     3     2    1
    46    81    80    2
    47    20    21    1
    48    26    24    1
    49    23    22    2
    50    24    21    1
    51     1     2    1
    52     2     5    1
    53    91    92    1
    54    21    22    1
    55    80    79    1
    56    22    27   am
    57    72    73    1
    58    92    93    1
    59    38    39    1
    60    78    79    1
    61    78    74   am
    62    29    30    2
    63    29    28    1
    64     5     6    1
    65    79    82    1
    66    85    83   ar
    67    27    28    1
    68    28    31    1
    69    40    41    2
    70    40    39    1
    71    73    74    1
    72    73    76    1
    73    84    83   ar
    74    83    82    1
    75    39    42    1
    76   100    99    1
    77    93    94    2
    78    77    76    1
    79    74    75    2
    80    33    35   ar
    81    33    32   ar
    82    31    32    1
    83    99    96    1
    84    35    37   ar
    85    42    44    1
    86    42    43    1
    87    32    34   ar
    88    37    36   ar
    89    34    36   ar
    90    96    95    1
    91    96    97    1
    92   107   109   ar
    93   107   106   ar
    94   109   111   ar
    95    97    98    2
    96   105   106    1
    97   105   102    1
    98   106   108   ar
    99   111   110   ar
   100   102   101    1
   101   102   103    1
   102   108   110   ar
   103   104   103    2
