@<TRIPOS>MOLECULE
tmp/5dkdB00.pdb
 117 112 0 0 0
SMALL
GASTEIGER

@<TRIPOS>ATOM
      1  N         -0.1150   -5.1340   49.4200 N.3    28  VAL28      -0.1231
      2  CA        -1.3590   -4.6830   48.8680 C.3    28  VAL28       0.1692
      3  C         -1.4740   -3.1430   48.7360 C.2    28  VAL28       0.2592
      4  O         -2.3470   -2.6490   48.0330 O.2    28  VAL28      -0.2718
      5  CB        -2.5350   -5.3330   49.5940 C.3    28  VAL28       0.0266
      6  CG1       -2.8320   -4.6650   50.9220 C.3    28  VAL28       0.0020
      7  CG2       -3.7630   -5.3830   48.6920 C.3    28  VAL28       0.0020
      8  N         -0.6020   -2.3980   49.4250 N.am   29  PHE29      -0.1976
      9  CA        -0.6990   -0.9850   49.5130 C.3    29  PHE29       0.1639
     10  C          0.2380   -0.2950   48.5110 C.2    29  PHE29       0.2290
     11  O          0.2910    0.9230   48.4770 O.2    29  PHE29      -0.2864
     12  CB        -0.3500   -0.5360   50.9140 C.3    29  PHE29       0.0560
     13  CG        -1.2410   -1.1160   51.9780 C.ar   29  PHE29      -0.0200
     14  CD1       -2.5870   -0.8150   52.0190 C.ar   29  PHE29      -0.0042
     15  CD2       -0.7500   -2.0290   52.8760 C.ar   29  PHE29      -0.0042
     16  CE1       -3.4230   -1.4000   52.9620 C.ar   29  PHE29      -0.0003
     17  CE2       -1.5770   -2.6110   53.8310 C.ar   29  PHE29      -0.0003
     18  CZ        -2.9190   -2.2490   53.9100 C.ar   29  PHE29      -0.0000
     19  N         -2.8470    1.0840   44.3250 N.3    32  LEU32      -0.1231
     20  CA        -4.3030    1.0270   44.3940 C.3    32  LEU32       0.1678
     21  C         -4.8660    0.4340   43.0980 C.2    32  LEU32       0.2434
     22  O         -4.3200    0.7020   42.0250 O.2    32  LEU32      -0.2733
     23  CB        -4.8970    2.4410   44.5900 C.3    32  LEU32       0.0284
     24  CG        -5.1180    2.8930   46.0250 C.3    32  LEU32       0.0019
     25  CD1       -5.3740    4.3890   46.0630 C.3    32  LEU32       0.0001
     26  CD2       -6.2830    2.1230   46.6400 C.3    32  LEU32       0.0001
     27  N         -5.9510   -0.3550   43.1890 N.am   33  PRO33      -0.2729
     28  CA        -6.6560   -0.7070   41.9490 C.3    33  PRO33       0.1401
     29  C         -7.0640    0.5700   41.2070 C.2    33  PRO33       0.2269
     30  O         -7.3060    1.6080   41.8650 O.2    33  PRO33      -0.2865
     31  CB        -7.8960   -1.4750   42.4490 C.3    33  PRO33       0.0296
     32  CG        -7.5030   -1.9720   43.8030 C.3    33  PRO33       0.0237
     33  CD        -6.6320   -0.8960   44.3780 C.3    33  PRO33       0.0939
     34  N        -11.1990   -0.4830   37.8280 N.3    37  GLU37      -0.1231
     35  CA       -11.2360   -1.7500   38.5450 C.3    37  GLU37       0.1699
     36  C        -12.0990   -1.6490   39.8130 C.2    37  GLU37       0.2592
     37  O        -12.7580   -2.6090   40.2000 O.2    37  GLU37      -0.2718
     38  CB        -9.8040   -2.1660   38.9130 C.3    37  GLU37       0.0402
     39  CG        -8.9090   -2.5350   37.7420 C.3    37  GLU37       0.1161
     40  CD        -7.4430   -2.7940   38.1180 C.2    37  GLU37       0.3649
     41  OE1       -7.0130   -2.4990   39.2590 O.co2  37  GLU37      -0.2457
     42  OE2       -6.7130   -3.3310   37.2580 O.co2  37  GLU37      -0.2457
     43  N        -12.0690   -0.4910   40.4690 N.am   38  LEU38      -0.1980
     44  CA       -12.6360   -0.3620   41.8120 C.3    38  LEU38       0.1596
     45  C        -13.2140    1.0320   42.0400 C.2    38  LEU38       0.2287
     46  O        -12.6870    1.8240   42.8440 O.2    38  LEU38      -0.2864
     47  CB       -11.5520   -0.6800   42.8550 C.3    38  LEU38       0.0297
     48  CG       -12.0300   -0.8750   44.2940 C.3    38  LEU38       0.0022
     49  CD1      -12.9270   -2.1090   44.4150 C.3    38  LEU38       0.0001
     50  CD2      -10.8620   -0.9930   45.2470 C.3    38  LEU38       0.0001
     51  N        -13.9480    2.5420   45.6720 N.3    41  TYR41      -0.1241
     52  CA       -12.8470    3.1580   46.4130 C.3    41  TYR41       0.1605
     53  C        -12.8220    4.6730   46.2340 C.2    41  TYR41       0.2264
     54  O        -12.6610    5.4150   47.1960 O.2    41  TYR41      -0.2867
     55  CB       -11.4720    2.5630   46.0130 C.3    41  TYR41       0.0534
     56  CG       -10.3920    2.8790   47.0130 C.ar   41  TYR41      -0.0201
     57  CD1       -9.6900    4.0750   46.9480 C.ar   41  TYR41      -0.0009
     58  CD2      -10.0900    1.9880   48.0600 C.ar   41  TYR41      -0.0009
     59  CE1       -8.6990    4.3770   47.8620 C.ar   41  TYR41       0.0417
     60  CE2       -9.0950    2.2960   49.0010 C.ar   41  TYR41       0.0417
     61  CZ        -8.4370    3.5130   48.9130 C.ar   41  TYR41       0.1957
     62  OH        -7.4710    3.8760   49.7980 O.3    41  TYR41      -0.2866
     63  N         -4.2500    7.4310   48.1460 N.3    49  VAL49      -0.1231
     64  CA        -2.8220    7.4760   48.1310 C.3    49  VAL49       0.1692
     65  C         -2.3080    6.0470   48.3210 C.2    49  VAL49       0.2592
     66  O         -2.9220    5.2340   49.0290 O.2    49  VAL49      -0.2718
     67  CB        -2.2780    8.4750   49.1810 C.3    49  VAL49       0.0266
     68  CG1       -2.7530    8.1370   50.5760 C.3    49  VAL49       0.0020
     69  CG2       -0.7650    8.5180   49.1280 C.3    49  VAL49       0.0020
     70  N         -1.2580    5.7080   47.5760 N.am   50  ASP50      -0.1974
     71  CA        -0.6420    4.3950   47.7140 C.3    50  ASP50       0.1709
     72  C          0.8950    4.5790   47.8160 C.2    50  ASP50       0.2293
     73  O          1.3890    5.6830   47.6880 O.2    50  ASP50      -0.2864
     74  CB        -1.1210    3.4700   46.6010 C.3    50  ASP50       0.1436
     75  CG        -0.9520    4.0570   45.1910 C.2    50  ASP50       0.3671
     76  OD1       -0.1010    4.9540   44.9980 O.co2  50  ASP50      -0.2456
     77  OD2       -1.5920    3.5050   44.2420 O.co2  50  ASP50      -0.2456
     78  N         -2.6670    7.0950   54.0860 N.3    76  LEU76      -0.1245
     79  CA        -2.8400    5.8270   53.3880 C.3    76  LEU76       0.1561
     80  C         -3.4810    4.8250   54.3660 C.2    76  LEU76       0.2260
     81  O         -4.4120    4.1650   54.0600 O.2    76  LEU76      -0.2867
     82  CB        -1.4580    5.3070   52.9070 C.3    76  LEU76       0.0270
     83  CG        -1.3850    4.0740   52.0140 C.3    76  LEU76       0.0019
     84  CD1       -0.0280    4.0780   51.3080 C.3    76  LEU76       0.0001
     85  CD2       -1.5780    2.7680   52.7610 C.3    76  LEU76       0.0001
     86  N         -7.1710    3.0500   54.2040 N.3    80  ALA80      -0.1245
     87  CA        -7.3810    1.5890   54.2320 C.3    80  ALA80       0.1562
     88  C         -8.3460    1.1760   55.3100 C.2    80  ALA80       0.2260
     89  O         -9.1210    0.2440   55.0930 O.2    80  ALA80      -0.2867
     90  CB        -6.0680    0.8350   54.4100 C.3    80  ALA80       0.0290
     91  N        -12.0320    2.2010   53.9980 N.3    83  PHE83      -0.1227
     92  CA       -12.5190    1.3240   52.9210 C.3    83  PHE83       0.1736
     93  C        -12.7540   -0.1200   53.3190 C.2    83  PHE83       0.2595
     94  O        -13.7480   -0.7230   52.8920 O.2    83  PHE83      -0.2718
     95  CB       -11.5890    1.3610   51.6870 C.3    83  PHE83       0.0547
     96  CG       -12.1260    0.5640   50.5190 C.ar   83  PHE83      -0.0202
     97  CD1      -13.2590    0.9960   49.8290 C.ar   83  PHE83      -0.0042
     98  CD2      -11.5500   -0.6340   50.1460 C.ar   83  PHE83      -0.0042
     99  CE1      -13.7930    0.2440   48.7910 C.ar   83  PHE83      -0.0003
    100  CE2      -12.0920   -1.4010   49.1270 C.ar   83  PHE83      -0.0003
    101  CZ       -13.2150   -0.9520   48.4390 C.ar   83  PHE83      -0.0000
    102  N        -11.8460   -0.7010   54.1080 N.am   84  ASN84      -0.1974
    103  CA       -11.9120   -2.1150   54.4340 C.3    84  ASN84       0.1688
    104  C        -12.5160   -2.2980   55.8190 C.2    84  ASN84       0.2292
    105  O        -12.4570   -1.4200   56.6240 O.2    84  ASN84      -0.2864
    106  CB       -10.5090   -2.7670   54.3820 C.3    84  ASN84       0.1181
    107  CG        -9.8440   -2.5980   53.0280 C.2    84  ASN84       0.2629
    108  OD1      -10.0590   -3.3700   52.0930 O.2    84  ASN84      -0.2716
    109  ND2       -9.0070   -1.5710   52.9160 N.am   84  ASN84      -0.0877
    110  N         -6.4410   -6.8960   55.8280 N.3    90  ILE90      -0.1245
    111  CA        -5.8790   -5.7010   55.1820 C.3    90  ILE90       0.1561
    112  C         -5.9810   -4.5250   56.1350 C.2    90  ILE90       0.2260
    113  O         -5.0560   -3.7400   56.3010 O.2    90  ILE90      -0.2867
    114  CB        -6.5710   -5.4060   53.8230 C.3    90  ILE90       0.0252
    115  CG1       -6.0820   -4.0670   53.2590 C.3    90  ILE90       0.0019
    116  CG2       -8.1250   -5.3660   53.9370 C.3    90  ILE90       0.0019
    117  CD1       -6.2840   -3.9190   51.7490 C.3    90  ILE90       0.0001
@<TRIPOS>BOND
     1    42    40   ar
     2    39    40    1
     3    39    38    1
     4    34    35    1
     5    40    41   ar
     6    35    38    1
     7    35    36    1
     8    36    37    2
     9    36    43   am
    10    43    44    1
    11    29    30    2
    12    29    28    1
    13    44    45    1
    14    44    47    1
    15    28    31    1
    16    28    27    1
    17    22    21    2
    18    45    46    2
    19    31    32    1
    20    47    48    1
    21    21    27   am
    22    21    20    1
    23    27    33    1
    24    32    33    1
    25    77    75   ar
    26    48    49    1
    27    48    50    1
    28    19    20    1
    29    20    23    1
    30    23    24    1
    31    76    75   ar
    32    75    74    1
    33    51    52    1
    34    55    52    1
    35    55    56    1
    36    24    25    1
    37    24    26    1
    38    53    52    1
    39    53    54    2
    40    74    71    1
    41    57    56   ar
    42    57    59   ar
    43    56    58   ar
    44    70    71    1
    45    70    65   am
    46    73    72    2
    47    71    72    1
    48    59    61   ar
    49     4     3    2
    50    58    60   ar
    51    64    63    1
    52    64    65    1
    53    64    67    1
    54    65    66    2
    55   101    99   ar
    56   101   100   ar
    57    11    10    2
    58    10     9    1
    59     7     5    1
    60     3     2    1
    61     3     8   am
    62    99    97   ar
    63     2     1    1
    64     2     5    1
    65    61    60   ar
    66    61    62    1
    67   100    98   ar
    68    69    67    1
    69    67    68    1
    70     8     9    1
    71     9    12    1
    72     5     6    1
    73    97    96   ar
    74    98    96   ar
    75    96    95    1
    76    12    13    1
    77    84    83    1
    78    95    92    1
    79   117   115    1
    80    13    14   ar
    81    13    15   ar
    82    83    85    1
    83    83    82    1
    84    14    16   ar
    85   108   107    2
    86    15    17   ar
    87    94    93    2
    88    82    79    1
    89   109   107   am
    90    92    93    1
    91    92    91    1
    92    16    18   ar
    93   107   106    1
    94   115   114    1
    95    93   102   am
    96    79    78    1
    97    79    80    1
    98   114   116    1
    99   114   111    1
   100    17    18   ar
   101    81    80    2
   102   102   103    1
   103    86    87    1
   104    87    90    1
   105    87    88    1
   106   106   103    1
   107   103   104    1
   108    89    88    2
   109   111   110    1
   110   111   112    1
   111   104   105    2
   112   112   113    2
