@<TRIPOS>MOLECULE
tmp/5dkeA01.pdb
 214 202 0 0 0
SMALL
GASTEIGER

@<TRIPOS>ATOM
      1  N         26.6260    4.6000    6.2310 N.3    29  MET29      -0.1245
      2  CA        26.5040    6.0040    6.6080 C.3    29  MET29       0.1570
      3  C         27.2190    6.9050    5.6100 C.2    29  MET29       0.2261
      4  O         26.8830    8.0790    5.4770 O.2    29  MET29      -0.2867
      5  CB        27.0590    6.2360    8.0130 C.3    29  MET29       0.0387
      6  CG        26.1510    5.7460    9.1250 C.3    29  MET29       0.0595
      7  SD        24.5870    6.6430    9.1820 S.3    29  MET29      -0.1393
      8  CE        25.1720    8.3100    9.4660 C.3    29  MET29       0.0692
      9  N         24.7640    7.4650    2.7580 N.3    32  LEU32      -0.1231
     10  CA        23.6840    8.2880    3.2900 C.3    32  LEU32       0.1693
     11  C         24.1510    9.7160    3.5590 C.2    32  LEU32       0.2592
     12  O         23.3810   10.6640    3.4090 O.2    32  LEU32      -0.2718
     13  CB        23.1190    7.6690    4.5730 C.3    32  LEU32       0.0284
     14  CG        22.4700    6.2880    4.4670 C.3    32  LEU32       0.0019
     15  CD1       21.7860    5.9100    5.7730 C.3    32  LEU32       0.0001
     16  CD2       21.4860    6.2440    3.3110 C.3    32  LEU32       0.0001
     17  N         25.4100    9.8640    3.9600 N.am   33  THR33      -0.1953
     18  CA        25.9870   11.1820    4.2030 C.3    33  THR33       0.1897
     19  C         26.1810   11.9280    2.8900 C.2    33  THR33       0.2313
     20  O         25.8250   13.1020    2.7710 O.2    33  THR33      -0.2863
     21  CB        27.3370   11.0850    4.9400 C.3    33  THR33       0.1794
     22  OG1       27.1190   10.6220    6.2790 O.3    33  THR33      -0.2208
     23  CG2       28.0300   12.4360    4.9830 C.3    33  THR33       0.0378
     24  N         24.6490   11.4110    0.0070 N.3    35  LEU35      -0.1231
     25  CA        23.3320   11.7400   -0.5210 C.3    35  LEU35       0.1693
     26  C         22.7350   12.9390    0.2080 C.2    35  LEU35       0.2591
     27  O         22.2740   13.8900   -0.4230 O.2    35  LEU35      -0.2718
     28  CB        22.3970   10.5340   -0.4130 C.3    35  LEU35       0.0284
     29  CG        20.9300   10.7560   -0.7830 C.3    35  LEU35       0.0019
     30  CD1       20.8010   11.2970   -2.1980 C.3    35  LEU35       0.0001
     31  CD2       20.1450    9.4630   -0.6270 C.3    35  LEU35       0.0001
     32  N         22.7550   12.8900    1.5370 N.am   36  ALA36      -0.1980
     33  CA        22.2340   13.9780    2.3580 C.3    36  ALA36       0.1597
     34  C         22.9230   15.2970    2.0320 C.2    36  ALA36       0.2287
     35  O         22.2680   16.3260    1.8710 O.2    36  ALA36      -0.2864
     36  CB        22.3960   13.6530    3.8330 C.3    36  ALA36       0.0319
     37  N         21.7210   16.5880   -1.1440 N.3    39  GLU39      -0.1245
     38  CA        20.3250   16.9820   -0.9810 C.3    39  GLU39       0.1567
     39  C         20.2040   18.3430   -0.3060 C.2    39  GLU39       0.2260
     40  O         19.3160   19.1300   -0.6330 O.2    39  GLU39      -0.2867
     41  CB        19.5570   15.9390   -0.1660 C.3    39  GLU39       0.0388
     42  CG        19.2640   14.6440   -0.8970 C.3    39  GLU39       0.1160
     43  CD        18.4950   13.6630   -0.0330 C.2    39  GLU39       0.3649
     44  OE1       19.0610   13.1840    0.9720 O.co2  39  GLU39      -0.2457
     45  OE2       17.3220   13.3790   -0.3520 O.co2  39  GLU39      -0.2457
     46  N         16.7010   20.8930    8.9100 N.3    69  TRP69      -0.1227
     47  CA        17.2960   20.2180    7.7550 C.3    69  TRP69       0.1737
     48  C         17.1450   18.6940    7.7780 C.2    69  TRP69       0.2595
     49  O         16.8580   18.0900    6.7450 O.2    69  TRP69      -0.2718
     50  CB        18.7760   20.5930    7.6220 C.3    69  TRP69       0.0564
     51  CG        19.6500   20.1010    8.7270 C.ar   69  TRP69       0.0003
     52  CD1       19.9720   20.7630    9.8740 C.ar   69  TRP69       0.0946
     53  CD2       20.3330   18.8440    8.7830 C.ar   69  TRP69       0.0152
     54  NE1       20.8100   19.9940   10.6450 N.ar   69  TRP69      -0.2442
     55  CE2       21.0450   18.8100    9.9980 C.ar   69  TRP69       0.0810
     56  CE3       20.4080   17.7410    7.9250 C.ar   69  TRP69       0.0012
     57  CZ2       21.8230   17.7160   10.3770 C.ar   69  TRP69       0.0191
     58  CZ3       21.1790   16.6570    8.3030 C.ar   69  TRP69       0.0001
     59  CH2       21.8770   16.6530    9.5180 C.ar   69  TRP69       0.0015
     60  N         17.3140   18.0730    8.9410 N.am   70  LEU70      -0.1980
     61  CA        17.1790   16.6210    9.0280 C.3    70  LEU70       0.1596
     62  C         15.7100   16.2050    9.0320 C.2    70  LEU70       0.2287
     63  O         15.3500   15.1740    8.4630 O.2    70  LEU70      -0.2864
     64  CB        17.8890   16.0760   10.2690 C.3    70  LEU70       0.0297
     65  CG        17.9010   14.5470   10.3780 C.3    70  LEU70       0.0022
     66  CD1       18.3880   13.9220    9.0800 C.3    70  LEU70       0.0001
     67  CD2       18.7560   14.0830   11.5460 C.3    70  LEU70       0.0001
     68  N         14.6650   16.3800    5.4680 N.3    73  LEU73      -0.1231
     69  CA        15.2550   15.2460    4.7640 C.3    73  LEU73       0.1693
     70  C         14.4680   13.9680    5.0400 C.2    73  LEU73       0.2591
     71  O         14.2730   13.1420    4.1490 O.2    73  LEU73      -0.2718
     72  CB        16.7210   15.0590    5.1660 C.3    73  LEU73       0.0284
     73  CG        17.7650   15.9340    4.4680 C.3    73  LEU73       0.0019
     74  CD1       19.1730   15.5510    4.9040 C.3    73  LEU73       0.0001
     75  CD2       17.6280   15.8400    2.9570 C.3    73  LEU73       0.0001
     76  N         14.0020   13.8180    6.2760 N.am   74  MET74      -0.1979
     77  CA        13.2960   12.6080    6.6770 C.3    74  MET74       0.1605
     78  C         11.8750   12.5340    6.1150 C.2    74  MET74       0.2287
     79  O         11.4320   11.4620    5.7090 O.2    74  MET74      -0.2864
     80  CB        13.2700   12.4910    8.2030 C.3    74  MET74       0.0413
     81  CG        14.6010   12.0490    8.8040 C.3    74  MET74       0.0598
     82  SD        14.5420   11.8140   10.5910 S.3    74  MET74      -0.1393
     83  CE        16.1600   11.1100   10.8970 C.3    74  MET74       0.0692
     84  N         12.2170   11.4440    2.4910 N.3    77  LEU77      -0.1245
     85  CA        12.4730   10.0080    2.4350 C.3    77  LEU77       0.1561
     86  C         11.2080    9.1980    2.6950 C.2    77  LEU77       0.2260
     87  O         10.9040    8.2460    1.9750 O.2    77  LEU77      -0.2867
     88  CB        13.5490    9.6250    3.4530 C.3    77  LEU77       0.0270
     89  CG        13.6530    8.1360    3.7880 C.3    77  LEU77       0.0019
     90  CD1       14.2110    7.3520    2.6110 C.3    77  LEU77       0.0001
     91  CD2       14.4920    7.9180    5.0340 C.3    77  LEU77       0.0001
     92  N          8.6570    9.4470   -0.3330 N.3    80  ARG80      -0.1245
     93  CA         8.9720    8.6860   -1.5370 C.3    80  ARG80       0.1563
     94  C          9.1340    7.1960   -1.2470 C.2    80  ARG80       0.2260
     95  O          9.4250    6.4120   -2.1480 O.2    80  ARG80      -0.2867
     96  CB        10.2370    9.2380   -2.2030 C.3    80  ARG80       0.0307
     97  CG        11.4820    9.2290   -1.3300 C.3    80  ARG80       0.0489
     98  CD        12.6500    9.8960   -2.0500 C.3    80  ARG80       0.2205
     99  NE        13.9110    9.7500   -1.3260 N.pl3  80  ARG80      -0.0865
    100  CZ        14.4150   10.6660   -0.5060 C.cat  80  ARG80       0.5346
    101  NH1       13.7670   11.8060   -0.3020 N.pl3  80  ARG80       0.1354
    102  NH2       15.5700   10.4450    0.1080 N.pl3  80  ARG80       0.1354
    103  N         15.7440    5.9820   -0.1590 N.3    90  PHE90      -0.1241
    104  CA        16.6620    7.1150   -0.0680 C.3    90  PHE90       0.1605
    105  C         16.9400    7.6630   -1.4580 C.2    90  PHE90       0.2264
    106  O         17.1280    8.8640   -1.6490 O.2    90  PHE90      -0.2867
    107  CB        17.9770    6.7060    0.6000 C.3    90  PHE90       0.0534
    108  CG        17.8270    6.2670    2.0260 C.ar   90  PHE90      -0.0203
    109  CD1       17.9990    7.1700    3.0630 C.ar   90  PHE90      -0.0042
    110  CD2       17.5220    4.9520    2.3320 C.ar   90  PHE90      -0.0042
    111  CE1       17.8670    6.7700    4.3780 C.ar   90  PHE90      -0.0003
    112  CE2       17.3870    4.5450    3.6450 C.ar   90  PHE90      -0.0003
    113  CZ        17.5600    5.4550    4.6700 C.ar   90  PHE90      -0.0000
    114  N         25.6440   -0.5790   11.8400 N.3   104  VAL104     -0.1231
    115  CA        25.8260    0.7970   12.2940 C.3   104  VAL104      0.1692
    116  C         24.8030    1.1580   13.3830 C.2   104  VAL104      0.2592
    117  O         23.6250    0.8000   13.2980 O.2   104  VAL104     -0.2718
    118  CB        25.7220    1.7780   11.1120 C.3   104  VAL104      0.0266
    119  CG1       24.6110    1.3510   10.1880 C.3   104  VAL104      0.0020
    120  CG2       25.5170    3.2020   11.6050 C.3   104  VAL104      0.0020
    121  N         25.2700    1.8570   14.4150 N.am  105  GLU105     -0.1966
    122  CA        24.4700    2.1210   15.6090 C.3   105  GLU105      0.1733
    123  C         23.2860    3.0530   15.3480 C.2   105  GLU105      0.2617
    124  O         23.4010    4.0500   14.6330 O.2   105  GLU105     -0.2715
    125  CB        25.3640    2.6990   16.7170 C.3   105  GLU105      0.0429
    126  CG        24.7570    2.6600   18.1190 C.3   105  GLU105      0.1163
    127  CD        25.8170    2.7160   19.2170 C.2   105  GLU105      0.3649
    128  OE1       26.7000    3.5950   19.1510 O.co2 105  GLU105     -0.2457
    129  OE2       25.7690    1.8670   20.1290 O.co2 105  GLU105     -0.2457
    130  N         22.1420    2.7010   15.9280 N.am  106  GLY106     -0.1940
    131  CA        20.9480    3.5270   15.8770 C.3   106  GLY106      0.2014
    132  C         20.1740    3.5310   14.5720 C.2   106  GLY106      0.2638
    133  O         19.0570    4.0430   14.5200 O.2   106  GLY106     -0.2714
    134  N         20.7540    2.9650   13.5180 N.am  107  MET107     -0.1976
    135  CA        20.1320    3.0170   12.1970 C.3   107  MET107      0.1605
    136  C         18.8620    2.1740   12.1040 C.2   107  MET107      0.2287
    137  O         17.8760    2.5990   11.5060 O.2   107  MET107     -0.2864
    138  CB        21.1240    2.5740   11.1180 C.3   107  MET107      0.0413
    139  CG        20.5430    2.6070    9.7110 C.3   107  MET107      0.0598
    140  SD        21.7040    2.1180    8.4260 S.3   107  MET107     -0.1393
    141  CE        22.7770    3.5470    8.3710 C.3   107  MET107      0.0692
    142  N         16.0800    3.9160   13.9830 N.3   110  ILE110     -0.1231
    143  CA        15.5930    5.0520   13.2130 C.3   110  ILE110      0.1692
    144  C         14.8440    4.5780   11.9680 C.2   110  ILE110      0.2592
    145  O         13.8440    5.1790   11.5710 O.2   110  ILE110     -0.2718
    146  CB        16.7550    5.9890   12.8170 C.3   110  ILE110      0.0266
    147  CG1       17.3170    6.6780   14.0620 C.3   110  ILE110      0.0019
    148  CG2       16.3020    7.0320   11.8100 C.3   110  ILE110      0.0020
    149  CD1       18.4840    7.5900   13.7780 C.3   110  ILE110      0.0001
    150  N         15.3220    3.4900   11.3680 N.am  111  PHE111     -0.1976
    151  CA        14.6590    2.8970   10.2080 C.3   111  PHE111      0.1639
    152  C         13.2390    2.4530   10.5400 C.2   111  PHE111      0.2290
    153  O         12.3090    2.7050    9.7740 O.2   111  PHE111     -0.2864
    154  CB        15.4560    1.7050    9.6730 C.3   111  PHE111      0.0560
    155  CG        16.4980    2.0750    8.6570 C.ar  111  PHE111     -0.0200
    156  CD1       16.9830    3.3710    8.5760 C.ar  111  PHE111     -0.0042
    157  CD2       16.9800    1.1280    7.7690 C.ar  111  PHE111     -0.0042
    158  CE1       17.9370    3.7090    7.6360 C.ar  111  PHE111     -0.0003
    159  CE2       17.9330    1.4600    6.8260 C.ar  111  PHE111     -0.0003
    160  CZ        18.4120    2.7520    6.7590 C.ar  111  PHE111     -0.0000
    161  N         11.0820    5.5220   10.7770 N.3   114  LEU114     -0.1245
    162  CA        10.8600    6.0680    9.4410 C.3   114  LEU114      0.1561
    163  C          9.8860    5.2010    8.6520 C.2   114  LEU114      0.2260
    164  O          9.0430    5.7120    7.9150 O.2   114  LEU114     -0.2867
    165  CB        12.1830    6.1960    8.6850 C.3   114  LEU114      0.0270
    166  CG        13.1430    7.2760    9.1830 C.3   114  LEU114      0.0019
    167  CD1       14.5200    7.0890    8.5710 C.3   114  LEU114      0.0001
    168  CD2       12.5980    8.6610    8.8690 C.3   114  LEU114      0.0001
    169  N         18.2670   11.1110   15.2920 N.3   194  GLY194     -0.1225
    170  CA        19.1940   11.0880   14.1780 C.3   194  GLY194      0.1811
    171  C         20.4330   11.9200   14.4470 C.2   194  GLY194      0.2280
    172  O         21.5550   11.4420   14.2880 O.2   194  GLY194     -0.2866
    173  N         22.6830   10.4920   17.4110 N.3   197  HIS197     -0.1226
    174  CA        23.5850    9.4430   16.9530 C.3   197  HIS197      0.1752
    175  C         24.6540   10.0030   16.0230 C.2   197  HIS197      0.2595
    176  O         25.8160    9.6080   16.0970 O.2   197  HIS197     -0.2718
    177  CB        22.8040    8.3370   16.2470 C.3   197  HIS197      0.0759
    178  CG        22.1620    7.3620   17.1820 C.ar  197  HIS197      0.0818
    179  ND1       22.7400    6.1550   17.5070 N.ar  197  HIS197     -0.2268
    180  CD2       20.9930    7.4160   17.8630 C.ar  197  HIS197      0.1154
    181  CE1       21.9550    5.5050   18.3470 C.ar  197  HIS197      0.1986
    182  NE2       20.8880    6.2480   18.5800 N.ar  197  HIS197     -0.2212
    183  N         24.2520   10.9220   15.1510 N.am  198  LEU198     -0.1980
    184  CA        25.1750   11.5860   14.2400 C.3   198  LEU198      0.1596
    185  C         26.3350   12.2410   14.9810 C.2   198  LEU198      0.2287
    186  O         27.4980   12.0470   14.6230 O.2   198  LEU198     -0.2864
    187  CB        24.4300   12.6300   13.4070 C.3   198  LEU198      0.0297
    188  CG        24.2260   12.2980   11.9270 C.3   198  LEU198      0.0022
    189  CD1       23.8740   10.8280   11.7300 C.3   198  LEU198      0.0001
    190  CD2       23.1590   13.1960   11.3140 C.3   198  LEU198      0.0001
    191  N         28.6640    9.3830   16.6580 N.3   201  MET201     -0.1245
    192  CA        29.5990    8.7150   15.7600 C.3   201  MET201      0.1570
    193  C         30.4970    9.7270   15.0520 C.2   201  MET201      0.2261
    194  O         31.4150    9.3500   14.3280 O.2   201  MET201     -0.2867
    195  CB        28.8560    7.8420   14.7420 C.3   201  MET201      0.0387
    196  CG        27.7690    8.5440   13.9530 C.3   201  MET201      0.0595
    197  SD        26.8430    7.3870   12.9190 S.3   201  MET201     -0.1393
    198  CE        26.4730    6.0960   14.1060 C.3   201  MET201      0.0692
    199  N         31.5000   13.1140    8.0260 N.3   209  LEU209     -0.1245
    200  CA        30.4710   14.0610    7.6140 C.3   209  LEU209      0.1561
    201  C         31.0950   15.2010    6.8190 C.2   209  LEU209      0.2260
    202  O         32.1690   15.6900    7.1670 O.2   209  LEU209     -0.2867
    203  CB        29.7260   14.6160    8.8300 C.3   209  LEU209      0.0270
    204  CG        29.1150   13.6080    9.8030 C.3   209  LEU209      0.0019
    205  CD1       28.4080   14.3280   10.9410 C.3   209  LEU209      0.0001
    206  CD2       28.1610   12.6680    9.0850 C.3   209  LEU209      0.0001
    207  N         27.4870   19.2980    6.6000 N.3   213  LEU213     -0.1245
    208  CA        26.8550   18.4850    7.6360 C.3   213  LEU213      0.1561
    209  C         27.4980   18.7150    8.9990 C.2   213  LEU213      0.2260
    210  O         26.8280   18.6310   10.0270 O.2   213  LEU213     -0.2867
    211  CB        26.9160   16.9990    7.2770 C.3   213  LEU213      0.0270
    212  CG        25.7580   16.4530    6.4390 C.3   213  LEU213      0.0019
    213  CD1       25.7360   17.0900    5.0670 C.3   213  LEU213      0.0001
    214  CD2       25.8480   14.9480    6.3190 C.3   213  LEU213      0.0001
@<TRIPOS>BOND
     1    96    93    1
     2    96    97    1
     3    30    29    1
     4    95    94    2
     5    98    97    1
     6    98    99    1
     7   106   105    2
     8    93    94    1
     9    93    92    1
    10   105   104    1
    11    99   100    2
    12    37    38    1
    13    38    39    1
    14    38    41    1
    15    42    41    1
    16    42    43    1
    17    29    31    1
    18    29    28    1
    19    40    39    2
    20    25    28    1
    21    25    24    1
    22    25    26    1
    23   100   101    1
    24   100   102    1
    25    27    26    2
    26    45    43   ar
    27   103   104    1
    28   104   107    1
    29    43    44   ar
    30    26    32   am
    31   107   108    1
    32    32    33    1
    33    35    34    2
    34    87    86    2
    35   108   110   ar
    36   108   109   ar
    37    34    33    1
    38   110   112   ar
    39    33    36    1
    40    85    84    1
    41    85    86    1
    42    85    88    1
    43    90    89    1
    44     9    10    1
    45    20    19    2
    46    19    18    1
    47    75    73    1
    48   109   111   ar
    49    10    11    1
    50    10    13    1
    51    16    14    1
    52    12    11    2
    53    88    89    1
    54    11    17   am
    55   112   113   ar
    56    89    91    1
    57    17    18    1
    58    71    70    2
    59    18    21    1
    60   111   113   ar
    61    14    13    1
    62    14    15    1
    63    73    74    1
    64    73    72    1
    65    69    70    1
    66    69    72    1
    67    69    68    1
    68    21    23    1
    69    21    22    1
    70    70    76   am
    71   213   212    1
    72     4     3    2
    73     3     2    1
    74    79    78    2
    75    78    77    1
    76     1     2    1
    77    76    77    1
    78   214   212    1
    79   212   211    1
    80   207   208    1
    81     2     5    1
    82    77    80    1
    83    49    48    2
    84   160   159   ar
    85   160   158   ar
    86   201   202    2
    87   201   200    1
    88   159   157   ar
    89   211   208    1
    90   200   199    1
    91   200   203    1
    92    50    47    1
    93    50    51    1
    94   158   156   ar
    95   208   209    1
    96    47    48    1
    97    47    46    1
    98   157   155   ar
    99    48    60   am
   100   164   163    2
   101    56    58   ar
   102    56    53   ar
   103     5     6    1
   104    80    81    1
   105    58    59   ar
   106   141   140    1
   107   140   139    1
   108    63    62    2
   109   167   166    1
   110   156   155   ar
   111   163   162    1
   112   155   154    1
   113   165   166    1
   114   165   162    1
   115    51    53   ar
   116    51    52   ar
   117    53    55   ar
   118    81    82    1
   119   203   204    1
   120   168   166    1
   121    60    61    1
   122   209   210    2
   123    61    62    1
   124    61    64    1
   125    66    65    1
   126   206   204    1
   127     6     7    1
   128     7     8    1
   129   162   161    1
   130    59    57   ar
   131   154   151    1
   132   139   138    1
   133   153   152    2
   134   204   205    1
   135    52    54   ar
   136    55    57   ar
   137    55    54   ar
   138   119   118    1
   139   151   152    1
   140   151   150    1
   141    64    65    1
   142    65    67    1
   143    82    83    1
   144   118   120    1
   145   118   115    1
   146   138   135    1
   147   190   188    1
   148   150   144   am
   149   137   136    2
   150   145   144    2
   151   189   188    1
   152   148   146    1
   153   114   115    1
   154   188   187    1
   155   144   143    1
   156   136   135    1
   157   135   134    1
   158   115   116    1
   159   146   143    1
   160   146   147    1
   161   197   196    1
   162   197   198    1
   163   143   142    1
   164   117   116    2
   165   116   121   am
   166   187   184    1
   167   134   132   am
   168   149   147    1
   169   196   195    1
   170   170   171    1
   171   170   169    1
   172   184   185    1
   173   184   183    1
   174   172   171    2
   175   194   193    2
   176   121   122    1
   177   133   132    2
   178   132   131    1
   179   186   185    2
   180   124   123    2
   181   195   192    1
   182   193   192    1
   183   183   175   am
   184   123   122    1
   185   123   130   am
   186   122   125    1
   187   192   191    1
   188   131   130    1
   189   175   176    2
   190   175   174    1
   191   177   174    1
   192   177   178    1
   193   125   126    1
   194   174   173    1
   195   178   179   ar
   196   178   180   ar
   197   179   181   ar
   198   180   182   ar
   199   126   127    1
   200   181   182   ar
   201   128   127   ar
   202   127   129   ar
