@<TRIPOS>MOLECULE
tmp/5dkgA01.pdb
 214 202 0 0 0
SMALL
GASTEIGER

@<TRIPOS>ATOM
      1  N        -25.9160  -32.5770   -3.5130 N.3    40  MET40      -0.1245
      2  CA       -25.9200  -31.2140   -4.0300 C.3    40  MET40       0.1570
      3  C        -26.5940  -30.2630   -3.0480 C.2    40  MET40       0.2261
      4  O        -26.2940  -29.0720   -3.0210 O.2    40  MET40      -0.2867
      5  CB       -26.6180  -31.1510   -5.3910 C.3    40  MET40       0.0387
      6  CG       -25.8480  -31.8290   -6.5120 C.3    40  MET40       0.0595
      7  SD       -24.1450  -31.2500   -6.6410 S.3    40  MET40      -0.1393
      8  CE       -24.3860  -29.4990   -6.9370 C.3    40  MET40       0.0692
      9  N        -23.8960  -29.3040   -0.3620 N.3    43  LEU43      -0.1231
     10  CA       -22.8580  -28.4490   -0.9330 C.3    43  LEU43       0.1693
     11  C        -23.3770  -27.0500   -1.2490 C.2    43  LEU43       0.2592
     12  O        -22.6890  -26.0560   -1.0140 O.2    43  LEU43      -0.2718
     13  CB       -22.2780  -29.0840   -2.2000 C.3    43  LEU43       0.0284
     14  CG       -21.6230  -30.4590   -2.0610 C.3    43  LEU43       0.0019
     15  CD1      -20.9030  -30.8330   -3.3520 C.3    43  LEU43       0.0001
     16  CD2      -20.6680  -30.4930   -0.8800 C.3    43  LEU43       0.0001
     17  N        -24.5870  -26.9800   -1.7930 N.am   44  THR44      -0.1953
     18  CA       -25.2080  -25.7030   -2.1240 C.3    44  THR44       0.1897
     19  C        -25.4810  -24.8840   -0.8660 C.2    44  THR44       0.2313
     20  O        -25.1610  -23.6950   -0.8080 O.2    44  THR44      -0.2863
     21  CB       -26.5230  -25.9030   -2.8970 C.3    44  THR44       0.1794
     22  OG1      -26.2340  -26.3800   -4.2190 O.3    44  THR44      -0.2208
     23  CG2      -27.2920  -24.5950   -2.9890 C.3    44  THR44       0.0378
     24  N        -23.9900  -25.1140    1.9920 N.3    46  LEU46      -0.1231
     25  CA       -22.6950  -24.6900    2.5060 C.3    46  LEU46       0.1693
     26  C        -22.1420  -23.5000    1.7280 C.2    46  LEU46       0.2591
     27  O        -21.7300  -22.5010    2.3220 O.2    46  LEU46      -0.2718
     28  CB       -21.6990  -25.8490    2.4630 C.3    46  LEU46       0.0284
     29  CG       -20.2590  -25.5060    2.8540 C.3    46  LEU46       0.0019
     30  CD1      -20.1870  -25.0420    4.3030 C.3    46  LEU46       0.0001
     31  CD2      -19.3280  -26.6900    2.6080 C.3    46  LEU46       0.0001
     32  N        -22.1380  -23.6130    0.4000 N.am   47  ALA47      -0.1980
     33  CA       -21.6080  -22.5600   -0.4620 C.3    47  ALA47       0.1597
     34  C        -22.3340  -21.2340   -0.2540 C.2    47  ALA47       0.2287
     35  O        -21.7070  -20.1730   -0.2240 O.2    47  ALA47      -0.2864
     36  CB       -21.6900  -22.9810   -1.9290 C.3    47  ALA47       0.0319
     37  N        -21.1680  -19.7060    2.9980 N.3    50  GLU50      -0.1245
     38  CA       -19.7970  -19.2380    2.7930 C.3    50  GLU50       0.1567
     39  C        -19.7360  -17.8970    2.0620 C.2    50  GLU50       0.2260
     40  O        -18.8610  -17.0740    2.3350 O.2    50  GLU50      -0.2867
     41  CB       -18.9880  -20.2700    2.0030 C.3    50  GLU50       0.0388
     42  CG       -18.5680  -21.5010    2.7880 C.3    50  GLU50       0.1160
     43  CD       -17.6450  -22.3950    1.9830 C.2    50  GLU50       0.3649
     44  OE1      -18.1500  -23.1560    1.1300 O.co2  50  GLU50      -0.2457
     45  OE2      -16.4130  -22.3260    2.1920 O.co2  50  GLU50      -0.2457
     46  N        -16.3880  -15.5800   -7.5180 N.3    80  TRP80      -0.1227
     47  CA       -16.9290  -16.2210   -6.3160 C.3    80  TRP80       0.1737
     48  C        -16.6510  -17.7280   -6.2290 C.2    80  TRP80       0.2595
     49  O        -16.3160  -18.2300   -5.1570 O.2    80  TRP80      -0.2718
     50  CB       -18.4350  -15.9580   -6.1970 C.3    80  TRP80       0.0564
     51  CG       -19.2940  -16.5930   -7.2500 C.ar   80  TRP80       0.0003
     52  CD1      -19.6410  -16.0610   -8.4560 C.ar   80  TRP80       0.0946
     53  CD2      -19.9410  -17.8690   -7.1730 C.ar   80  TRP80       0.0152
     54  NE1      -20.4520  -16.9320   -9.1420 N.ar   80  TRP80      -0.2442
     55  CE2      -20.6520  -18.0490   -8.3750 C.ar   80  TRP80       0.0810
     56  CE3      -19.9790  -18.8790   -6.2080 C.ar   80  TRP80       0.0012
     57  CZ2      -21.3980  -19.1980   -8.6360 C.ar   80  TRP80       0.0191
     58  CZ3      -20.7200  -20.0200   -6.4690 C.ar   80  TRP80       0.0001
     59  CH2      -21.4180  -20.1700   -7.6740 C.ar   80  TRP80       0.0015
     60  N        -16.7640  -18.4480   -7.3410 N.am   81  LEU81      -0.1980
     61  CA       -16.5150  -19.8890   -7.3070 C.3    81  LEU81       0.1596
     62  C        -15.0160  -20.2020   -7.2720 C.2    81  LEU81       0.2287
     63  O        -14.6020  -21.2110   -6.7040 O.2    81  LEU81      -0.2864
     64  CB       -17.1760  -20.5870   -8.4980 C.3    81  LEU81       0.0297
     65  CG       -17.1210  -22.1190   -8.4920 C.3    81  LEU81       0.0022
     66  CD1      -17.6140  -22.6790   -7.1640 C.3    81  LEU81       0.0001
     67  CD2      -17.9240  -22.7000   -9.6490 C.3    81  LEU81       0.0001
     68  N        -14.1650  -19.7170   -3.5410 N.3    84  LEU84      -0.1231
     69  CA       -14.6320  -20.8680   -2.7680 C.3    84  LEU84       0.1693
     70  C        -13.7210  -22.0670   -2.9960 C.2    84  LEU84       0.2591
     71  O        -13.3770  -22.7820   -2.0580 O.2    84  LEU84      -0.2718
     72  CB       -16.0710  -21.2430   -3.1340 C.3    84  LEU84       0.0284
     73  CG       -17.2260  -20.3840   -2.6210 C.3    84  LEU84       0.0019
     74  CD1      -18.5560  -20.9910   -3.0410 C.3    84  LEU84       0.0001
     75  CD2      -17.1610  -20.2240   -1.1080 C.3    84  LEU84       0.0001
     76  N        -13.3270  -22.2730   -4.2490 N.am   85  MET85      -0.1979
     77  CA       -12.5430  -23.4440   -4.6190 C.3    85  MET85       0.1605
     78  C        -11.1340  -23.4250   -4.0420 C.2    85  MET85       0.2287
     79  O        -10.6540  -24.4470   -3.5540 O.2    85  MET85      -0.2864
     80  CB       -12.4800  -23.5830   -6.1440 C.3    85  MET85       0.0413
     81  CG       -13.6670  -24.3430   -6.7200 C.3    85  MET85       0.0598
     82  SD       -13.7360  -24.3430   -8.5160 S.3    85  MET85      -0.1393
     83  CE       -15.1450  -25.4110   -8.7950 C.3    85  MET85       0.0692
     84  N        -11.5550  -24.2980   -0.4190 N.3    88  LEU88      -0.1245
     85  CA       -11.7640  -25.7360   -0.2700 C.3    88  LEU88       0.1561
     86  C        -10.4660  -26.5210   -0.4430 C.2    88  LEU88       0.2260
     87  O        -10.1630  -27.4310    0.3340 O.2    88  LEU88      -0.2867
     88  CB       -12.8030  -26.2260   -1.2810 C.3    88  LEU88       0.0270
     89  CG       -12.9430  -27.7400   -1.4520 C.3    88  LEU88       0.0019
     90  CD1      -13.4180  -28.4000   -0.1610 C.3    88  LEU88       0.0001
     91  CD2      -13.8800  -28.0680   -2.6060 C.3    88  LEU88       0.0001
     92  N         -8.1590  -26.0080    2.4880 N.3    91  ARG91      -0.1245
     93  CA        -8.6750  -26.7800    3.6200 C.3    91  ARG91       0.1563
     94  C         -8.3150  -28.2580    3.5120 C.2    91  ARG91       0.2260
     95  O         -8.0810  -28.9240    4.5200 O.2    91  ARG91      -0.2867
     96  CB       -10.1990  -26.6400    3.7220 C.3    91  ARG91       0.0307
     97  CG       -10.6880  -25.4210    4.4740 C.3    91  ARG91       0.0489
     98  CD       -12.2170  -25.3480    4.4590 C.3    91  ARG91       0.2205
     99  NE       -12.7340  -24.6910    3.2560 N.pl3  91  ARG91      -0.0865
    100  CZ       -13.8890  -24.9980    2.6760 C.cat  91  ARG91       0.5346
    101  NH1      -14.6440  -25.9600    3.1760 N.pl3  91  ARG91       0.1354
    102  NH2      -14.2880  -24.3510    1.5920 N.pl3  91  ARG91       0.1354
    103  N        -14.8500  -30.2750    2.6890 N.3   101  PHE101     -0.1241
    104  CA       -15.8370  -29.2150    2.4950 C.3   101  PHE101      0.1605
    105  C        -16.1620  -28.5460    3.8250 C.2   101  PHE101      0.2264
    106  O        -16.2880  -27.3260    3.9080 O.2   101  PHE101     -0.2867
    107  CB       -17.1120  -29.7670    1.8550 C.3   101  PHE101      0.0534
    108  CG       -16.9870  -30.0260    0.3840 C.ar  101  PHE101     -0.0203
    109  CD1      -17.3030  -29.0360   -0.5330 C.ar  101  PHE101     -0.0042
    110  CD2      -16.5500  -31.2520   -0.0860 C.ar  101  PHE101     -0.0042
    111  CE1      -17.1860  -29.2630   -1.8910 C.ar  101  PHE101     -0.0003
    112  CE2      -16.4290  -31.4860   -1.4480 C.ar  101  PHE101     -0.0003
    113  CZ       -16.7490  -30.4890   -2.3490 C.ar  101  PHE101     -0.0000
    114  N        -23.4380  -37.8970   -9.0890 N.3   115  VAL115     -0.1231
    115  CA       -23.7640  -36.6310   -9.7460 C.3   115  VAL115      0.1692
    116  C        -22.9200  -36.4060  -11.0000 C.2   115  VAL115      0.2592
    117  O        -21.6960  -36.5320  -10.9650 O.2   115  VAL115     -0.2718
    118  CB       -23.5650  -35.4320   -8.7970 C.3   115  VAL115      0.0266
    119  CG1      -23.9440  -34.1360   -9.4930 C.3   115  VAL115      0.0020
    120  CG2      -24.3820  -35.6090   -7.5230 C.3   115  VAL115      0.0020
    121  N        -23.5810  -36.0630  -12.1020 N.am  116  GLU116     -0.1966
    122  CA       -22.8990  -35.8420  -13.3750 C.3   116  GLU116      0.1733
    123  C        -21.9770  -34.6220  -13.3310 C.2   116  GLU116      0.2617
    124  O        -22.4130  -33.5100  -13.0330 O.2   116  GLU116     -0.2715
    125  CB       -23.9210  -35.6830  -14.5040 C.3   116  GLU116      0.0429
    126  CG       -24.7820  -36.9260  -14.6580 C.3   116  GLU116      0.1163
    127  CD       -26.1050  -36.7520  -13.9350 C.2   116  GLU116      0.3649
    128  OE1      -26.3290  -35.7200  -13.2640 O.co2 116  GLU116     -0.2457
    129  OE2      -26.9460  -37.6670  -14.0560 O.co2 116  GLU116     -0.2457
    130  N        -20.7000  -34.8410  -13.6290 N.am  117  GLY117     -0.1940
    131  CA       -19.7260  -33.7640  -13.6530 C.3   117  GLY117      0.2014
    132  C        -18.9400  -33.6250  -12.3630 C.2   117  GLY117      0.2638
    133  O        -17.9200  -32.9360  -12.3210 O.2   117  GLY117     -0.2714
    134  N        -19.4120  -34.2880  -11.3110 N.am  118  MET118     -0.1976
    135  CA       -18.8240  -34.1610   -9.9790 C.3   118  MET118      0.1605
    136  C        -17.4560  -34.8270   -9.8500 C.2   118  MET118      0.2287
    137  O        -16.5240  -34.2360   -9.3080 O.2   118  MET118     -0.2864
    138  CB       -19.7640  -34.7500   -8.9300 C.3   118  MET118      0.0413
    139  CG       -19.1720  -34.7700   -7.5350 C.3   118  MET118      0.0598
    140  SD       -19.7580  -33.4110   -6.5150 S.3   118  MET118     -0.1393
    141  CE       -21.4650  -33.8770   -6.3040 C.3   118  MET118      0.0692
    142  N        -14.8710  -32.7050  -11.5530 N.3   121  ILE121     -0.1231
    143  CA       -14.5300  -31.4910  -10.8230 C.3   121  ILE121      0.1692
    144  C        -13.7900  -31.8490   -9.5340 C.2   121  ILE121      0.2592
    145  O        -12.9120  -31.1110   -9.0970 O.2   121  ILE121     -0.2718
    146  CB       -15.7930  -30.6270  -10.5180 C.3   121  ILE121      0.0266
    147  CG1      -15.4290  -29.1440  -10.4250 C.3   121  ILE121      0.0019
    148  CG2      -16.5170  -31.0900   -9.2620 C.3   121  ILE121      0.0020
    149  CD1      -15.1770  -28.4910  -11.7680 C.3   121  ILE121      0.0001
    150  N        -14.1230  -32.9990   -8.9520 N.am  122  PHE122     -0.1976
    151  CA       -13.4500  -33.4770   -7.7510 C.3   122  PHE122      0.1639
    152  C        -11.9820  -33.7790   -8.0240 C.2   122  PHE122      0.2290
    153  O        -11.1070  -33.3680   -7.2640 O.2   122  PHE122     -0.2864
    154  CB       -14.1370  -34.7320   -7.2030 C.3   122  PHE122      0.0560
    155  CG       -15.2110  -34.4510   -6.1900 C.ar  122  PHE122     -0.0200
    156  CD1      -15.7200  -33.1730   -6.0270 C.ar  122  PHE122     -0.0042
    157  CD2      -15.7010  -35.4680   -5.3890 C.ar  122  PHE122     -0.0042
    158  CE1      -16.7030  -32.9160   -5.0890 C.ar  122  PHE122     -0.0003
    159  CE2      -16.6850  -35.2200   -4.4480 C.ar  122  PHE122     -0.0003
    160  CZ       -17.1870  -33.9420   -4.2970 C.ar  122  PHE122     -0.0000
    161  N         -9.9080  -30.6260   -8.3300 N.3   125  LEU125     -0.1245
    162  CA        -9.7360  -30.0260   -7.0140 C.3   125  LEU125      0.1561
    163  C         -8.6960  -30.8030   -6.2180 C.2   125  LEU125      0.2260
    164  O         -7.8070  -30.2180   -5.6030 O.2   125  LEU125     -0.2867
    165  CB       -11.0710  -29.9860   -6.2640 C.3   125  LEU125      0.0270
    166  CG       -12.1340  -29.0610   -6.8610 C.3   125  LEU125      0.0019
    167  CD1      -13.4960  -29.3340   -6.2430 C.3   125  LEU125      0.0001
    168  CD2      -11.7380  -27.6040   -6.6700 C.3   125  LEU125      0.0001
    169  N        -17.0930  -25.8380  -13.5270 N.3   208  GLY208     -0.1225
    170  CA       -18.0850  -26.0180  -12.4820 C.3   208  GLY208      0.1811
    171  C        -19.2840  -25.1160  -12.6950 C.2   208  GLY208      0.2280
    172  O        -20.4240  -25.5430  -12.5330 O.2   208  GLY208     -0.2866
    173  N        -21.7090  -26.3830  -15.4520 N.3   211  HIS211     -0.1226
    174  CA       -22.6200  -27.4130  -14.9720 C.3   211  HIS211      0.1752
    175  C        -23.7000  -26.8020  -14.0930 C.2   211  HIS211      0.2595
    176  O        -24.8700  -27.1700  -14.1920 O.2   211  HIS211     -0.2718
    177  CB       -21.8670  -28.4910  -14.1950 C.3   211  HIS211      0.0759
    178  CG       -21.1620  -29.4850  -15.0620 C.ar  211  HIS211      0.0818
    179  ND1      -19.8320  -29.3660  -15.4030 N.ar  211  HIS211     -0.2268
    180  CD2      -21.6040  -30.6180  -15.6580 C.ar  211  HIS211      0.1154
    181  CE1      -19.4840  -30.3830  -16.1720 C.ar  211  HIS211      0.1986
    182  NE2      -20.5410  -31.1570  -16.3430 N.ar  211  HIS211     -0.2212
    183  N        -23.2990  -25.8610  -13.2440 N.am  212  LEU212     -0.1980
    184  CA       -24.2080  -25.2620  -12.2730 C.3   212  LEU212      0.1596
    185  C        -25.4040  -24.5610  -12.9170 C.2   212  LEU212      0.2287
    186  O        -26.5300  -24.7370  -12.4600 O.2   212  LEU212     -0.2864
    187  CB       -23.4540  -24.2820  -11.3700 C.3   212  LEU212      0.0297
    188  CG       -22.6560  -24.9190  -10.2280 C.3   212  LEU212      0.0022
    189  CD1      -21.9870  -23.8570   -9.3670 C.3   212  LEU212      0.0001
    190  CD2      -23.5490  -25.8140   -9.3800 C.3   212  LEU212      0.0001
    191  N        -27.7770  -27.4400  -14.6850 N.3   215  MET215     -0.1245
    192  CA       -28.6350  -28.1990  -13.7830 C.3   215  MET215      0.1570
    193  C        -29.4470  -27.2710  -12.8880 C.2   215  MET215      0.2261
    194  O        -30.2390  -27.7280  -12.0630 O.2   215  MET215     -0.2867
    195  CB       -27.8080  -29.1570  -12.9230 C.3   215  MET215      0.0387
    196  CG       -26.8310  -28.4610  -11.9900 C.3   215  MET215      0.0595
    197  SD       -26.1170  -29.5620  -10.7530 S.3   215  MET215     -0.1393
    198  CE       -27.5660  -29.9600   -9.7800 C.3   215  MET215      0.0692
    199  N        -31.1920  -23.7710   -5.3630 N.3   219  LEU219     -0.1245
    200  CA       -30.2120  -22.7220   -5.1310 C.3   219  LEU219      0.1561
    201  C        -30.8560  -21.5230   -4.4370 C.2   219  LEU219      0.2260
    202  O        -32.0070  -21.1740   -4.7110 O.2   219  LEU219     -0.2867
    203  CB       -29.5620  -22.3000   -6.4490 C.3   219  LEU219      0.0270
    204  CG       -28.8960  -23.4180   -7.2610 C.3   219  LEU219      0.0019
    205  CD1      -28.4210  -22.8930   -8.6000 C.3   219  LEU219      0.0001
    206  CD2      -27.7390  -24.0500   -6.5040 C.3   219  LEU219      0.0001
    207  N        -27.3140  -17.2060   -4.5840 N.3   223  LEU223     -0.1245
    208  CA       -26.5180  -18.1000   -5.4110 C.3   223  LEU223      0.1561
    209  C        -27.0070  -18.0660   -6.8520 C.2   223  LEU223      0.2260
    210  O        -26.2130  -18.1290   -7.7900 O.2   223  LEU223     -0.2867
    211  CB       -26.5670  -19.5230   -4.8600 C.3   223  LEU223      0.0270
    212  CG       -25.5380  -20.5000   -5.4240 C.3   223  LEU223      0.0019
    213  CD1      -24.1590  -19.8700   -5.4180 C.3   223  LEU223      0.0001
    214  CD2      -25.5400  -21.7810   -4.6100 C.3   223  LEU223      0.0001
@<TRIPOS>BOND
     1   182   181   ar
     2   182   180   ar
     3   181   179   ar
     4   180   178   ar
     5   173   174    1
     6   179   178   ar
     7   178   177    1
     8   174   177    1
     9   174   175    1
    10   191   192    1
    11   126   125    1
    12   126   127    1
    13   125   122    1
    14   176   175    2
    15   175   183   am
    16   129   127   ar
    17   127   128   ar
    18   192   195    1
    19   192   193    1
    20   131   130    1
    21   131   132    1
    22   130   123   am
    23   169   170    1
    24   122   123    1
    25   122   121    1
    26   123   124    2
    27   183   184    1
    28   195   196    1
    29   185   186    2
    30   185   184    1
    31   193   194    2
    32   171   172    2
    33   171   170    1
    34   132   133    2
    35   132   134   am
    36   184   187    1
    37   121   116   am
    38   196   197    1
    39   149   147    1
    40   142   143    1
    41   187   188    1
    42   134   135    1
    43   116   117    2
    44   116   115    1
    45   143   146    1
    46   143   144    1
    47   197   198    1
    48   146   147    1
    49   146   148    1
    50   188   190    1
    51   188   189    1
    52   135   136    1
    53   135   138    1
    54   136   137    2
    55   115   114    1
    56   115   118    1
    57    67    65    1
    58   144   145    2
    59   144   150   am
    60   119   118    1
    61    54    52   ar
    62    54    55   ar
    63   150   151    1
    64   138   139    1
    65   118   120    1
    66    83    82    1
    67    57    55   ar
    68    57    59   ar
    69   205   204    1
    70    82    81    1
    71    64    65    1
    72    64    61    1
    73    65    66    1
    74    52    51   ar
    75    55    53   ar
    76   161   162    1
    77   152   151    1
    78   152   153    2
    79   210   209    2
    80   151   154    1
    81    59    58   ar
    82   139   140    1
    83    46    47    1
    84    60    61    1
    85    60    48   am
    86    61    62    1
    87    62    63    2
    88   204   206    1
    89   204   203    1
    90    51    53   ar
    91    51    50    1
    92   154   155    1
    93    53    56   ar
    94   162   165    1
    95   162   163    1
    96     8     7    1
    97   166   168    1
    98   166   165    1
    99   166   167    1
   100   209   208    1
   101    81    80    1
   102     7     6    1
   103   140   141    1
   104     6     5    1
   105    58    56   ar
   106   203   200    1
   107    47    48    1
   108    47    50    1
   109    48    49    2
   110   163   164    2
   111   155   156   ar
   112   155   157   ar
   113    80    77    1
   114   156   158   ar
   115   212   213    1
   116   212   211    1
   117   212   214    1
   118   208   211    1
   119   208   207    1
   120     5     2    1
   121   157   159   ar
   122   199   200    1
   123   200   201    1
   124   158   160   ar
   125   202   201    2
   126    77    76    1
   127    77    78    1
   128   159   160   ar
   129    76    70   am
   130    22    21    1
   131    78    79    2
   132     2     1    1
   133     2     3    1
   134    68    69    1
   135    15    14    1
   136    72    69    1
   137    72    73    1
   138     3     4    2
   139    74    73    1
   140    70    69    1
   141    70    71    2
   142    23    21    1
   143    21    18    1
   144    73    75    1
   145    91    89    1
   146   113   111   ar
   147   113   112   ar
   148    13    14    1
   149    13    10    1
   150    18    17    1
   151    18    19    1
   152    14    16    1
   153    36    33    1
   154   111   109   ar
   155    17    11   am
   156    89    88    1
   157    89    90    1
   158   112   110   ar
   159    88    85    1
   160    11    12    2
   161    11    10    1
   162    10     9    1
   163    19    20    2
   164   109   108   ar
   165    33    34    1
   166    33    32    1
   167    86    85    1
   168    86    87    2
   169    84    85    1
   170    34    35    2
   171   110   108   ar
   172   108   107    1
   173    32    26   am
   174    44    43   ar
   175   102   100    1
   176    26    27    2
   177    26    25    1
   178   107   104    1
   179    43    45   ar
   180    43    42    1
   181    24    25    1
   182    41    42    1
   183    41    38    1
   184    39    40    2
   185    39    38    1
   186    28    25    1
   187    28    29    1
   188    92    93    1
   189   104   103    1
   190   104   105    1
   191    31    29    1
   192   100   101    1
   193   100    99    2
   194    38    37    1
   195    29    30    1
   196    99    98    1
   197    94    93    1
   198    94    95    2
   199    93    96    1
   200    96    97    1
   201   105   106    2
   202    98    97    1
