@<TRIPOS>MOLECULE
tmp/5dkhB00.pdb
 125 120 0 0 0
SMALL
GASTEIGER

@<TRIPOS>ATOM
      1  N        -19.6490   12.9940   26.0380 N.3    28  VAL28      -0.1231
      2  CA       -20.6710   11.9400   26.3290 C.3    28  VAL28       0.1692
      3  C        -22.1030   12.2970   25.9000 C.2    28  VAL28       0.2592
      4  O        -22.9490   11.3990   25.7890 O.2    28  VAL28      -0.2718
      5  CB       -20.7740   11.5040   27.8110 C.3    28  VAL28       0.0266
      6  CG1      -19.4420   10.8990   28.2050 C.3    28  VAL28       0.0020
      7  CG2      -21.2260   12.6510   28.6940 C.3    28  VAL28       0.0020
      8  N        -22.3670   13.5830   25.6660 N.am   29  PHE29      -0.1976
      9  CA       -23.7160   14.0800   25.4170 C.3    29  PHE29       0.1639
     10  C        -24.0620   14.2170   23.9170 C.2    29  PHE29       0.2290
     11  O        -25.2020   14.5080   23.5960 O.2    29  PHE29      -0.2864
     12  CB       -23.9170   15.4100   26.1210 C.3    29  PHE29       0.0560
     13  CG       -23.6820   15.3680   27.6220 C.ar   29  PHE29      -0.0200
     14  CD1      -24.5450   14.7070   28.4890 C.ar   29  PHE29      -0.0042
     15  CD2      -22.6050   16.0270   28.1540 C.ar   29  PHE29      -0.0042
     16  CE1      -24.3260   14.7280   29.8480 C.ar   29  PHE29      -0.0003
     17  CE2      -22.3800   16.0220   29.5030 C.ar   29  PHE29      -0.0003
     18  CZ       -23.2540   15.3820   30.3410 C.ar   29  PHE29      -0.0000
     19  N        -26.6380    9.7590   22.4240 N.3    32  LEU32      -0.1231
     20  CA       -27.1060    8.8430   23.4430 C.3    32  LEU32       0.1678
     21  C        -26.7460    7.4090   23.0470 C.2    32  LEU32       0.2434
     22  O        -26.6420    7.0990   21.8590 O.2    32  LEU32      -0.2733
     23  CB       -28.6080    8.9410   23.5190 C.3    32  LEU32       0.0284
     24  CG       -29.2150   10.0590   24.3470 C.3    32  LEU32       0.0019
     25  CD1      -30.6470   10.3120   24.0120 C.3    32  LEU32       0.0001
     26  CD2      -29.0850    9.7570   25.8270 C.3    32  LEU32       0.0001
     27  N        -26.5710    6.5650   24.0280 N.am   33  PRO33      -0.2729
     28  CA       -26.5380    5.1110   23.7290 C.3    33  PRO33       0.1401
     29  C        -27.8330    4.7290   23.1040 C.2    33  PRO33       0.2269
     30  O        -28.8940    5.3880   23.3890 O.2    33  PRO33      -0.2865
     31  CB       -26.3910    4.4660   25.1160 C.3    33  PRO33       0.0296
     32  CG       -25.9740    5.5050   26.0000 C.3    33  PRO33       0.0237
     33  CD       -26.3510    6.8410   25.4410 C.3    33  PRO33       0.0939
     34  N        -28.5190   -0.7620   23.3430 N.3    37  GLU37      -0.1231
     35  CA       -27.3510   -0.7730   24.2450 C.3    37  GLU37       0.1699
     36  C        -27.7330   -0.5070   25.6850 C.2    37  GLU37       0.2592
     37  O        -27.1260   -1.0770   26.5980 O.2    37  GLU37      -0.2718
     38  CB       -26.3690    0.3220   23.8080 C.3    37  GLU37       0.0402
     39  CG       -25.6360   -0.0710   22.5960 C.3    37  GLU37       0.1161
     40  CD       -24.8750    1.1020   21.9960 C.2    37  GLU37       0.3649
     41  OE1      -25.3200    2.2930   22.1210 O.co2  37  GLU37      -0.2457
     42  OE2      -23.8560    0.7530   21.3740 O.co2  37  GLU37      -0.2457
     43  N        -28.7170    0.3810   25.8660 N.am   38  LEU38      -0.1980
     44  CA       -29.0800    0.9080   27.2030 C.3    38  LEU38       0.1596
     45  C        -30.5480    1.1260   27.3130 C.2    38  LEU38       0.2287
     46  O        -31.0010    2.2120   27.5680 O.2    38  LEU38      -0.2864
     47  CB       -28.2880    2.1930   27.5060 C.3    38  LEU38       0.0297
     48  CG       -28.1410    2.5300   29.0220 C.3    38  LEU38       0.0022
     49  CD1      -27.3480    1.4320   29.6630 C.3    38  LEU38       0.0001
     50  CD2      -27.4060    3.8570   29.0910 C.3    38  LEU38       0.0001
     51  N        -32.0040    3.2640   30.1310 N.3    41  TYR41      -0.1241
     52  CA       -32.1190    4.7290   29.9700 C.3    41  TYR41       0.1605
     53  C        -33.5000    5.1630   29.5500 C.2    41  TYR41       0.2264
     54  O        -34.1050    6.1280   30.0800 O.2    41  TYR41      -0.2867
     55  CB       -31.0950    5.2080   28.9500 C.3    41  TYR41       0.0534
     56  CG       -31.0010    6.7210   28.8830 C.ar   41  TYR41      -0.0201
     57  CD1      -31.8490    7.4830   28.0810 C.ar   41  TYR41      -0.0009
     58  CD2      -30.0720    7.3990   29.6950 C.ar   41  TYR41      -0.0009
     59  CE1      -31.7740    8.8780   28.0430 C.ar   41  TYR41       0.0417
     60  CE2      -29.9920    8.7920   29.6550 C.ar   41  TYR41       0.0417
     61  CZ       -30.8640    9.5220   28.8470 C.ar   41  TYR41       0.1957
     62  OH       -30.8200   10.9010   28.8280 O.3    41  TYR41      -0.2866
     63  N        -33.0440   13.1610   24.3800 N.3    49  VAL49      -0.1231
     64  CA       -32.4510   14.1480   23.4650 C.3    49  VAL49       0.1692
     65  C        -30.9120   14.1590   23.6400 C.2    49  VAL49       0.2592
     66  O        -30.4230   13.8990   24.7170 O.2    49  VAL49      -0.2718
     67  CB       -33.0480   15.5850   23.6620 C.3    49  VAL49       0.0266
     68  CG1      -32.5580   16.1700   24.9920 C.3    49  VAL49       0.0020
     69  CG2      -32.7010   16.4990   22.5280 C.3    49  VAL49       0.0020
     70  N        -30.1800   14.4420   22.5590 N.am   50  ASP50      -0.1974
     71  CA       -28.7490   14.5480   22.5710 C.3    50  ASP50       0.1709
     72  C        -28.3080   15.7340   21.7030 C.2    50  ASP50       0.2293
     73  O        -29.1270   16.2960   21.0220 O.2    50  ASP50      -0.2864
     74  CB       -28.0940   13.1890   22.2390 C.3    50  ASP50       0.1436
     75  CG       -28.5200   12.6040   20.9010 C.2    50  ASP50       0.3671
     76  OD1      -28.9650   13.3680   20.0060 O.co2  50  ASP50      -0.2456
     77  OD2      -28.3850   11.3610   20.7770 O.co2  50  ASP50      -0.2456
     78  N        -31.8730   18.2030   27.7960 N.3    76  LEU76      -0.1245
     79  CA       -30.7060   17.3410   27.7570 C.3    76  LEU76       0.1561
     80  C        -30.0230   17.2470   29.1240 C.2    76  LEU76       0.2260
     81  O        -29.7730   16.1490   29.6720 O.2    76  LEU76      -0.2867
     82  CB       -29.7640   17.8310   26.6400 C.3    76  LEU76       0.0270
     83  CG       -28.5870   16.8990   26.2810 C.3    76  LEU76       0.0019
     84  CD1      -28.0080   17.3460   24.9390 C.3    76  LEU76       0.0001
     85  CD2      -27.5130   16.9410   27.3350 C.3    76  LEU76       0.0001
     86  N        -32.2020   15.4620   31.7610 N.3    79  ASN79      -0.1225
     87  CA       -32.1410   14.0330   31.6090 C.3    79  ASN79       0.1785
     88  C        -30.8530   13.4160   32.1500 C.2    79  ASN79       0.2597
     89  O        -30.8460   12.3640   32.7410 O.2    79  ASN79      -0.2718
     90  CB       -32.3540   13.6820   30.1000 C.3    79  ASN79       0.1169
     91  CG       -33.7400   14.0130   29.5890 C.2    79  ASN79       0.2627
     92  OD1      -34.6820   14.2240   30.3350 O.2    79  ASN79      -0.2716
     93  ND2      -33.8850   14.0190   28.2510 N.am   79  ASN79      -0.0877
     94  N        -29.7370   14.1010   31.9450 N.am   80  ALA80      -0.1979
     95  CA       -28.4220   13.6640   32.3500 C.3    80  ALA80       0.1597
     96  C        -28.4270   13.6350   33.9010 C.2    80  ALA80       0.2287
     97  O        -27.8810   12.7560   34.4970 O.2    80  ALA80      -0.2864
     98  CB       -27.3710   14.6450   31.8190 C.3    80  ALA80       0.0319
     99  N        -30.8210   10.5770   35.1140 N.3    83  PHE83      -0.1227
    100  CA       -30.3220    9.2310   34.9350 C.3    83  PHE83       0.1736
    101  C        -29.0490    8.9130   35.7430 C.2    83  PHE83       0.2595
    102  O        -28.9110    7.8000   36.2400 O.2    83  PHE83      -0.2718
    103  CB       -30.0400    8.9390   33.4620 C.3    83  PHE83       0.0547
    104  CG       -29.5200    7.5140   33.2150 C.ar   83  PHE83      -0.0202
    105  CD1      -30.3810    6.4490   33.2630 C.ar   83  PHE83      -0.0042
    106  CD2      -28.2070    7.2750   32.8640 C.ar   83  PHE83      -0.0042
    107  CE1      -29.9390    5.1530   33.0160 C.ar   83  PHE83      -0.0003
    108  CE2      -27.7420    6.0000   32.5720 C.ar   83  PHE83      -0.0003
    109  CZ       -28.6160    4.9230   32.6970 C.ar   83  PHE83      -0.0000
    110  N        -28.1470    9.8880   35.8740 N.am   84  ASN84      -0.1974
    111  CA       -26.8350    9.6560   36.4490 C.3    84  ASN84       0.1688
    112  C        -26.8420   10.1210   37.9310 C.2    84  ASN84       0.2292
    113  O        -27.6000   11.0030   38.3010 O.2    84  ASN84      -0.2864
    114  CB       -25.7810   10.4180   35.6750 C.3    84  ASN84       0.1181
    115  CG       -25.7020    9.9810   34.2110 C.2    84  ASN84       0.2629
    116  OD1      -25.1720    8.9220   33.9260 O.2    84  ASN84      -0.2716
    117  ND2      -26.2750   10.7660   33.2950 N.am   84  ASN84      -0.0877
    118  N        -20.4520   12.9960   35.1690 N.3    90  ILE90      -0.1245
    119  CA       -21.4420   13.3390   34.1120 C.3    90  ILE90       0.1561
    120  C        -22.5740   14.2790   34.5990 C.2    90  ILE90       0.2260
    121  O        -22.9680   15.1940   33.9140 O.2    90  ILE90      -0.2867
    122  CB       -21.9980   12.0730   33.3970 C.3    90  ILE90       0.0252
    123  CG1      -22.8310   12.4130   32.2130 C.3    90  ILE90       0.0019
    124  CG2      -22.7410   11.2130   34.3960 C.3    90  ILE90       0.0019
    125  CD1      -23.2640   11.1760   31.3680 C.3    90  ILE90       0.0001
@<TRIPOS>BOND
     1    76    75   ar
     2    77    75   ar
     3    75    74    1
     4    73    72    2
     5    42    40   ar
     6    72    71    1
     7    22    21    2
     8    40    41   ar
     9    40    39    1
    10    74    71    1
    11    19    20    1
    12    69    67    1
    13    70    71    1
    14    70    65   am
    15    39    38    1
    16    21    20    1
    17    21    27   am
    18    29    30    2
    19    29    28    1
    20    34    35    1
    21    20    23    1
    22    64    65    1
    23    64    67    1
    24    64    63    1
    25    23    24    1
    26    11    10    2
    27    65    66    2
    28    67    68    1
    29    28    27    1
    30    28    31    1
    31    38    35    1
    32    10     9    1
    33    25    24    1
    34    27    33    1
    35    35    36    1
    36    24    26    1
    37    84    83    1
    38    31    32    1
    39     9     8    1
    40     9    12    1
    41    33    32    1
    42     8     3   am
    43    36    43   am
    44    36    37    2
    45     4     3    2
    46    43    44    1
    47     3     2    1
    48     1     2    1
    49    12    13    1
    50    83    82    1
    51    83    85    1
    52     2     5    1
    53    82    79    1
    54    44    45    1
    55    44    47    1
    56    45    46    2
    57    47    48    1
    58    13    15   ar
    59    13    14   ar
    60    79    78    1
    61    79    80    1
    62     5     6    1
    63     5     7    1
    64    59    57   ar
    65    59    61   ar
    66    57    56   ar
    67    15    17   ar
    68    93    91   am
    69    14    16   ar
    70    62    61    1
    71    61    60   ar
    72    56    55    1
    73    56    58   ar
    74    55    52    1
    75    48    50    1
    76    48    49    1
    77    80    81    2
    78    17    18   ar
    79    53    52    1
    80    53    54    2
    81    91    90    1
    82    91    92    2
    83    60    58   ar
    84    16    18   ar
    85    52    51    1
    86    90    87    1
    87   125   123    1
    88    87    86    1
    89    87    88    1
    90    98    95    1
    91    94    88   am
    92    94    95    1
    93    88    89    2
    94   123   122    1
    95    95    96    1
    96   108   109   ar
    97   108   106   ar
    98   109   107   ar
    99   106   104   ar
   100   107   105   ar
   101   104   105   ar
   102   104   103    1
   103   117   115   am
   104   122   119    1
   105   122   124    1
   106   103   100    1
   107    96    97    2
   108   121   120    2
   109   116   115    2
   110   119   120    1
   111   119   118    1
   112   115   114    1
   113   100    99    1
   114   100   101    1
   115   114   111    1
   116   101   110   am
   117   101   102    2
   118   110   111    1
   119   111   112    1
   120   112   113    2
