@<TRIPOS>MOLECULE
tmp/5dkiH00.pdb
 133 124 0 0 0
SMALL
GASTEIGER

@<TRIPOS>ATOM
      1  N         64.9380 -138.9860   45.5230 N.3     1  THR1       -0.1218
      2  CA        65.4390 -137.8320   46.2270 C.3     1  THR1        0.1862
      3  C         65.5030 -138.1050   47.7060 C.2     1  THR1        0.2287
      4  O         64.6000 -138.6520   48.2730 O.2     1  THR1       -0.2866
      5  CB        64.4890 -136.6860   45.9750 C.3     1  THR1        0.1770
      6  OG1       64.6450 -136.2690   44.6460 O.3     1  THR1       -0.2211
      7  CG2       64.8200 -135.4850   46.8320 C.3     1  THR1        0.0375
      8  N         70.7040 -135.9730   42.6160 N.3    19  ARG19      -0.1231
      9  CA        70.1660 -136.6680   41.4440 C.3    19  ARG19       0.1694
     10  C         68.7790 -136.1660   41.0470 C.2    19  ARG19       0.2593
     11  O         67.8980 -136.0000   41.8880 O.2    19  ARG19      -0.2718
     12  CB        70.1110 -138.1800   41.6740 C.3    19  ARG19       0.0321
     13  CG        69.5960 -138.9520   40.4660 C.3    19  ARG19       0.0489
     14  CD        69.5860 -140.4480   40.7050 C.3    19  ARG19       0.2205
     15  NE        70.9220 -141.0300   40.6230 N.pl3  19  ARG19      -0.0865
     16  CZ        71.1880 -142.3270   40.7520 C.cat  19  ARG19       0.5346
     17  NH1       70.2120 -143.2010   40.9690 N.pl3  19  ARG19       0.1354
     18  NH2       72.4390 -142.7550   40.6610 N.pl3  19  ARG19       0.1354
     19  N         68.6000 -135.9460   39.7480 N.am   20  SER20      -0.1938
     20  CA        67.3080 -135.5970   39.1750 C.3    20  SER20       0.2055
     21  C         66.9570 -136.6630   38.1470 C.2    20  SER20       0.2644
     22  O         67.8100 -137.0490   37.3450 O.2    20  SER20      -0.2714
     23  CB        67.3790 -134.2220   38.5110 C.3    20  SER20       0.2130
     24  OG        66.1140 -133.8260   38.0080 O.3    20  SER20      -0.2179
     25  N         65.7170 -137.1460   38.1710 N.am   21  THR21      -0.1936
     26  CA        65.3120 -138.2260   37.2750 C.3    21  THR21       0.2028
     27  C         64.0600 -137.9250   36.4740 C.2    21  THR21       0.2642
     28  O         63.1790 -137.1830   36.8960 O.2    21  THR21      -0.2714
     29  CB        65.0780 -139.5540   38.0180 C.3    21  THR21       0.1808
     30  OG1       64.0640 -139.3830   39.0160 O.3    21  THR21      -0.2208
     31  CG2       66.3600 -140.0380   38.6590 C.3    21  THR21       0.0379
     32  N         63.9920 -138.5200   35.2980 N.am   22  GLN22      -0.1963
     33  CA        62.8800 -138.4140   34.3790 C.3    22  GLN22       0.1733
     34  C         62.6230 -139.8420   34.0580 C.2    22  GLN22       0.2616
     35  O         63.2010 -140.4040   33.1750 O.2    22  GLN22      -0.2715
     36  CB        63.2880 -137.6960   33.1230 C.3    22  GLN22       0.0408
     37  CG        62.1360 -137.0530   32.3950 C.3    22  GLN22       0.0908
     38  CD        62.4440 -135.6410   31.9830 C.2    22  GLN22       0.2608
     39  OE1       63.4870 -135.1080   32.3160 O.2    22  GLN22      -0.2717
     40  NE2       61.5360 -135.0260   31.2430 N.am   22  GLN22      -0.0878
     41  N         61.7370 -140.4300   34.8120 N.am   23  GLY23      -0.1955
     42  CA        61.4420 -141.8590   34.7260 C.3    23  GLY23       0.1869
     43  C         62.6020 -142.6520   35.3090 C.2    23  GLY23       0.2309
     44  O         62.9850 -142.4270   36.4580 O.2    23  GLY23      -0.2863
     45  N         68.4520 -137.1880   34.6110 N.3    27  ALA27      -0.1231
     46  CA        68.4700 -135.9460   33.8450 C.3    27  ALA27       0.1694
     47  C         69.6730 -135.0850   34.2200 C.2    27  ALA27       0.2592
     48  O         70.3320 -134.5190   33.3460 O.2    27  ALA27      -0.2718
     49  CB        67.1820 -135.1760   34.0710 C.3    27  ALA27       0.0304
     50  N         69.9420 -134.9840   35.5210 N.am   28  ASP28      -0.1974
     51  CA        71.0890 -134.2340   36.0290 C.3    28  ASP28       0.1709
     52  C         71.7750 -135.0200   37.1410 C.2    28  ASP28       0.2293
     53  O         71.1290 -135.4550   38.0930 O.2    28  ASP28      -0.2864
     54  CB        70.6410 -132.8670   36.5560 C.3    28  ASP28       0.1436
     55  CG        71.8040 -131.9080   36.7860 C.2    28  ASP28       0.3671
     56  OD1       71.5900 -130.8790   37.4600 O.co2  28  ASP28      -0.2456
     57  OD2       72.9260 -132.1670   36.2960 O.co2  28  ASP28      -0.2456
     58  N         72.5620 -132.0680   40.5360 N.3    31  CYS31      -0.1235
     59  CA        71.4550 -131.1450   40.7490 C.3    31  CYS31       0.1677
     60  C         71.5660 -130.4680   42.1130 C.2    31  CYS31       0.2270
     61  O         72.0450 -131.0690   43.0720 O.2    31  CYS31      -0.2867
     62  CB        70.1380 -131.9140   40.6480 C.3    31  CYS31       0.0956
     63  SG        68.6560 -130.9260   40.9090 S.3    31  CYS31      -0.0801
     64  N         69.6050 -129.1540   45.1520 N.3    33  LYS33      -0.1245
     65  CA        68.3010 -129.2630   45.8130 C.3    33  LYS33       0.1561
     66  C         68.1740 -128.3960   47.0590 C.2    33  LYS33       0.2260
     67  O         67.1070 -128.3380   47.6640 O.2    33  LYS33      -0.2867
     68  CB        68.0270 -130.7170   46.1780 C.3    33  LYS33       0.0271
     69  CG        67.9330 -131.6110   44.9640 C.3    33  LYS33       0.0035
     70  CD        67.6610 -133.0460   45.3540 C.3    33  LYS33       0.0206
     71  CE        67.9020 -133.9650   44.1740 C.3    33  LYS33       0.1093
     72  NZ        67.3260 -135.3120   44.4090 N.3    33  LYS33      -0.1314
     73  N         67.8540 -124.8450   48.4380 N.3    35  HIS35      -0.1241
     74  CA        67.4420 -123.5350   47.9680 C.3    35  HIS35       0.1621
     75  C         67.5250 -122.5100   49.0870 C.2    35  HIS35       0.2264
     76  O         67.2300 -122.8120   50.2410 O.2    35  HIS35      -0.2867
     77  CB        66.0090 -123.5860   47.4550 C.3    35  HIS35       0.0745
     78  CG        65.7560 -124.6670   46.4530 C.ar   35  HIS35       0.0817
     79  ND1       65.9560 -124.4900   45.1010 N.ar   35  HIS35      -0.2268
     80  CD2       65.3040 -125.9340   46.6040 C.ar   35  HIS35       0.1154
     81  CE1       65.6460 -125.6040   44.4630 C.ar   35  HIS35       0.1986
     82  NE2       65.2480 -126.4960   45.3520 N.ar   35  HIS35      -0.2212
     83  N         64.2450 -129.4320   48.8310 N.3    45  GLY45      -0.1210
     84  CA        63.0060 -129.7750   48.1390 C.3    45  GLY45       0.1956
     85  C         63.0300 -131.0990   47.4080 C.2    45  GLY45       0.2612
     86  O         64.0340 -131.4760   46.8000 O.2    45  GLY45      -0.2717
     87  N         61.8970 -131.7940   47.4750 N.am   46  ALA46      -0.1965
     88  CA        61.6780 -133.0500   46.7710 C.3    46  ALA46       0.1728
     89  C         60.4170 -132.9190   45.9390 C.2    46  ALA46       0.2617
     90  O         59.6380 -131.9910   46.1370 O.2    46  ALA46      -0.2715
     91  CB        61.5220 -134.1840   47.7680 C.3    46  ALA46       0.0334
     92  N         60.2190 -133.8530   45.0150 N.am   47  GLY47      -0.1940
     93  CA        59.0260 -133.8700   44.1750 C.3    47  GLY47       0.2014
     94  C         59.2830 -133.2410   42.8220 C.2    47  GLY47       0.2640
     95  O         60.3500 -133.4340   42.2320 O.2    47  GLY47      -0.2714
     96  N         58.3020 -132.4910   42.3290 N.am   48  THR48      -0.1936
     97  CA        58.4020 -131.8540   41.0220 C.3    48  THR48       0.2028
     98  C         59.4280 -130.7240   41.0750 C.2    48  THR48       0.2642
     99  O         59.2680 -129.7570   41.8170 O.2    48  THR48      -0.2714
    100  CB        57.0380 -131.3250   40.5540 C.3    48  THR48       0.1808
    101  OG1       56.0630 -132.3700   40.6610 O.3    48  THR48      -0.2208
    102  CG2       57.1090 -130.8460   39.1100 C.3    48  THR48       0.0379
    103  N         60.4820 -130.8690   40.2780 N.am   49  ALA49      -0.1963
    104  CA        61.6430 -129.9780   40.3220 C.3    49  ALA49       0.1728
    105  C         61.3320 -128.5080   40.0570 C.2    49  ALA49       0.2616
    106  O         61.7820 -127.6310   40.7950 O.2    49  ALA49      -0.2715
    107  CB        62.6960 -130.4650   39.3450 C.3    49  ALA49       0.0334
    108  N         60.5780 -128.2370   38.9990 N.am   50  ALA50      -0.1977
    109  CA        60.2050 -126.8650   38.6680 C.3    50  ALA50       0.1597
    110  C         59.3750 -126.2290   39.7860 C.2    50  ALA50       0.2287
    111  O         59.4980 -125.0330   40.0460 O.2    50  ALA50      -0.2864
    112  CB        59.4420 -126.8270   37.3580 C.3    50  ALA50       0.0319
    113  N         59.3980 -126.9770   43.2060 N.3    52  THR52      -0.1218
    114  CA        60.1930 -126.6820   44.4030 C.3    52  THR52       0.1862
    115  C         61.0260 -125.4230   44.2040 C.2    52  THR52       0.2287
    116  O         61.2010 -124.6290   45.1270 O.2    52  THR52      -0.2866
    117  CB        61.1460 -127.8340   44.7700 C.3    52  THR52       0.1770
    118  OG1       62.0060 -128.1190   43.6610 O.3    52  THR52      -0.2211
    119  CG2       60.3660 -129.0770   45.1400 C.3    52  THR52       0.0375
    120  N         61.2060 -137.3770   50.6030 N.3   128  GLY128     -0.1210
    121  CA        61.6210 -137.8890   49.3000 C.3   128  GLY128      0.1956
    122  C         61.5200 -139.3970   49.2010 C.2   128  GLY128      0.2612
    123  O         61.1140 -140.0650   50.1530 O.2   128  GLY128     -0.2717
    124  N         61.8990 -139.9320   48.0430 N.am  129  SER129     -0.1952
    125  CA        61.8320 -141.3770   47.7970 C.3   129  SER129      0.1924
    126  C         62.7980 -142.1670   48.6840 C.2   129  SER129      0.2314
    127  O         62.5610 -143.3400   48.9750 O.2   129  SER129     -0.2863
    128  CB        62.1020 -141.6880   46.3220 C.3   129  SER129      0.2116
    129  OG        63.2650 -141.0250   45.8630 O.3   129  SER129     -0.2180
    130  N         66.0830 -143.5430   43.2570 N.3   168  GLY168     -0.1225
    131  CA        65.6860 -142.1700   42.9720 C.3   168  GLY168      0.1811
    132  C         66.6810 -141.1500   43.4970 C.2   168  GLY168      0.2280
    133  O         66.5520 -139.9580   43.2160 O.2   168  GLY168     -0.2866
@<TRIPOS>BOND
     1    40    38   am
     2    38    39    2
     3    38    37    1
     4    37    36    1
     5    36    33    1
     6    35    34    2
     7    48    47    2
     8    46    49    1
     9    46    47    1
    10    46    45    1
    11    34    33    1
    12    34    41   am
    13    47    50   am
    14    33    32    1
    15    42    41    1
    16    42    43    1
    17    32    27   am
    18    43    44    2
    19    50    51    1
    20    51    54    1
    21    51    52    1
    22    57    55   ar
    23    27    28    2
    24    27    26    1
    25    54    55    1
    26    55    56   ar
    27    52    53    2
    28    26    29    1
    29    26    25    1
    30    22    21    2
    31   112   109    1
    32    24    23    1
    33    29    31    1
    34    29    30    1
    35    21    25   am
    36    21    20    1
    37    23    20    1
    38   109   108    1
    39   109   110    1
    40   108   105   am
    41   102   100    1
    42    20    19    1
    43   107   104    1
    44    19    10   am
    45   110   111    2
    46   105   104    1
    47   105   106    2
    48   103   104    1
    49   103    98   am
    50    13    14    1
    51    13    12    1
    52    58    59    1
    53   100   101    1
    54   100    97    1
    55    15    14    1
    56    15    16    2
    57    62    59    1
    58    62    63    1
    59    18    16    1
    60    59    60    1
    61    16    17    1
    62    97    98    1
    63    97    96    1
    64    10     9    1
    65    10    11    2
    66    98    99    2
    67     9    12    1
    68     9     8    1
    69    60    61    2
    70    95    94    2
    71    96    94   am
    72    94    93    1
    73   131   130    1
    74   131   132    1
    75   113   114    1
    76   133   132    2
    77   118   117    1
    78    71    72    1
    79    71    70    1
    80    93    92    1
    81   115   114    1
    82   115   116    2
    83   114   117    1
    84    81    79   ar
    85    81    82   ar
    86     6     5    1
    87   117   119    1
    88    69    70    1
    89    69    68    1
    90    92    89   am
    91    79    78   ar
    92    64    65    1
    93    82    80   ar
    94     1     2    1
    95    65    68    1
    96    65    66    1
    97   129   128    1
    98    89    90    2
    99    89    88    1
   100     5     2    1
   101     5     7    1
   102     2     3    1
   103   128   125    1
   104    78    80   ar
   105    78    77    1
   106    88    87    1
   107    88    91    1
   108    86    85    2
   109    66    67    2
   110    85    87   am
   111    85    84    1
   112    77    74    1
   113     3     4    2
   114   125   124    1
   115   125   126    1
   116    74    73    1
   117    74    75    1
   118   124   122   am
   119    84    83    1
   120   126   127    2
   121    75    76    2
   122   122   121    1
   123   122   123    2
   124   121   120    1
