@<TRIPOS>MOLECULE
tmp/5dkiY00.pdb
 116 107 0 0 0
SMALL
GASTEIGER

@<TRIPOS>ATOM
      1  N         57.0680 -151.3480    7.7830 N.3     1  THR1       -0.1218
      2  CA        57.4240 -152.3400    6.8160 C.3     1  THR1        0.1862
      3  C         56.8390 -151.9470    5.5170 C.2     1  THR1        0.2287
      4  O         55.7920 -151.3670    5.4420 O.2     1  THR1       -0.2866
      5  CB        56.8350 -153.6370    7.2720 C.3     1  THR1        0.1770
      6  OG1       57.6100 -154.1190    8.3310 O.3     1  THR1       -0.2211
      7  CG2       56.9070 -154.7040    6.2130 C.3     1  THR1        0.0375
      8  N         63.5980 -152.6480    8.0380 N.3    19  ARG19      -0.1231
      9  CA        63.4840 -152.0360    9.3630 C.3    19  ARG19       0.1694
     10  C         62.5270 -152.7970   10.2810 C.2    19  ARG19       0.2592
     11  O         61.5530 -153.3920    9.8260 O.2    19  ARG19      -0.2718
     12  CB        63.0510 -150.5680    9.2480 C.3    19  ARG19       0.0321
     13  CG        63.0690 -149.8130   10.5720 C.3    19  ARG19       0.0489
     14  CD        62.9420 -148.3110   10.3800 C.3    19  ARG19       0.2205
     15  NE        64.1580 -147.7210    9.8280 N.pl3  19  ARG19      -0.0865
     16  CZ        64.3550 -146.4170    9.6490 C.cat  19  ARG19       0.5346
     17  NH1       63.4170 -145.5340    9.9780 N.pl3  19  ARG19       0.1354
     18  NH2       65.5010 -145.9910    9.1370 N.pl3  19  ARG19       0.1354
     19  N         62.8250 -152.7720   11.5770 N.am   20  ALA20      -0.1966
     20  CA        61.9390 -153.3130   12.6080 C.3    20  ALA20       0.1728
     21  C         61.9100 -152.3450   13.7770 C.2    20  ALA20       0.2617
     22  O         62.9610 -151.9220   14.2590 O.2    20  ALA20      -0.2715
     23  CB        62.4260 -154.6670   13.0730 C.3    20  ALA20       0.0334
     24  N         60.7110 -151.9990   14.2360 N.am   21  THR21      -0.1937
     25  CA        60.5600 -151.0070   15.2920 C.3    21  THR21       0.2028
     26  C         59.8040 -151.5410   16.4990 C.2    21  THR21       0.2642
     27  O         59.1130 -152.5550   16.4210 O.2    21  THR21      -0.2714
     28  CB        59.8430 -149.7470   14.7720 C.3    21  THR21       0.1808
     29  OG1       58.6340 -150.1220   14.1010 O.3    21  THR21      -0.2208
     30  CG2       60.7440 -148.9840   13.8090 C.3    21  THR21       0.0379
     31  N         59.9740 -150.8420   17.6170 N.am   22  ALA22      -0.1977
     32  CA        59.2140 -151.0760   18.8360 C.3    22  ALA22       0.1597
     33  C         58.8030 -149.7070   19.3540 C.2    22  ALA22       0.2287
     34  O         59.4940 -149.1110   20.1770 O.2    22  ALA22      -0.2864
     35  CB        60.0640 -151.8030   19.8580 C.3    22  ALA22       0.0319
     36  N         64.5250 -151.0230   16.2890 N.3    27  ALA27      -0.1245
     37  CA        65.0770 -152.2330   16.8840 C.3    27  ALA27       0.1562
     38  C         66.1080 -152.9010   15.9860 C.2    27  ALA27       0.2260
     39  O         67.0640 -153.4950   16.4790 O.2    27  ALA27      -0.2867
     40  CB        63.9600 -153.2080   17.2090 C.3    27  ALA27       0.0290
     41  N         66.7620 -156.7010    9.0330 N.3    31  VAL31      -0.1245
     42  CA        65.7860 -157.7840    9.1350 C.3    31  VAL31       0.1561
     43  C         65.5370 -158.4080    7.7690 C.2    31  VAL31       0.2260
     44  O         65.4600 -157.7060    6.7620 O.2    31  VAL31      -0.2867
     45  CB        64.4470 -157.2920    9.7170 C.3    31  VAL31       0.0252
     46  CG1       63.4710 -158.4460    9.8860 C.3    31  VAL31       0.0019
     47  CG2       64.6700 -156.6090   11.0550 C.3    31  VAL31       0.0019
     48  N         62.9390 -159.8120    5.6760 N.3    33  LYS33      -0.1245
     49  CA        61.4870 -159.8660    5.5330 C.3    33  LYS33       0.1561
     50  C         61.0290 -160.7680    4.3880 C.2    33  LYS33       0.2260
     51  O         59.8320 -160.8790    4.1250 O.2    33  LYS33      -0.2867
     52  CB        60.9270 -158.4540    5.3750 C.3    33  LYS33       0.0271
     53  CG        61.1150 -157.6250    6.6310 C.3    33  LYS33       0.0035
     54  CD        60.5270 -156.2370    6.4950 C.3    33  LYS33       0.0206
     55  CE        60.9730 -155.3660    7.6530 C.3    33  LYS33       0.1093
     56  NZ        60.1570 -154.1330    7.7540 N.3    33  LYS33      -0.1314
     57  N         57.0400 -160.7430    4.7400 N.3    45  MET45      -0.1230
     58  CA        56.6810 -160.5960    6.1430 C.3    45  MET45       0.1702
     59  C         56.3470 -159.1440    6.4590 C.2    45  MET45       0.2592
     60  O         57.1140 -158.2380    6.1340 O.2    45  MET45      -0.2718
     61  CB        57.8240 -161.0950    7.0290 C.3    45  MET45       0.0401
     62  CG        58.0620 -162.5950    6.9070 C.3    45  MET45       0.0596
     63  SD        59.5120 -163.2590    7.7550 S.3    45  MET45      -0.1393
     64  CE        59.8780 -161.9980    8.9750 C.3    45  MET45       0.0692
     65  N         55.1850 -158.9380    7.0750 N.am   46  ALA46      -0.1966
     66  CA        54.7510 -157.6160    7.5180 C.3    46  ALA46       0.1728
     67  C         53.8130 -157.7660    8.7040 C.2    46  ALA46       0.2617
     68  O         52.9720 -158.6660    8.7230 O.2    46  ALA46      -0.2715
     69  CB        54.0510 -156.8800    6.3900 C.3    46  ALA46       0.0334
     70  N         53.9530 -156.8770    9.6830 N.am   47  GLY47      -0.1940
     71  CA        53.1670 -156.9380   10.9100 C.3    47  GLY47       0.2014
     72  C         54.0360 -157.4250   12.0480 C.2    47  GLY47       0.2639
     73  O         55.1340 -156.9100   12.2570 O.2    47  GLY47      -0.2714
     74  N         53.5500 -158.4240   12.7800 N.am   48  GLY48      -0.1939
     75  CA        54.2880 -158.9890   13.9020 C.3    48  GLY48       0.2014
     76  C         55.4580 -159.8130   13.4100 C.2    48  GLY48       0.2638
     77  O         55.2870 -160.7110   12.5840 O.2    48  GLY48      -0.2714
     78  N         56.6490 -159.5000   13.9160 N.am   49  ALA49      -0.1977
     79  CA        57.8730 -160.1760   13.4980 C.3    49  ALA49       0.1597
     80  C         57.8300 -161.6590   13.8350 C.2    49  ALA49       0.2287
     81  O         58.0990 -162.5020   12.9840 O.2    49  ALA49      -0.2864
     82  CB        59.0810 -159.5260   14.1540 C.3    49  ALA49       0.0319
     83  N         54.9540 -163.6780   11.8890 N.3    52  CYS52      -0.1235
     84  CA        55.3480 -163.9060   10.5040 C.3    52  CYS52       0.1677
     85  C         56.4780 -164.9290   10.3900 C.2    52  CYS52       0.2270
     86  O         56.3730 -165.8770    9.6140 O.2    52  CYS52      -0.2867
     87  CB        55.7570 -162.5940    9.8360 C.3    52  CYS52       0.0956
     88  SG        54.3800 -161.4920    9.4490 S.3    52  CYS52      -0.0801
     89  N         49.0580 -160.9090   14.1160 N.3    96  SER96      -0.1217
     90  CA        49.2120 -159.7310   13.2690 C.3    96  SER96       0.1889
     91  C         50.1370 -160.0570   12.1030 C.2    96  SER96       0.2288
     92  O         51.3600 -160.0790   12.2540 O.2    96  SER96      -0.2866
     93  CB        49.7860 -158.5720   14.0850 C.3    96  SER96       0.2089
     94  OG        49.8750 -157.3900   13.3080 O.3    96  SER96      -0.2183
     95  N         52.0080 -153.3100    4.3100 N.3   130  GLY130     -0.1210
     96  CA        52.7290 -152.7290    5.4360 C.3   130  GLY130      0.1956
     97  C         52.3500 -151.2840    5.6810 C.2   130  GLY130      0.2612
     98  O         51.4680 -150.7430    5.0180 O.2   130  GLY130     -0.2717
     99  N         53.0290 -150.6600    6.6400 N.am  131  SER131     -0.1952
    100  CA        52.7680 -149.2670    7.0090 C.3   131  SER131      0.1924
    101  C         53.1250 -148.2730    5.9020 C.2   131  SER131      0.2314
    102  O         52.5990 -147.1600    5.8800 O.2   131  SER131     -0.2863
    103  CB        53.5240 -148.9050    8.2910 C.3   131  SER131      0.2116
    104  OG        54.8310 -149.4520    8.2930 O.3   131  SER131     -0.2180
    105  N         58.3900 -145.9620    9.7640 N.3   170  TYR170     -0.1241
    106  CA        58.5400 -147.3470   10.2140 C.3   170  TYR170      0.1605
    107  C         59.0440 -148.2830    9.1030 C.2   170  TYR170      0.2264
    108  O         58.9480 -149.5060    9.2180 O.2   170  TYR170     -0.2867
    109  CB        57.2170 -147.8400   10.8070 C.3   170  TYR170      0.0534
    110  CG        56.7510 -146.9730   11.9570 C.ar  170  TYR170     -0.0201
    111  CD1       57.4650 -146.9290   13.1490 C.ar  170  TYR170     -0.0009
    112  CD2       55.6160 -146.1750   11.8450 C.ar  170  TYR170     -0.0009
    113  CE1       57.0590 -146.1270   14.2000 C.ar  170  TYR170      0.0417
    114  CE2       55.2030 -145.3710   12.8950 C.ar  170  TYR170      0.0417
    115  CZ        55.9280 -145.3520   14.0690 C.ar  170  TYR170      0.1957
    116  OH        55.5200 -144.5560   15.1140 O.3   170  TYR170     -0.2866
@<TRIPOS>BOND
     1    51    50    2
     2    95    96    1
     3    50    49    1
     4    57    58    1
     5    98    97    2
     6    52    49    1
     7    52    53    1
     8    96    97    1
     9     4     3    2
    10     3     2    1
    11    49    48    1
    12    97    99   am
    13   102   101    2
    14   101   100    1
    15    60    59    2
    16    58    59    1
    17    58    61    1
    18     7     5    1
    19    69    66    1
    20    59    65   am
    21    54    53    1
    22    54    55    1
    23    99   100    1
    24    44    43    2
    25     2     5    1
    26     2     1    1
    27    62    61    1
    28    62    63    1
    29   100   103    1
    30    65    66    1
    31     5     6    1
    32    66    67    1
    33    55    56    1
    34    63    64    1
    35    43    42    1
    36     8     9    1
    37   103   104    1
    38    67    68    2
    39    67    70   am
    40    41    42    1
    41   107   108    2
    42   107   106    1
    43    42    45    1
    44    18    16    1
    45    12     9    1
    46    12    13    1
    47     9    10    1
    48    88    87    1
    49    86    85    2
    50    16    15    2
    51    16    17    1
    52    70    71    1
    53    45    46    1
    54    45    47    1
    55   105   106    1
    56    11    10    2
    57    15    14    1
    58    87    84    1
    59   106   109    1
    60    10    19   am
    61    14    13    1
    62    85    84    1
    63    84    83    1
    64   109   110    1
    65    71    72    1
    66    19    20    1
    67   112   110   ar
    68   112   114   ar
    69   110   111   ar
    70    72    73    2
    71    72    74   am
    72    91    92    2
    73    91    90    1
    74    77    76    2
    75    20    23    1
    76    20    21    1
    77    74    75    1
    78   114   115   ar
    79    81    80    2
    80   111   113   ar
    81    90    93    1
    82    90    89    1
    83    94    93    1
    84    76    75    1
    85    76    78   am
    86    79    80    1
    87    79    78    1
    88    79    82    1
    89    21    24   am
    90    21    22    2
    91    30    28    1
    92   115   113   ar
    93   115   116    1
    94    29    28    1
    95    24    25    1
    96    28    25    1
    97    25    26    1
    98    38    39    2
    99    38    37    1
   100    36    37    1
   101    27    26    2
   102    26    31   am
   103    37    40    1
   104    31    32    1
   105    32    33    1
   106    32    35    1
   107    33    34    2
