@<TRIPOS>MOLECULE
tmp/5dkiN00.pdb
 127 117 0 0 0
SMALL
GASTEIGER

@<TRIPOS>ATOM
      1  N         43.7220 -142.4730   63.9030 N.3     1  THR1       -0.1218
      2  CA        43.8260 -141.3940   64.8380 C.3     1  THR1        0.1862
      3  C         42.8500 -141.6980   65.9300 C.2     1  THR1        0.2287
      4  O         41.7920 -142.2100   65.6890 O.2     1  THR1       -0.2866
      5  CB        43.4750 -140.1140   64.1030 C.3     1  THR1        0.1770
      6  OG1       44.5920 -139.6720   63.3610 O.3     1  THR1       -0.2211
      7  CG2       43.1170 -139.0030   65.0580 C.3     1  THR1        0.0375
      8  N         50.3810 -140.1420   66.0390 N.3    19  ARG19      -0.1231
      9  CA        50.7640 -140.8030   64.7930 C.3    19  ARG19       0.1694
     10  C         50.1640 -140.1300   63.5600 C.2    19  ARG19       0.2593
     11  O         48.9680 -139.8530   63.5100 O.2    19  ARG19      -0.2718
     12  CB        50.3600 -142.2760   64.8380 C.3    19  ARG19       0.0321
     13  CG        50.7670 -143.0680   63.6090 C.3    19  ARG19       0.0489
     14  CD        50.6270 -144.5610   63.8380 C.3    19  ARG19       0.2205
     15  NE        51.6410 -145.0720   64.7600 N.pl3  19  ARG19      -0.0865
     16  CZ        51.8490 -146.3600   65.0160 C.cat  19  ARG19       0.5346
     17  NH1       51.1150 -147.2970   64.4220 N.pl3  19  ARG19       0.1354
     18  NH2       52.8060 -146.7150   65.8660 N.pl3  19  ARG19       0.1354
     19  N         51.0180 -139.8730   62.5710 N.am   20  THR20      -0.1939
     20  CA        50.5980 -139.3890   61.2590 C.3    20  THR20       0.2028
     21  C         51.0790 -140.3930   60.2240 C.2    20  THR20       0.2643
     22  O         52.2560 -140.7550   60.2110 O.2    20  THR20      -0.2714
     23  CB        51.2010 -138.0080   60.9480 C.3    20  THR20       0.1808
     24  OG1       50.8410 -137.0850   61.9810 O.3    20  THR20      -0.2208
     25  CG2       50.6960 -137.4770   59.6120 C.3    20  THR20       0.0379
     26  N         50.1720 -140.8400   59.3580 N.am   21  THR21      -0.1936
     27  CA        50.4860 -141.8940   58.4000 C.3    21  THR21       0.2028
     28  C         50.2720 -141.4910   56.9510 C.2    21  THR21       0.2643
     29  O         49.3730 -140.7170   56.6270 O.2    21  THR21      -0.2714
     30  CB        49.6610 -143.1640   58.6660 C.3    21  THR21       0.1808
     31  OG1       48.2890 -142.8130   58.8850 O.3    21  THR21      -0.2208
     32  CG2       50.1960 -143.8920   59.8820 C.3    21  THR21       0.0379
     33  N         51.1340 -142.0310   56.0960 N.am   22  THR22      -0.1936
     34  CA        50.9940 -141.9580   54.6540 C.3    22  THR22       0.2028
     35  C         50.9210 -143.4030   54.1860 C.2    22  THR22       0.2642
     36  O         51.9410 -144.0190   53.8740 O.2    22  THR22      -0.2714
     37  CB        52.1970 -141.2550   54.0020 C.3    22  THR22       0.1808
     38  OG1       52.3500 -139.9470   54.5630 O.3    22  THR22      -0.2208
     39  CG2       51.9970 -141.1290   52.5010 C.3    22  THR22       0.0379
     40  N         49.7110 -143.9470   54.1680 N.am   23  GLY23      -0.1954
     41  CA        49.5160 -145.3630   53.9050 C.3    23  GLY23       0.1869
     42  C         49.8510 -146.1320   55.1670 C.2    23  GLY23       0.2309
     43  O         49.2020 -145.9560   56.1980 O.2    23  GLY23      -0.2863
     44  N         54.6900 -141.1900   58.8930 N.3    27  ALA27      -0.1245
     45  CA        55.4080 -139.9800   58.4890 C.3    27  ALA27       0.1562
     46  C         55.8740 -139.1560   59.6880 C.2    27  ALA27       0.2260
     47  O         56.8920 -138.4700   59.6160 O.2    27  ALA27      -0.2867
     48  CB        54.5350 -139.1330   57.5790 C.3    27  ALA27       0.0290
     49  N         53.5260 -136.4680   66.5580 N.3    31  THR31      -0.1218
     50  CA        52.6380 -135.3920   66.1210 C.3    31  THR31       0.1862
     51  C         51.8680 -134.7840   67.2910 C.2    31  THR31       0.2287
     52  O         51.5640 -135.4750   68.2660 O.2    31  THR31      -0.2866
     53  CB        51.6160 -135.9200   65.0960 C.3    31  THR31       0.1770
     54  OG1       52.2910 -136.7150   64.1160 O.3    31  THR31      -0.2211
     55  CG2       50.8910 -134.7820   64.3990 C.3    31  THR31       0.0375
     56  N         48.3700 -133.3210   67.8380 N.3    33  LYS33      -0.1245
     57  CA        47.0260 -133.1940   67.2720 C.3    33  LYS33       0.1561
     58  C         46.0920 -132.3550   68.1360 C.2    33  LYS33       0.2260
     59  O         44.9460 -132.1110   67.7570 O.2    33  LYS33      -0.2867
     60  CB        46.4180 -134.5780   67.0820 C.3    33  LYS33       0.0271
     61  CG        47.2260 -135.4610   66.1540 C.3    33  LYS33       0.0035
     62  CD        46.6670 -136.8660   66.1240 C.3    33  LYS33       0.0206
     63  CE        47.5370 -137.7650   65.2690 C.3    33  LYS33       0.1093
     64  NZ        46.8450 -139.0370   64.9380 N.3    33  LYS33      -0.1314
     65  N         42.2060 -132.8160   66.2860 N.3    45  ARG45      -0.1231
     66  CA        42.1200 -132.9250   64.8370 C.3    45  ARG45       0.1694
     67  C         42.2220 -134.3720   64.3710 C.2    45  ARG45       0.2593
     68  O         43.0300 -135.1480   64.8870 O.2    45  ARG45      -0.2718
     69  CB        43.2070 -132.0760   64.1800 C.3    45  ARG45       0.0321
     70  CG        43.1160 -130.6030   64.5440 C.3    45  ARG45       0.0489
     71  CD        44.1520 -129.7690   63.8110 C.3    45  ARG45       0.2205
     72  NE        45.5090 -130.0990   64.2430 N.pl3  45  ARG45      -0.0865
     73  CZ        46.4110 -130.7610   63.5170 C.cat  45  ARG45       0.5346
     74  NH1       46.1390 -131.1900   62.2860 N.pl3  45  ARG45       0.1354
     75  NH2       47.6090 -130.9970   64.0360 N.pl3  45  ARG45       0.1354
     76  N         41.3780 -134.7190   63.4010 N.am   46  SER46      -0.1938
     77  CA        41.4140 -136.0170   62.7360 C.3    46  SER46       0.2055
     78  C         41.0140 -135.8210   61.2800 C.2    46  SER46       0.2644
     79  O         40.2610 -134.8980   60.9600 O.2    46  SER46      -0.2714
     80  CB        40.4730 -137.0140   63.4130 C.3    46  SER46       0.2130
     81  OG        39.1180 -136.7810   63.0630 O.3    46  SER46      -0.2179
     82  N         41.5210 -136.6920   60.4110 N.am   47  GLY47      -0.1939
     83  CA        41.2850 -136.5960   58.9730 C.3    47  GLY47       0.2014
     84  C         42.5390 -136.1110   58.2790 C.2    47  GLY47       0.2640
     85  O         43.6480 -136.4510   58.6900 O.2    47  GLY47      -0.2714
     86  N         42.3710 -135.3130   57.2280 N.am   48  SER48      -0.1935
     87  CA        43.5120 -134.7470   56.5170 C.3    48  SER48       0.2055
     88  C         44.2510 -133.7720   57.4240 C.2    48  SER48       0.2643
     89  O         43.6350 -132.9440   58.0910 O.2    48  SER48      -0.2714
     90  CB        43.0650 -134.0270   55.2470 C.3    48  SER48       0.2130
     91  OG        44.1690 -133.4200   54.5940 O.3    48  SER48      -0.2179
     92  N         45.5740 -133.8820   57.4470 N.am   49  ALA49      -0.1963
     93  CA        46.4050 -133.0030   58.2620 C.3    49  ALA49       0.1728
     94  C         46.4480 -131.6080   57.6560 C.2    49  ALA49       0.2616
     95  O         46.4480 -130.6160   58.3760 O.2    49  ALA49      -0.2715
     96  CB        47.8080 -133.5680   58.3830 C.3    49  ALA49       0.0334
     97  N         46.4780 -131.5440   56.3270 N.am   50  ALA50      -0.1977
     98  CA        46.4930 -130.2720   55.6160 C.3    50  ALA50       0.1597
     99  C         45.1900 -129.5120   55.8380 C.2    50  ALA50       0.2287
    100  O         45.2050 -128.3210   56.1510 O.2    50  ALA50      -0.2864
    101  CB        46.7160 -130.5050   54.1320 C.3    50  ALA50       0.0319
    102  N         42.8100 -129.9650   58.2320 N.3    52  THR52      -0.1218
    103  CA        42.5660 -129.6260   59.6330 C.3    52  THR52       0.1862
    104  C         43.4800 -128.5150   60.1400 C.2    52  THR52       0.2287
    105  O         43.0850 -127.7380   61.0090 O.2    52  THR52      -0.2866
    106  CB        42.7110 -130.8500   60.5580 C.3    52  THR52       0.1770
    107  OG1       43.9890 -131.4660   60.3570 O.3    52  THR52      -0.2211
    108  CG2       41.6010 -131.8510   60.2900 C.3    52  THR52       0.0375
    109  N         38.1150 -133.0190   54.2610 N.3    94  THR94      -0.1218
    110  CA        38.0720 -134.2790   54.9870 C.3    94  THR94       0.1862
    111  C         38.6230 -133.9990   56.3810 C.2    94  THR94       0.2287
    112  O         39.8130 -134.1910   56.6440 O.2    94  THR94      -0.2866
    113  CB        38.9100 -135.3640   54.2870 C.3    94  THR94       0.1770
    114  OG1       38.4890 -135.4930   52.9230 O.3    94  THR94      -0.2211
    115  CG2       38.7510 -136.7050   54.9870 C.3    94  THR94       0.0375
    116  N         39.8020 -142.7570   63.4040 N.3   129  SER129     -0.1217
    117  CA        39.6810 -144.1570   62.9920 C.3   129  SER129      0.1889
    118  C         39.7350 -145.1390   64.1640 C.2   129  SER129      0.2288
    119  O         39.1070 -146.1950   64.1170 O.2   129  SER129     -0.2866
    120  CB        40.7880 -144.5040   61.9930 C.3   129  SER129      0.2089
    121  OG        42.0710 -144.2010   62.5200 O.3   129  SER129     -0.2183
    122  N         46.4920 -146.9180   62.4590 N.3   168  SER168     -0.1217
    123  CA        46.6600 -145.4910   62.1830 C.3   168  SER168      0.1889
    124  C         46.8820 -144.6700   63.4560 C.2   168  SER168      0.2288
    125  O         47.0960 -143.4600   63.3850 O.2   168  SER168     -0.2866
    126  CB        45.4360 -144.9560   61.4440 C.3   168  SER168      0.2089
    127  OG        45.1620 -145.7460   60.3020 O.3   168  SER168     -0.2183
@<TRIPOS>BOND
     1    39    37    1
     2   114   113    1
     3    36    35    2
     4    41    40    1
     5    41    42    1
     6    37    38    1
     7    37    34    1
     8   101    98    1
     9    40    35   am
    10    35    34    1
    11   109   110    1
    12   113   110    1
    13   113   115    1
    14    91    90    1
    15    34    33    1
    16   110   111    1
    17    42    43    2
    18    90    87    1
    19    98    99    1
    20    98    97    1
    21    99   100    2
    22    33    28   am
    23    97    94   am
    24   111   112    2
    25    87    86    1
    26    87    88    1
    27    29    28    2
    28    28    27    1
    29    86    84   am
    30    88    92   am
    31    88    89    2
    32    92    93    1
    33    48    45    1
    34    94    93    1
    35    94    95    2
    36   102   103    1
    37    93    96    1
    38    84    85    2
    39    84    83    1
    40    27    30    1
    41    27    26    1
    42    45    44    1
    43    45    46    1
    44    30    31    1
    45    30    32    1
    46    83    82    1
    47    26    21   am
    48    25    23    1
    49    47    46    2
    50   103   104    1
    51   103   106    1
    52   104   105    2
    53    22    21    2
    54    21    20    1
    55   108   106    1
    56   127   126    1
    57   107   106    1
    58    82    78   am
    59    23    20    1
    60    23    24    1
    61    79    78    2
    62    20    19    1
    63    78    77    1
    64   126   123    1
    65   120   121    1
    66   120   117    1
    67   123   122    1
    68   123   124    1
    69    74    73    1
    70    19    10   am
    71    77    76    1
    72    77    80    1
    73   117   116    1
    74   117   118    1
    75    81    80    1
    76     6     5    1
    77   125   124    2
    78    76    67   am
    79    11    10    2
    80    73    75    1
    81    73    72    2
    82    10     9    1
    83    13    14    1
    84    13    12    1
    85    71    72    1
    86    71    70    1
    87    14    15    1
    88     1     2    1
    89     5     2    1
    90     5     7    1
    91    54    53    1
    92   119   118    2
    93    69    70    1
    94    69    66    1
    95    67    66    1
    96    67    68    2
    97    55    53    1
    98    17    16    1
    99    15    16    2
   100     9    12    1
   101     9     8    1
   102    66    65    1
   103     2     3    1
   104    64    63    1
   105    16    18    1
   106    53    50    1
   107    63    62    1
   108     4     3    2
   109    50    49    1
   110    50    51    1
   111    62    61    1
   112    61    60    1
   113    60    57    1
   114    57    56    1
   115    57    58    1
   116    51    52    2
   117    59    58    2
