@<TRIPOS>MOLECULE
tmp/5dkjN00.pdb
 129 120 0 0 0
SMALL
GASTEIGER

@<TRIPOS>ATOM
      1  N         43.6490 -143.2640   63.8130 N.3     1  THR1       -0.1218
      2  CA        43.6650 -142.1930   64.7540 C.3     1  THR1        0.1862
      3  C         42.6970 -142.4800   65.8490 C.2     1  THR1        0.2287
      4  O         41.6400 -142.9700   65.6420 O.2     1  THR1       -0.2866
      5  CB        43.2760 -140.9450   63.9920 C.3     1  THR1        0.1770
      6  OG1       44.3880 -140.5390   63.2280 O.3     1  THR1       -0.2211
      7  CG2       42.8720 -139.8020   64.8950 C.3     1  THR1        0.0375
      8  N         50.1830 -140.7590   66.0300 N.3    19  ARG19      -0.1231
      9  CA        50.5670 -141.4220   64.7870 C.3    19  ARG19       0.1694
     10  C         49.9690 -140.7410   63.5570 C.2    19  ARG19       0.2593
     11  O         48.7760 -140.4520   63.5130 O.2    19  ARG19      -0.2718
     12  CB        50.1540 -142.8930   64.8280 C.3    19  ARG19       0.0321
     13  CG        50.5400 -143.6800   63.5880 C.3    19  ARG19       0.0489
     14  CD        50.4110 -145.1760   63.8090 C.3    19  ARG19       0.2205
     15  NE        51.4250 -145.6890   64.7300 N.pl3  19  ARG19      -0.0865
     16  CZ        51.6030 -146.9760   65.0160 C.cat  19  ARG19       0.5346
     17  NH1       50.8350 -147.9070   64.4540 N.pl3  19  ARG19       0.1354
     18  NH2       52.5610 -147.3360   65.8630 N.pl3  19  ARG19       0.1354
     19  N         50.8210 -140.4850   62.5680 N.am   20  THR20      -0.1939
     20  CA        50.3980 -139.9970   61.2590 C.3    20  THR20       0.2028
     21  C         50.8740 -141.0040   60.2260 C.2    20  THR20       0.2643
     22  O         52.0510 -141.3670   60.2070 O.2    20  THR20      -0.2714
     23  CB        51.0090 -138.6200   60.9400 C.3    20  THR20       0.1808
     24  OG1       50.6430 -137.6840   61.9600 O.3    20  THR20      -0.2208
     25  CG2       50.5230 -138.1020   59.5910 C.3    20  THR20       0.0379
     26  N         49.9610 -141.4540   59.3690 N.am   21  THR21      -0.1936
     27  CA        50.2680 -142.5130   58.4150 C.3    21  THR21       0.2028
     28  C         50.0770 -142.1040   56.9620 C.2    21  THR21       0.2642
     29  O         49.2410 -141.2600   56.6310 O.2    21  THR21      -0.2714
     30  CB        49.4170 -143.7690   58.6730 C.3    21  THR21       0.1808
     31  OG1       48.0440 -143.3970   58.8440 O.3    21  THR21      -0.2208
     32  CG2       49.9020 -144.4870   59.9160 C.3    21  THR21       0.0379
     33  N         50.8900 -142.7220   56.1140 N.am   22  THR22      -0.1950
     34  CA        50.7670 -142.6380   54.6720 C.3    22  THR22       0.1897
     35  C         50.6880 -144.0770   54.1890 C.2    22  THR22       0.2313
     36  O         51.7010 -144.6850   53.8390 O.2    22  THR22      -0.2863
     37  CB        51.9830 -141.9360   54.0480 C.3    22  THR22       0.1794
     38  OG1       52.1270 -140.6360   54.6270 O.3    22  THR22      -0.2208
     39  CG2       51.8190 -141.8010   52.5420 C.3    22  THR22       0.0378
     40  N         53.0050 -146.8150   56.1410 N.3    25  TYR25      -0.1241
     41  CA        54.2010 -146.1330   56.6330 C.3    25  TYR25       0.1605
     42  C         53.7960 -145.0560   57.6230 C.2    25  TYR25       0.2264
     43  O         52.9020 -144.2600   57.3450 O.2    25  TYR25      -0.2867
     44  CB        54.9990 -145.5000   55.4900 C.3    25  TYR25       0.0534
     45  CG        56.2280 -144.7450   55.9600 C.ar   25  TYR25      -0.0201
     46  CD1       57.2650 -145.4040   56.6140 C.ar   25  TYR25      -0.0009
     47  CD2       56.3510 -143.3710   55.7580 C.ar   25  TYR25      -0.0009
     48  CE1       58.3880 -144.7210   57.0510 C.ar   25  TYR25       0.0417
     49  CE2       57.4730 -142.6790   56.1920 C.ar   25  TYR25       0.0417
     50  CZ        58.4870 -143.3580   56.8380 C.ar   25  TYR25       0.1957
     51  OH        59.6030 -142.6790   57.2690 O.3    25  TYR25      -0.2866
     52  N         54.4980 -141.7990   58.9050 N.3    27  ALA27      -0.1245
     53  CA        55.2230 -140.5910   58.5090 C.3    27  ALA27       0.1562
     54  C         55.6830 -139.7690   59.7110 C.2    27  ALA27       0.2260
     55  O         56.7110 -139.0980   59.6530 O.2    27  ALA27      -0.2867
     56  CB        54.3580 -139.7410   57.5940 C.3    27  ALA27       0.0290
     57  N         53.2690 -137.0540   66.5250 N.3    31  THR31      -0.1218
     58  CA        52.3840 -135.9820   66.0760 C.3    31  THR31       0.1862
     59  C         51.6120 -135.3720   67.2450 C.2    31  THR31       0.2287
     60  O         51.2930 -136.0640   68.2150 O.2    31  THR31      -0.2866
     61  CB        51.3720 -136.5130   65.0400 C.3    31  THR31       0.1770
     62  OG1       52.0630 -137.2820   64.0490 O.3    31  THR31      -0.2211
     63  CG2       50.6280 -135.3770   64.3570 C.3    31  THR31       0.0375
     64  N         48.1390 -133.9140   67.8080 N.3    33  LYS33      -0.1245
     65  CA        46.7980 -133.7910   67.2390 C.3    33  LYS33       0.1561
     66  C         45.8700 -132.9210   68.0790 C.2    33  LYS33       0.2260
     67  O         44.7360 -132.6560   67.6760 O.2    33  LYS33      -0.2867
     68  CB        46.1810 -135.1760   67.0700 C.3    33  LYS33       0.0271
     69  CG        46.9650 -136.0620   66.1230 C.3    33  LYS33       0.0035
     70  CD        46.4270 -137.4780   66.1140 C.3    33  LYS33       0.0206
     71  CE        47.2910 -138.3640   65.2380 C.3    33  LYS33       0.1093
     72  NZ        46.6180 -139.6490   64.9180 N.3    33  LYS33      -0.1314
     73  N         42.0260 -133.3870   66.2600 N.3    45  ARG45      -0.1231
     74  CA        41.9490 -133.5060   64.8100 C.3    45  ARG45       0.1694
     75  C         42.0550 -134.9540   64.3540 C.2    45  ARG45       0.2593
     76  O         42.8770 -135.7200   64.8620 O.2    45  ARG45      -0.2718
     77  CB        43.0430 -132.6650   64.1550 C.3    45  ARG45       0.0321
     78  CG        42.9650 -131.1940   64.5240 C.3    45  ARG45       0.0489
     79  CD        44.0100 -130.3680   63.7990 C.3    45  ARG45       0.2205
     80  NE        45.3630 -130.7050   64.2420 N.pl3  45  ARG45      -0.0865
     81  CZ        46.2740 -131.3540   63.5170 C.cat  45  ARG45       0.5346
     82  NH1       46.0150 -131.7640   62.2760 N.pl3  45  ARG45       0.1354
     83  NH2       47.4690 -131.5950   64.0440 N.pl3  45  ARG45       0.1354
     84  N         41.2000 -135.3130   63.3990 N.am   46  SER46      -0.1938
     85  CA        41.2520 -136.6090   62.7270 C.3    46  SER46       0.2055
     86  C         40.8850 -136.4180   61.2580 C.2    46  SER46       0.2644
     87  O         40.1790 -135.4690   60.9080 O.2    46  SER46      -0.2714
     88  CB        40.3090 -137.6160   63.3920 C.3    46  SER46       0.2130
     89  OG        38.9570 -137.4080   63.0120 O.3    46  SER46      -0.2179
     90  N         41.3700 -137.3180   60.4080 N.am   47  GLY47      -0.1939
     91  CA        41.1430 -137.2340   58.9650 C.3    47  GLY47       0.2014
     92  C         42.3970 -136.7500   58.2660 C.2    47  GLY47       0.2640
     93  O         43.5060 -137.1160   58.6530 O.2    47  GLY47      -0.2714
     94  N         42.2260 -135.9250   57.2380 N.am   48  SER48      -0.1935
     95  CA        43.3640 -135.3570   56.5180 C.3    48  SER48       0.2055
     96  C         44.1010 -134.3620   57.4080 C.2    48  SER48       0.2643
     97  O         43.4800 -133.5070   58.0350 O.2    48  SER48      -0.2714
     98  CB        42.8970 -134.6600   55.2400 C.3    48  SER48       0.2130
     99  OG        43.9850 -134.0660   54.5510 O.3    48  SER48      -0.2179
    100  N         45.4240 -134.4830   57.4630 N.am   49  ALA49      -0.1963
    101  CA        46.2510 -133.5850   58.2680 C.3    49  ALA49       0.1728
    102  C         46.2870 -132.1920   57.6500 C.2    49  ALA49       0.2616
    103  O         46.2590 -131.1930   58.3610 O.2    49  ALA49      -0.2715
    104  CB        47.6600 -134.1370   58.4070 C.3    49  ALA49       0.0334
    105  N         46.3410 -132.1370   56.3230 N.am   50  ALA50      -0.1977
    106  CA        46.3510 -130.8680   55.6030 C.3    50  ALA50       0.1597
    107  C         45.0450 -130.1050   55.8000 C.2    50  ALA50       0.2287
    108  O         45.0550 -128.9070   56.0920 O.2    50  ALA50      -0.2864
    109  CB        46.5920 -131.1090   54.1250 C.3    50  ALA50       0.0319
    110  N         42.6600 -130.5570   58.1960 N.3    52  THR52      -0.1218
    111  CA        42.4230 -130.2110   59.5960 C.3    52  THR52       0.1862
    112  C         43.3240 -129.0760   60.0780 C.2    52  THR52       0.2287
    113  O         42.9090 -128.2710   60.9120 O.2    52  THR52      -0.2866
    114  CB        42.5910 -131.4270   60.5260 C.3    52  THR52       0.1770
    115  OG1       43.8710 -132.0350   60.3090 O.3    52  THR52      -0.2211
    116  CG2       41.4850 -132.4380   60.2760 C.3    52  THR52       0.0375
    117  N         38.0220 -133.6690   54.2690 N.3    94  THR94      -0.1218
    118  CA        37.9730 -134.9280   54.9950 C.3    94  THR94       0.1862
    119  C         38.5080 -134.6430   56.3970 C.2    94  THR94       0.2287
    120  O         39.6950 -134.8270   56.6750 O.2    94  THR94      -0.2866
    121  CB        38.8130 -136.0150   54.2960 C.3    94  THR94       0.1770
    122  OG1       38.3700 -136.1630   52.9420 O.3    94  THR94      -0.2211
    123  CG2       38.6770 -137.3500   55.0070 C.3    94  THR94       0.0375
    124  N         46.3110 -147.5730   62.4750 N.3   168  SER168     -0.1217
    125  CA        46.4550 -146.1490   62.1770 C.3   168  SER168      0.1889
    126  C         46.6530 -145.3090   63.4390 C.2   168  SER168      0.2288
    127  O         46.8160 -144.0920   63.3540 O.2   168  SER168     -0.2866
    128  CB        45.2250 -145.6460   61.4180 C.3   168  SER168      0.2089
    129  OG        45.0010 -146.4230   60.2530 O.3   168  SER168     -0.2183
@<TRIPOS>BOND
     1    39    37    1
     2   122   121    1
     3    36    35    2
     4    37    38    1
     5    37    34    1
     6   109   106    1
     7    35    34    1
     8   117   118    1
     9   121   118    1
    10   121   123    1
    11    99    98    1
    12    34    33    1
    13   118   119    1
    14    98    95    1
    15    44    45    1
    16    44    41    1
    17   106   107    1
    18   106   105    1
    19    47    45   ar
    20    47    49   ar
    21   107   108    2
    22    45    46   ar
    23    33    28   am
    24    40    41    1
    25    49    50   ar
    26   105   102   am
    27   119   120    2
    28    95    94    1
    29    95    96    1
    30    46    48   ar
    31    29    28    2
    32    41    42    1
    33    50    48   ar
    34    50    51    1
    35    28    27    1
    36    94    92   am
    37    43    42    2
    38    96   100   am
    39    96    97    2
    40   100   101    1
    41    56    53    1
    42   102   101    1
    43   102   103    2
    44   110   111    1
    45    92    93    2
    46    92    91    1
    47   101   104    1
    48    27    30    1
    49    27    26    1
    50    53    52    1
    51    53    54    1
    52    30    31    1
    53    30    32    1
    54    91    90    1
    55    26    21   am
    56    25    23    1
    57   111   112    1
    58   111   114    1
    59    55    54    2
    60   112   113    2
    61    22    21    2
    62    21    20    1
    63   129   128    1
    64   116   114    1
    65   115   114    1
    66    90    86   am
    67    87    86    2
    68    23    20    1
    69    23    24    1
    70    86    85    1
    71    20    19    1
    72   128   125    1
    73   125   124    1
    74   125   126    1
    75    82    81    1
    76    19    10   am
    77    85    88    1
    78    85    84    1
    79    89    88    1
    80     6     5    1
    81   127   126    2
    82    84    75   am
    83    11    10    2
    84    81    83    1
    85    81    80    2
    86    10     9    1
    87    13    14    1
    88    13    12    1
    89    79    80    1
    90    79    78    1
    91    14    15    1
    92     1     2    1
    93     5     2    1
    94     5     7    1
    95    62    61    1
    96    77    78    1
    97    77    74    1
    98    75    74    1
    99    75    76    2
   100    63    61    1
   101    17    16    1
   102    15    16    2
   103     2     3    1
   104     9    12    1
   105     9     8    1
   106    74    73    1
   107    72    71    1
   108    16    18    1
   109    61    58    1
   110    71    70    1
   111     4     3    2
   112    58    57    1
   113    58    59    1
   114    70    69    1
   115    69    68    1
   116    68    65    1
   117    65    64    1
   118    65    66    1
   119    59    60    2
   120    67    66    2
