@<TRIPOS>MOLECULE
tmp/5dkjY00.pdb
 116 107 0 0 0
SMALL
GASTEIGER

@<TRIPOS>ATOM
      1  N         56.7010 -152.0270    7.7960 N.3     1  THR1       -0.1218
      2  CA        57.1640 -153.0260    6.8940 C.3     1  THR1        0.1862
      3  C         56.5430 -152.8500    5.5650 C.2     1  THR1        0.2287
      4  O         55.3720 -152.7410    5.4600 O.2     1  THR1       -0.2866
      5  CB        56.6990 -154.3810    7.4200 C.3     1  THR1        0.1770
      6  OG1       57.5360 -154.8020    8.4620 O.3     1  THR1       -0.2211
      7  CG2       56.7470 -155.5420    6.4500 C.3     1  THR1        0.0375
      8  N         63.4120 -153.6670    8.1150 N.3    19  ARG19      -0.1231
      9  CA        63.3060 -153.0520    9.4420 C.3    19  ARG19       0.1694
     10  C         62.3450 -153.8010   10.3680 C.2    19  ARG19       0.2592
     11  O         61.3470 -154.3660    9.9260 O.2    19  ARG19      -0.2718
     12  CB        62.8870 -151.5790    9.3310 C.3    19  ARG19       0.0321
     13  CG        62.9210 -150.8280   10.6560 C.3    19  ARG19       0.0489
     14  CD        62.7640 -149.3270   10.4730 C.3    19  ARG19       0.2205
     15  NE        63.9670 -148.7110    9.9180 N.pl3  19  ARG19      -0.0865
     16  CZ        64.1470 -147.4010    9.7650 C.cat  19  ARG19       0.5346
     17  NH1       63.2030 -146.5340   10.1250 N.pl3  19  ARG19       0.1354
     18  NH2       65.2840 -146.9500    9.2490 N.pl3  19  ARG19       0.1354
     19  N         62.6690 -153.7990   11.6580 N.am   20  ALA20      -0.1966
     20  CA        61.7960 -154.3420   12.6920 C.3    20  ALA20       0.1728
     21  C         61.7630 -153.3670   13.8570 C.2    20  ALA20       0.2617
     22  O         62.8090 -152.9490   14.3480 O.2    20  ALA20      -0.2715
     23  CB        62.2940 -155.6940   13.1580 C.3    20  ALA20       0.0334
     24  N         60.5630 -153.0090   14.2970 N.am   21  THR21      -0.1937
     25  CA        60.4040 -152.0050   15.3380 C.3    21  THR21       0.2028
     26  C         59.6600 -152.5410   16.5560 C.2    21  THR21       0.2642
     27  O         58.9990 -153.5760   16.4980 O.2    21  THR21      -0.2714
     28  CB        59.6750 -150.7600   14.7950 C.3    21  THR21       0.1808
     29  OG1       58.5090 -151.1630   14.0690 O.3    21  THR21      -0.2208
     30  CG2       60.5870 -149.9730   13.8680 C.3    21  THR21       0.0379
     31  N         59.8090 -151.8250   17.6640 N.am   22  ALA22      -0.1963
     32  CA        59.0600 -152.0800   18.8870 C.3    22  ALA22       0.1728
     33  C         58.6270 -150.7230   19.4200 C.2    22  ALA22       0.2616
     34  O         59.2800 -150.1510   20.2880 O.2    22  ALA22      -0.2715
     35  CB        59.9270 -152.8080   19.8970 C.3    22  ALA22       0.0334
     36  N         57.5330 -150.2040   18.8740 N.am   23  GLY23      -0.1955
     37  CA        57.1390 -148.8230   19.1090 C.3    23  GLY23       0.1869
     38  C         57.9750 -147.9430   18.2050 C.2    23  GLY23       0.2309
     39  O         58.0930 -148.2170   17.0140 O.2    23  GLY23      -0.2863
     40  N         64.3610 -152.0250   16.3450 N.3    27  ALA27      -0.1245
     41  CA        64.9210 -153.2290   16.9480 C.3    27  ALA27       0.1562
     42  C         65.9550 -153.8960   16.0540 C.2    27  ALA27       0.2260
     43  O         66.9160 -154.4780   16.5510 O.2    27  ALA27      -0.2867
     44  CB        63.8110 -154.2100   17.2820 C.3    27  ALA27       0.0290
     45  N         66.5910 -157.7220    9.0900 N.3    31  VAL31      -0.1245
     46  CA        65.6160 -158.8070    9.1980 C.3    31  VAL31       0.1561
     47  C         65.3540 -159.4360    7.8360 C.2    31  VAL31       0.2260
     48  O         65.2600 -158.7360    6.8290 O.2    31  VAL31      -0.2867
     49  CB        64.2770 -158.3130    9.7840 C.3    31  VAL31       0.0252
     50  CG1       63.2990 -159.4660    9.9640 C.3    31  VAL31       0.0019
     51  CG2       64.5070 -157.6220   11.1160 C.3    31  VAL31       0.0019
     52  N         62.7350 -160.8670    5.7380 N.3    33  LYS33      -0.1245
     53  CA        61.2820 -160.9270    5.5910 C.3    33  LYS33       0.1561
     54  C         60.8350 -161.8320    4.4430 C.2    33  LYS33       0.2260
     55  O         59.6400 -161.9460    4.1730 O.2    33  LYS33      -0.2867
     56  CB        60.7140 -159.5160    5.4290 C.3    33  LYS33       0.0271
     57  CG        60.8620 -158.6940    6.6940 C.3    33  LYS33       0.0035
     58  CD        60.3150 -157.2900    6.5390 C.3    33  LYS33       0.0206
     59  CE        60.7870 -156.4150    7.6860 C.3    33  LYS33       0.1093
     60  NZ        59.9900 -155.1680    7.7900 N.3    33  LYS33      -0.1314
     61  N         56.8670 -161.8000    4.8130 N.3    45  MET45      -0.1230
     62  CA        56.4960 -161.6500    6.2120 C.3    45  MET45       0.1702
     63  C         56.1920 -160.1910    6.5300 C.2    45  MET45       0.2592
     64  O         56.9840 -159.3010    6.2180 O.2    45  MET45      -0.2718
     65  CB        57.6220 -162.1720    7.1050 C.3    45  MET45       0.0401
     66  CG        57.8680 -163.6680    6.9490 C.3    45  MET45       0.0596
     67  SD        59.3140 -164.3370    7.8020 S.3    45  MET45      -0.1393
     68  CE        59.6420 -163.1040    9.0580 C.3    45  MET45       0.0692
     69  N         55.0300 -159.9580    7.1370 N.am   46  ALA46      -0.1966
     70  CA        54.6240 -158.6240    7.5790 C.3    46  ALA46       0.1728
     71  C         53.6780 -158.7440    8.7670 C.2    46  ALA46       0.2617
     72  O         52.8220 -159.6300    8.8010 O.2    46  ALA46      -0.2715
     73  CB        53.9540 -157.8640    6.4470 C.3    46  ALA46       0.0334
     74  N         53.8350 -157.8450    9.7350 N.am   47  GLY47      -0.1940
     75  CA        53.0460 -157.8760   10.9630 C.3    47  GLY47       0.2014
     76  C         53.8950 -158.3870   12.1080 C.2    47  GLY47       0.2639
     77  O         55.0030 -157.9010   12.3290 O.2    47  GLY47      -0.2714
     78  N         53.3830 -159.3770   12.8320 N.am   48  GLY48      -0.1939
     79  CA        54.1060 -159.9610   13.9570 C.3    48  GLY48       0.2014
     80  C         55.2790 -160.7930   13.4800 C.2    48  GLY48       0.2638
     81  O         55.1060 -161.7140   12.6820 O.2    48  GLY48      -0.2714
     82  N         56.4710 -160.4640   13.9680 N.am   49  ALA49      -0.1977
     83  CA        57.6980 -161.1450   13.5580 C.3    49  ALA49       0.1597
     84  C         57.6540 -162.6310   13.8850 C.2    49  ALA49       0.2287
     85  O         57.9170 -163.4720   13.0250 O.2    49  ALA49      -0.2864
     86  CB        58.9030 -160.5020   14.2260 C.3    49  ALA49       0.0319
     87  N         54.8140 -164.6540   11.9810 N.3    52  CYS52      -0.1235
     88  CA        55.2080 -164.8700   10.5950 C.3    52  CYS52       0.1677
     89  C         56.3300 -165.9030   10.4830 C.2    52  CYS52       0.2270
     90  O         56.2220 -166.8460    9.7030 O.2    52  CYS52      -0.2867
     91  CB        55.6310 -163.5510    9.9400 C.3    52  CYS52       0.0956
     92  SG        54.2700 -162.4240    9.5570 S.3    52  CYS52      -0.0801
     93  N         48.9780 -161.8290   14.2000 N.3    96  SER96      -0.1217
     94  CA        49.1170 -160.6600   13.3400 C.3    96  SER96       0.1889
     95  C         50.0460 -160.9950   12.1810 C.2    96  SER96       0.2288
     96  O         51.2680 -160.9830   12.3310 O.2    96  SER96      -0.2866
     97  CB        49.6680 -159.4790   14.1410 C.3    96  SER96       0.2089
     98  OG        49.6840 -158.2960   13.3620 O.3    96  SER96      -0.2183
     99  N         52.9070 -151.6700    6.7320 N.3   131  SER131     -0.1217
    100  CA        52.6550 -150.2750    7.0910 C.3   131  SER131      0.1889
    101  C         53.0210 -149.2960    5.9750 C.2   131  SER131      0.2288
    102  O         52.4840 -148.1890    5.9260 O.2   131  SER131     -0.2866
    103  CB        53.4230 -149.9110    8.3620 C.3   131  SER131      0.2089
    104  OG        54.7320 -150.4460    8.3340 O.3   131  SER131     -0.2183
    105  N         58.2650 -146.9300    9.8560 N.3   170  TYR170     -0.1241
    106  CA        58.4200 -148.3130   10.3120 C.3   170  TYR170      0.1605
    107  C         58.9330 -149.2490    9.2120 C.2   170  TYR170      0.2264
    108  O         58.8880 -150.4740    9.3560 O.2   170  TYR170     -0.2867
    109  CB        57.0940 -148.8130   10.8860 C.3   170  TYR170      0.0534
    110  CG        56.6180 -147.9480   12.0280 C.ar  170  TYR170     -0.0201
    111  CD1       57.3060 -147.9270   13.2360 C.ar  170  TYR170     -0.0009
    112  CD2       55.5040 -147.1260   11.8950 C.ar  170  TYR170     -0.0009
    113  CE1       56.8930 -147.1250   14.2820 C.ar  170  TYR170      0.0417
    114  CE2       55.0830 -146.3210   12.9410 C.ar  170  TYR170      0.0417
    115  CZ        55.7830 -146.3260   14.1320 C.ar  170  TYR170      0.1957
    116  OH        55.3740 -145.5320   15.1790 O.3   170  TYR170     -0.2866
@<TRIPOS>BOND
     1    55    54    2
     2    54    53    1
     3    61    62    1
     4    56    53    1
     5    56    57    1
     6     4     3    2
     7     3     2    1
     8    53    52    1
     9   102   101    2
    10   101   100    1
    11    62    63    1
    12    62    65    1
    13    64    63    2
    14    73    70    1
    15     7     5    1
    16    63    69   am
    17    58    57    1
    18    58    59    1
    19    99   100    1
    20    48    47    2
    21     2     5    1
    22     2     1    1
    23    66    65    1
    24    66    67    1
    25   100   103    1
    26    69    70    1
    27     5     6    1
    28    70    71    1
    29    59    60    1
    30    67    68    1
    31    47    46    1
    32     8     9    1
    33   104   103    1
    34    71    72    2
    35    71    74   am
    36    45    46    1
    37    46    49    1
    38   107   108    2
    39   107   106    1
    40    18    16    1
    41    12     9    1
    42    12    13    1
    43     9    10    1
    44    92    91    1
    45    90    89    2
    46    74    75    1
    47    16    15    2
    48    16    17    1
    49    49    50    1
    50    49    51    1
    51   105   106    1
    52    15    14    1
    53    11    10    2
    54    91    88    1
    55   106   109    1
    56    10    19   am
    57    14    13    1
    58    89    88    1
    59    88    87    1
    60   109   110    1
    61    75    76    1
    62    19    20    1
    63   112   110   ar
    64   112   114   ar
    65   110   111   ar
    66    76    77    2
    67    76    78   am
    68    95    96    2
    69    95    94    1
    70    81    80    2
    71    20    23    1
    72    20    21    1
    73    78    79    1
    74   114   115   ar
    75    85    84    2
    76   111   113   ar
    77    94    97    1
    78    94    93    1
    79    98    97    1
    80    80    79    1
    81    80    82   am
    82    83    84    1
    83    83    82    1
    84    83    86    1
    85    21    24   am
    86    21    22    2
    87    30    28    1
    88    29    28    1
    89   115   113   ar
    90   115   116    1
    91    24    25    1
    92    28    25    1
    93    25    26    1
    94    42    43    2
    95    42    41    1
    96    40    41    1
    97    27    26    2
    98    26    31   am
    99    41    44    1
   100    39    38    2
   101    31    32    1
   102    38    37    1
   103    36    37    1
   104    36    33   am
   105    32    33    1
   106    32    35    1
   107    33    34    2
