@<TRIPOS>MOLECULE
tmp/5dkjV00.pdb
 110 102 0 0 0
SMALL
GASTEIGER

@<TRIPOS>ATOM
      1  N          4.7420 -158.7340   44.4740 N.3     1  THR1       -0.1218
      2  CA         4.1810 -159.9470   44.9530 C.3     1  THR1        0.1862
      3  C          4.2130 -159.9230   46.4260 C.2     1  THR1        0.2287
      4  O          5.1710 -159.5630   47.0190 O.2     1  THR1       -0.2866
      5  CB         5.0650 -161.0940   44.5100 C.3     1  THR1        0.1770
      6  OG1        4.8820 -161.3180   43.1400 O.3     1  THR1       -0.2211
      7  CG2        4.6910 -162.4140   45.1350 C.3     1  THR1        0.0375
      8  N         -1.0530 -161.1180   41.1320 N.3    19  ARG19      -0.1231
      9  CA        -0.5230 -160.2260   40.0980 C.3    19  ARG19       0.1694
     10  C          0.8390 -160.6820   39.5760 C.2    19  ARG19       0.2593
     11  O          1.7160 -161.0760   40.3430 O.2    19  ARG19      -0.2718
     12  CB        -0.4140 -158.7870   40.6090 C.3    19  ARG19       0.0321
     13  CG         0.0110 -157.8000   39.5280 C.3    19  ARG19       0.0489
     14  CD         0.0390 -156.3680   40.0300 C.3    19  ARG19       0.2205
     15  NE        -1.2980 -155.7840   40.1080 N.pl3  19  ARG19      -0.0865
     16  CZ        -1.5500 -154.5120   40.4090 C.cat  19  ARG19       0.5346
     17  NH1       -0.5580 -153.6630   40.6650 N.pl3  19  ARG19       0.1354
     18  NH2       -2.8050 -154.0840   40.4540 N.pl3  19  ARG19       0.1354
     19  N          1.0030 -160.6040   38.2590 N.am   20  SER20      -0.1938
     20  CA         2.2770 -160.8650   37.6050 C.3    20  SER20       0.2055
     21  C          2.6290 -159.6400   36.7760 C.2    20  SER20       0.2644
     22  O          1.7910 -159.1550   36.0170 O.2    20  SER20      -0.2714
     23  CB         2.1660 -162.0930   36.7050 C.3    20  SER20       0.2130
     24  OG         3.4320 -162.4640   36.1890 O.3    20  SER20      -0.2179
     25  N          3.8500 -159.1300   36.9230 N.am   21  THR21      -0.1936
     26  CA         4.2370 -157.8940   36.2390 C.3    21  THR21       0.2028
     27  C          5.4160 -158.0410   35.2840 C.2    21  THR21       0.2642
     28  O          6.2770 -158.9060   35.4430 O.2    21  THR21      -0.2714
     29  CB         4.5670 -156.7610   37.2300 C.3    21  THR21       0.1808
     30  OG1        5.5450 -157.2110   38.1750 O.3    21  THR21      -0.2208
     31  CG2        3.3150 -156.3090   37.9590 C.3    21  THR21       0.0379
     32  N          5.4690 -157.1580   34.3020 N.am   22  GLN22      -0.1963
     33  CA         6.5480 -157.0850   33.3320 C.3    22  GLN22       0.1733
     34  C          6.8750 -155.6220   33.3000 C.2    22  GLN22       0.2616
     35  O          6.3690 -154.8850   32.5000 O.2    22  GLN22      -0.2715
     36  CB         6.0660 -157.5190   31.9820 C.3    22  GLN22       0.0408
     37  CG         6.7320 -158.7660   31.4730 C.3    22  GLN22       0.0908
     38  CD         5.8420 -159.5050   30.5220 C.2    22  GLN22       0.2608
     39  OE1        4.8390 -158.9690   30.0550 O.2    22  GLN22      -0.2717
     40  NE2        6.1910 -160.7420   30.2280 N.am   22  GLN22      -0.0878
     41  N          7.7290 -155.2120   34.2030 N.am   23  GLY23      -0.1955
     42  CA         8.0530 -153.8090   34.4080 C.3    23  GLY23       0.1869
     43  C          6.8650 -153.1480   35.0850 C.2    23  GLY23       0.2309
     44  O          6.4460 -153.5920   36.1560 O.2    23  GLY23      -0.2863
     45  N          1.0320 -158.4950   33.4800 N.3    27  ALA27      -0.1245
     46  CA         1.0120 -159.5980   32.5220 C.3    27  ALA27       0.1562
     47  C         -0.1690 -160.5280   32.7690 C.2    27  ALA27       0.2260
     48  O         -0.8350 -160.9530   31.8240 O.2    27  ALA27      -0.2867
     49  CB         2.3130 -160.3770   32.5960 C.3    27  ALA27       0.0290
     50  N         -2.9140 -164.6540   38.4630 N.3    31  CYS31      -0.1235
     51  CA        -1.7980 -165.5920   38.4930 C.3    31  CYS31       0.1677
     52  C         -1.9000 -166.5070   39.7120 C.2    31  CYS31       0.2270
     53  O         -2.3760 -166.0880   40.7670 O.2    31  CYS31      -0.2867
     54  CB        -0.4830 -164.8080   38.5290 C.3    31  CYS31       0.0956
     55  SG         1.0120 -165.8150   38.5020 S.3    31  CYS31      -0.0801
     56  N          0.1180 -168.2970   42.4220 N.3    33  LYS33      -0.1245
     57  CA         1.4240 -168.3170   43.0810 C.3    33  LYS33       0.1561
     58  C          1.5480 -169.3970   44.1490 C.2    33  LYS33       0.2260
     59  O          2.6220 -169.5790   44.7180 O.2    33  LYS33      -0.2867
     60  CB         1.7120 -166.9530   43.7020 C.3    33  LYS33       0.0271
     61  CG         1.8070 -165.8470   42.6730 C.3    33  LYS33       0.0035
     62  CD         2.0030 -164.4930   43.3230 C.3    33  LYS33       0.0206
     63  CE         1.7170 -163.3860   42.3250 C.3    33  LYS33       0.1093
     64  NZ         2.3210 -162.0950   42.7370 N.3    33  LYS33      -0.1314
     65  N          1.8030 -173.1600   44.9150 N.3    35  HIS35      -0.1241
     66  CA         2.1900 -174.3730   44.2170 C.3    35  HIS35       0.1621
     67  C          2.1110 -175.5780   45.1360 C.2    35  HIS35       0.2264
     68  O          2.3950 -175.4790   46.3290 O.2    35  HIS35      -0.2867
     69  CB         3.6130 -174.2470   43.7000 C.3    35  HIS35       0.0745
     70  CG         3.8720 -172.9980   42.9200 C.ar   35  HIS35       0.0817
     71  ND1        3.6650 -172.9150   41.5610 N.ar   35  HIS35      -0.2268
     72  CD2        4.3340 -171.7860   43.3060 C.ar   35  HIS35       0.1154
     73  CE1        3.9820 -171.7020   41.1440 C.ar   35  HIS35       0.1986
     74  NE2        4.3900 -170.9970   42.1830 N.ar   35  HIS35      -0.2212
     75  N          5.4030 -168.7280   46.0270 N.3    45  GLY45      -0.1210
     76  CA         6.6150 -168.2560   45.3620 C.3    45  GLY45       0.1956
     77  C          6.5650 -166.8100   44.9110 C.2    45  GLY45       0.2612
     78  O          5.5400 -166.3340   44.4210 O.2    45  GLY45      -0.2717
     79  N          7.6920 -166.1230   45.0820 N.am   46  ALA46      -0.1965
     80  CA         7.8810 -164.7590   44.6030 C.3    46  ALA46       0.1728
     81  C          9.1600 -164.7040   43.7820 C.2    46  ALA46       0.2617
     82  O          9.9910 -165.6080   43.8610 O.2    46  ALA46      -0.2715
     83  CB         7.9680 -163.7950   45.7730 C.3    46  ALA46       0.0334
     84  N          9.3130 -163.6400   43.0020 N.am   47  GLY47      -0.1940
     85  CA        10.5010 -163.4470   42.1730 C.3    47  GLY47       0.2014
     86  C         10.2340 -163.7970   40.7240 C.2    47  GLY47       0.2640
     87  O          9.1820 -163.4570   40.1840 O.2    47  GLY47      -0.2714
     88  N         11.1880 -164.4760   40.0960 N.am   48  THR48      -0.1936
     89  CA        11.0630 -164.8700   38.6960 C.3    48  THR48       0.2028
     90  C         10.0300 -165.9870   38.5610 C.2    48  THR48       0.2642
     91  O         10.1810 -167.0560   39.1460 O.2    48  THR48      -0.2714
     92  CB        12.4150 -165.3260   38.1240 C.3    48  THR48       0.1808
     93  OG1       13.4080 -164.3310   38.4000 O.3    48  THR48      -0.2208
     94  CG2       12.3190 -165.5410   36.6220 C.3    48  THR48       0.0379
     95  N          8.9880 -165.7210   37.7790 N.am   49  ALA49      -0.1977
     96  CA         7.8120 -166.5930   37.6950 C.3    49  ALA49       0.1597
     97  C          8.1110 -167.9970   37.1850 C.2    49  ALA49       0.2287
     98  O          7.6540 -168.9780   37.7690 O.2    49  ALA49      -0.2864
     99  CB         6.7490 -165.9440   36.8240 C.3    49  ALA49       0.0319
    100  N         10.1240 -170.1060   39.9470 N.3    52  THR52      -0.1218
    101  CA         9.3590 -170.6110   41.0910 C.3    52  THR52       0.1862
    102  C          8.5200 -171.8200   40.6980 C.2    52  THR52       0.2287
    103  O          8.3560 -172.7520   41.4820 O.2    52  THR52      -0.2866
    104  CB         8.4200 -169.5430   41.6810 C.3    52  THR52       0.1770
    105  OG1        7.5270 -169.0700   40.6650 O.3    52  THR52      -0.2211
    106  CG2        9.2190 -168.3790   42.2460 C.3    52  THR52       0.0375
    107  N          3.5480 -153.7220   43.0320 N.3   168  GLY168     -0.1225
    108  CA         3.9430 -155.0220   42.5030 C.3   168  GLY168      0.1811
    109  C          2.9550 -156.1250   42.8380 C.2   168  GLY168      0.2280
    110  O          3.0520 -157.2270   42.2990 O.2   168  GLY168     -0.2866
@<TRIPOS>BOND
     1    39    38    2
     2    40    38   am
     3    38    37    1
     4    37    36    1
     5    48    47    2
     6    36    33    1
     7    35    34    2
     8    46    49    1
     9    46    47    1
    10    46    45    1
    11    34    33    1
    12    34    41   am
    13    33    32    1
    14    41    42    1
    15    32    27   am
    16    42    43    1
    17    43    44    2
    18    27    28    2
    19    27    26    1
    20    22    21    2
    21    24    23    1
    22    26    25    1
    23    26    29    1
    24    94    92    1
    25    23    20    1
    26    21    25   am
    27    21    20    1
    28    99    96    1
    29    97    96    1
    30    97    98    2
    31    29    31    1
    32    29    30    1
    33    20    19    1
    34    96    95    1
    35    95    90   am
    36    92    93    1
    37    92    89    1
    38    19    10   am
    39    50    51    1
    40    51    54    1
    41    51    52    1
    42    55    54    1
    43    90    89    1
    44    90    91    2
    45    89    88    1
    46    13    14    1
    47    13    12    1
    48    10     9    1
    49    10    11    2
    50    52    53    2
    51   100   101    1
    52    14    15    1
    53    88    86   am
    54     9    12    1
    55     9     8    1
    56    15    16    2
    57    87    86    2
    58    16    18    1
    59    16    17    1
    60   105   104    1
    61   102   101    1
    62   102   103    2
    63    86    85    1
    64   101   104    1
    65    73    71   ar
    66    73    74   ar
    67    71    70   ar
    68   104   106    1
    69    85    84    1
    70    74    72   ar
    71   110   109    2
    72    63    64    1
    73    63    62    1
    74    56    57    1
    75   108   109    1
    76   108   107    1
    77    61    62    1
    78    61    60    1
    79    70    72   ar
    80    70    69    1
    81    84    81   am
    82    57    60    1
    83    57    58    1
    84     6     5    1
    85    69    66    1
    86    81    82    2
    87    81    80    1
    88    58    59    2
    89    66    65    1
    90    66    67    1
    91    78    77    2
    92     1     2    1
    93     5     2    1
    94     5     7    1
    95    80    79    1
    96    80    83    1
    97    77    79   am
    98    77    76    1
    99     2     3    1
   100    67    68    2
   101    76    75    1
   102     3     4    2
