@<TRIPOS>MOLECULE
tmp/5dkpY00.pdb
 127 117 0 0 0
SMALL
GASTEIGER

@<TRIPOS>ATOM
      1  N         42.8140    8.8770   -8.5990 N.3    22  ARG22      -0.1231
      2  CA        44.2190    8.6990   -8.2450 C.3    22  ARG22       0.1694
      3  C         44.4180    7.4340   -7.3970 C.2    22  ARG22       0.2591
      4  O         45.3670    6.6760   -7.6010 O.2    22  ARG22      -0.2718
      5  CB        44.7480    9.9210   -7.4750 C.3    22  ARG22       0.0321
      6  CG        46.2030    9.7950   -7.0450 C.3    22  ARG22       0.0489
      7  CD        47.1220    9.8110   -8.2510 C.3    22  ARG22       0.2205
      8  NE        48.5140    9.5200   -7.9130 N.pl3  22  ARG22      -0.0865
      9  CZ        49.0420    8.2980   -7.9050 C.cat  22  ARG22       0.5346
     10  NH1       48.3020    7.2460   -8.2320 N.pl3  22  ARG22       0.1354
     11  NH2       50.3130    8.1270   -7.5870 N.pl3  22  ARG22       0.1354
     12  N         43.5280    7.2090   -6.4350 N.am   23  LEU23      -0.1980
     13  CA        43.6400    6.0180   -5.6080 C.3    23  LEU23       0.1596
     14  C         43.2400    4.7570   -6.3830 C.2    23  LEU23       0.2287
     15  O         43.7590    3.6710   -6.1020 O.2    23  LEU23      -0.2864
     16  CB        42.8270    6.1830   -4.3220 C.3    23  LEU23       0.0297
     17  CG        43.5720    6.8630   -3.1560 C.3    23  LEU23       0.0022
     18  CD1       44.0150    8.2850   -3.4800 C.3    23  LEU23       0.0001
     19  CD2       42.7230    6.8800   -1.8950 C.3    23  LEU23       0.0001
     20  N         46.1250    3.0350   -7.6960 N.3    26  GLU26      -0.1245
     21  CA        46.8940    2.1890   -6.7740 C.3    26  GLU26       0.1567
     22  C         46.0230    1.0120   -6.3240 C.2    26  GLU26       0.2260
     23  O         46.2840    0.3730   -5.2890 O.2    26  GLU26      -0.2867
     24  CB        47.4250    2.9880   -5.5830 C.3    26  GLU26       0.0388
     25  CG        48.2060    4.2280   -5.9900 C.3    26  GLU26       0.1160
     26  CD        49.3260    3.9430   -7.0010 C.2    26  GLU26       0.3649
     27  OE1       49.3710    4.6520   -8.0310 O.co2  26  GLU26      -0.2457
     28  OE2       50.1480    3.0220   -6.7840 O.co2  26  GLU26      -0.2457
     29  N         42.9610    0.9220   -5.2220 N.3    28  ILE28      -0.1245
     30  CA        42.0770    1.0980   -4.0860 C.3    28  ILE28       0.1561
     31  C         40.6760    1.4360   -4.5680 C.2    28  ILE28       0.2260
     32  O         40.4820    2.3930   -5.3250 O.2    28  ILE28      -0.2867
     33  CB        42.5950    2.2100   -3.1460 C.3    28  ILE28       0.0252
     34  CG1       43.9690    1.8160   -2.5910 C.3    28  ILE28       0.0019
     35  CG2       41.5750    2.5030   -2.0260 C.3    28  ILE28       0.0019
     36  CD1       44.6650    2.8790   -1.7640 C.3    28  ILE28       0.0001
     37  N         46.8110   -7.9260   -5.9300 N.3    58  ASP58      -0.1239
     38  CA        45.7060   -7.7250   -4.9920 C.3    58  ASP58       0.1674
     39  C         44.9290   -6.4360   -5.2840 C.2    58  ASP58       0.2266
     40  O         45.5020   -5.4220   -5.7010 O.2    58  ASP58      -0.2867
     41  CB        46.2370   -7.6460   -3.5470 C.3    58  ASP58       0.1410
     42  CG        46.7470   -8.9740   -3.0250 C.2    58  ASP58       0.3668
     43  OD1       46.5930  -10.0070   -3.7190 O.co2  58  ASP58      -0.2456
     44  OD2       47.3350   -8.9670   -1.9210 O.co2  58  ASP58      -0.2456
     45  N         42.3650   -3.6080   -3.2940 N.3    60  PHE60      -0.1241
     46  CA        42.0940   -3.1510   -1.9310 C.3    60  PHE60       0.1605
     47  C         40.7660   -2.4000   -1.8210 C.2    60  PHE60       0.2264
     48  O         40.6180   -1.2690   -2.2980 O.2    60  PHE60      -0.2867
     49  CB        43.2720   -2.3000   -1.4440 C.3    60  PHE60       0.0534
     50  CG        44.6190   -2.9380   -1.7190 C.ar   60  PHE60      -0.0203
     51  CD1       45.0690   -4.0100   -0.9490 C.ar   60  PHE60      -0.0042
     52  CD2       45.4000   -2.5110   -2.7930 C.ar   60  PHE60      -0.0042
     53  CE1       46.3030   -4.6160   -1.2120 C.ar   60  PHE60      -0.0003
     54  CE2       46.6270   -3.1130   -3.0670 C.ar   60  PHE60      -0.0003
     55  CZ        47.0850   -4.1650   -2.2710 C.ar   60  PHE60      -0.0000
     56  N         38.0290   -0.6160    0.2750 N.3    62  TYR62      -0.1241
     57  CA        37.7920    0.1600    1.5100 C.3    62  TYR62       0.1605
     58  C         36.2820    0.3670    1.7480 C.2    62  TYR62       0.2264
     59  O         35.5720    0.9760    0.9410 O.2    62  TYR62      -0.2867
     60  CB        38.5050    1.5250    1.4580 C.3    62  TYR62       0.0534
     61  CG        40.0210    1.4950    1.5160 C.ar   62  TYR62      -0.0201
     62  CD1       40.7250    0.2960    1.5890 C.ar   62  TYR62      -0.0009
     63  CD2       40.7500    2.6680    1.4280 C.ar   62  TYR62      -0.0009
     64  CE1       42.1150    0.2780    1.6240 C.ar   62  TYR62       0.0417
     65  CE2       42.1200    2.6670    1.4510 C.ar   62  TYR62       0.0417
     66  CZ        42.8060    1.4690    1.5540 C.ar   62  TYR62       0.1957
     67  OH        44.1860    1.4790    1.5850 O.3    62  TYR62      -0.2866
     68  N         41.2870   -7.9080   -1.0440 N.3    88  SER88      -0.1217
     69  CA        41.4430   -7.5580    0.3500 C.3    88  SER88       0.1889
     70  C         40.3450   -6.5830    0.7390 C.2    88  SER88       0.2288
     71  O         39.9450   -5.7380   -0.0670 O.2    88  SER88      -0.2866
     72  CB        42.8120   -6.9540    0.6000 C.3    88  SER88       0.2089
     73  OG        42.9220   -6.5460    1.9450 O.3    88  SER88      -0.2183
     74  N         39.0300   -3.7500    3.7930 N.3    90  LEU90      -0.1245
     75  CA        39.3940   -2.9480    4.9490 C.3    90  LEU90       0.1561
     76  C         38.1700   -2.1200    5.3960 C.2    90  LEU90       0.2260
     77  O         37.5670   -1.3980    4.6070 O.2    90  LEU90      -0.2867
     78  CB        40.5830   -2.0360    4.6390 C.3    90  LEU90       0.0270
     79  CG        41.1190   -1.1530    5.7860 C.3    90  LEU90       0.0019
     80  CD1       42.6220   -1.0190    5.6490 C.3    90  LEU90       0.0001
     81  CD2       40.4930    0.2400    5.8350 C.3    90  LEU90       0.0001
     82  N         36.8160    0.9810    7.4020 N.3    92  LEU92      -0.1245
     83  CA        37.0670    2.2460    8.0980 C.3    92  LEU92       0.1561
     84  C         35.7330    2.8590    8.5190 C.2    92  LEU92       0.2260
     85  O         34.7790    2.8810    7.7490 O.2    92  LEU92      -0.2867
     86  CB        37.8510    3.2460    7.2280 C.3    92  LEU92       0.0270
     87  CG        37.3890    3.7170    5.8450 C.3    92  LEU92       0.0019
     88  CD1       38.2860    4.8820    5.3730 C.3    92  LEU92       0.0001
     89  CD2       37.4080    2.5910    4.8300 C.3    92  LEU92       0.0001
     90  N         40.6980   -6.6430    6.8270 N.3   112  PHE112     -0.1241
     91  CA        41.2570   -5.7710    7.8450 C.3   112  PHE112      0.1605
     92  C         40.2770   -4.7850    8.4470 C.2   112  PHE112      0.2264
     93  O         39.2470   -4.4570    7.8450 O.2   112  PHE112     -0.2867
     94  CB        42.4520   -5.0020    7.2690 C.3   112  PHE112      0.0534
     95  CG        43.5510   -5.8880    6.7330 C.ar  112  PHE112     -0.0203
     96  CD1       44.4670   -6.4730    7.5940 C.ar  112  PHE112     -0.0042
     97  CD2       43.6670   -6.1320    5.3790 C.ar  112  PHE112     -0.0042
     98  CE1       45.4930   -7.2780    7.1100 C.ar  112  PHE112     -0.0003
     99  CE2       44.6900   -6.9400    4.8890 C.ar  112  PHE112     -0.0003
    100  CZ        45.5980   -7.5120    5.7590 C.ar  112  PHE112     -0.0000
    101  N         40.5120   -0.9720   10.8740 N.3   114  LEU114     -0.1245
    102  CA        41.1790    0.0750   11.6260 C.3   114  LEU114      0.1561
    103  C         40.7250   -0.1220   13.0690 C.2   114  LEU114      0.2260
    104  O         39.6810   -0.7230   13.3030 O.2   114  LEU114     -0.2867
    105  CB        40.7950    1.4560   11.0760 C.3   114  LEU114      0.0270
    106  CG        41.2640    1.6940    9.6270 C.3   114  LEU114      0.0019
    107  CD1       40.8960    3.0930    9.0890 C.3   114  LEU114      0.0001
    108  CD2       42.7750    1.4870    9.5210 C.3   114  LEU114      0.0001
    109  N         44.7450   -3.1890   11.9910 N.3   191  LEU191     -0.1245
    110  CA        45.9210   -2.3770   11.6450 C.3   191  LEU191      0.1561
    111  C         46.2210   -1.2580   12.6420 C.2   191  LEU191      0.2260
    112  O         45.3910   -0.3840   12.8640 O.2   191  LEU191     -0.2867
    113  CB        45.7440   -1.7830   10.2420 C.3   191  LEU191      0.0270
    114  CG        45.5490   -2.8580    9.1600 C.3   191  LEU191      0.0019
    115  CD1       45.5470   -2.2620    7.7600 C.3   191  LEU191      0.0001
    116  CD2       46.5700   -3.9800    9.2640 C.3   191  LEU191      0.0001
    117  N         51.4170    1.3160   10.7530 N.3   194  ARG194     -0.1245
    118  CA        51.8510    0.8580    9.4160 C.3   194  ARG194      0.1563
    119  C         52.6950   -0.4140    9.3730 C.2   194  ARG194      0.2260
    120  O         52.1720   -1.5240    9.4820 O.2   194  ARG194     -0.2867
    121  CB        52.6320    1.9750    8.7150 C.3   194  ARG194      0.0307
    122  CG        54.0570    2.1460    9.2250 C.3   194  ARG194      0.0489
    123  CD        54.6790    3.4570    8.7480 C.3   194  ARG194      0.2205
    124  NE        55.7680    3.8920    9.6200 N.pl3 194  ARG194     -0.0865
    125  CZ        55.5930    4.4380   10.8220 C.cat 194  ARG194      0.5346
    126  NH1       54.3680    4.6270   11.3000 N.pl3 194  ARG194      0.1354
    127  NH2       56.6410    4.7980   11.5490 N.pl3 194  ARG194      0.1354
@<TRIPOS>BOND
     1     1     2    1
     2     7     8    1
     3     7     6    1
     4     2     5    1
     5     2     3    1
     6    10     9    1
     7    27    26   ar
     8     8     9    2
     9     9    11    1
    10    20    21    1
    11     4     3    2
    12     5     6    1
    13     3    12   am
    14    26    28   ar
    15    26    25    1
    16    21    22    1
    17    21    24    1
    18    12    13    1
    19    14    15    2
    20    14    13    1
    21    22    23    2
    22    25    24    1
    23    37    38    1
    24    40    39    2
    25    13    16    1
    26    32    31    2
    27    39    38    1
    28    29    30    1
    29    38    41    1
    30    31    30    1
    31    16    17    1
    32    30    33    1
    33    43    42   ar
    34    41    42    1
    35    18    17    1
    36    45    46    1
    37    17    19    1
    38    33    34    1
    39    33    35    1
    40    54    52   ar
    41    54    55   ar
    42    42    44   ar
    43    52    50   ar
    44    34    36    1
    45    48    47    2
    46    55    53   ar
    47    46    47    1
    48    46    49    1
    49    50    49    1
    50    50    51   ar
    51    53    51   ar
    52    68    69    1
    53    71    70    2
    54    56    57    1
    55    69    72    1
    56    69    70    1
    57    72    73    1
    58    59    58    2
    59    63    65   ar
    60    63    61   ar
    61    65    66   ar
    62    60    57    1
    63    60    61    1
    64    57    58    1
    65    61    62   ar
    66    66    67    1
    67    66    64   ar
    68    62    64   ar
    69    74    75    1
    70    77    76    2
    71    78    75    1
    72    78    79    1
    73    89    87    1
    74    99    97   ar
    75    99   100   ar
    76    75    76    1
    77    88    87    1
    78    97    95   ar
    79    80    79    1
    80   100    98   ar
    81    79    81    1
    82    87    86    1
    83    95    94    1
    84    95    96   ar
    85    90    91    1
    86    98    96   ar
    87    86    83    1
    88    94    91    1
    89    82    83    1
    90    85    84    2
    91   115   114    1
    92    93    92    2
    93    91    92    1
    94    83    84    1
    95   121   122    1
    96   121   118    1
    97   123   122    1
    98   123   124    1
    99   107   106    1
   100   114   116    1
   101   114   113    1
   102   119   118    1
   103   119   120    2
   104   118   117    1
   105   108   106    1
   106   124   125    2
   107   106   105    1
   108   113   110    1
   109   125   126    1
   110   125   127    1
   111   101   102    1
   112   105   102    1
   113   102   103    1
   114   110   109    1
   115   110   111    1
   116   111   112    2
   117   103   104    2
