@<TRIPOS>MOLECULE
tmp/5dksA01.pdb
 214 201 0 0 0
SMALL
GASTEIGER

@<TRIPOS>ATOM
      1  N         25.7630  -11.1560    2.0490 N.3    33  MET33      -0.1230
      2  CA        24.4110  -10.6190    1.9700 C.3    33  MET33       0.1702
      3  C         24.3550   -9.2130    2.5510 C.2    33  MET33       0.2592
      4  O         23.6520   -8.3450    2.0370 O.2    33  MET33      -0.2718
      5  CB        23.4220  -11.5370    2.6910 C.3    33  MET33       0.0401
      6  CG        21.9810  -11.3550    2.2470 C.3    33  MET33       0.0596
      7  SD        20.8680  -12.6130    2.9080 S.3    33  MET33      -0.1393
      8  CE        21.7010  -14.1170    2.4150 C.3    33  MET33       0.0692
      9  N         25.1050   -8.9920    3.6240 N.am   34  MET34      -0.1979
     10  CA        25.2020   -7.6660    4.2210 C.3    34  MET34       0.1605
     11  C         25.9240   -6.7000    3.2930 C.2    34  MET34       0.2287
     12  O         25.5060   -5.5570    3.1310 O.2    34  MET34      -0.2864
     13  CB        25.9280   -7.7260    5.5650 C.3    34  MET34       0.0413
     14  CG        25.0220   -7.9220    6.7610 C.3    34  MET34       0.0598
     15  SD        23.7130   -6.6870    6.8550 S.3    34  MET34      -0.1393
     16  CE        24.6700   -5.1760    6.8860 C.3    34  MET34       0.0692
     17  N         23.8010   -5.5130    0.6050 N.3    37  LEU37      -0.1231
     18  CA        22.7330   -4.6790    1.1430 C.3    37  LEU37       0.1693
     19  C         23.1980   -3.2560    1.4260 C.2    37  LEU37       0.2592
     20  O         22.4710   -2.2980    1.1700 O.2    37  LEU37      -0.2718
     21  CB        22.1520   -5.3080    2.4090 C.3    37  LEU37       0.0284
     22  CG        20.8640   -6.1140    2.2430 C.3    37  LEU37       0.0019
     23  CD1       20.9360   -7.0200    1.0310 C.3    37  LEU37       0.0001
     24  CD2       20.5950   -6.9270    3.4940 C.3    37  LEU37       0.0001
     25  N         24.4090   -3.1190    1.9570 N.am   38  THR38      -0.1953
     26  CA        24.9540   -1.8010    2.2590 C.3    38  THR38       0.1897
     27  C         25.3170   -1.0650    0.9780 C.2    38  THR38       0.2313
     28  O         25.2380    0.1610    0.9090 O.2    38  THR38      -0.2863
     29  CB        26.1930   -1.8870    3.1640 C.3    38  THR38       0.1794
     30  OG1       27.2770   -2.4880    2.4440 O.3    38  THR38      -0.2208
     31  CG2       25.8830   -2.7110    4.3930 C.3    38  THR38       0.0378
     32  N         23.6870   -1.5580   -1.9130 N.3    40  LEU40      -0.1231
     33  CA        22.3870   -1.2060   -2.4680 C.3    40  LEU40       0.1693
     34  C         21.7870   -0.0060   -1.7470 C.2    40  LEU40       0.2591
     35  O         21.2330    0.8950   -2.3750 O.2    40  LEU40      -0.2718
     36  CB        21.4330   -2.3970   -2.3710 C.3    40  LEU40       0.0284
     37  CG        19.9790   -2.1480   -2.7730 C.3    40  LEU40       0.0019
     38  CD1       19.8820   -1.7890   -4.2460 C.3    40  LEU40       0.0001
     39  CD2       19.1220   -3.3610   -2.4530 C.3    40  LEU40       0.0001
     40  N         21.8990   -0.0050   -0.4240 N.am   41  ALA41      -0.1980
     41  CA        21.3520    1.0690    0.3960 C.3    41  ALA41       0.1597
     42  C         22.0390    2.4000    0.1170 C.2    41  ALA41       0.2287
     43  O         21.3900    3.4440    0.0750 O.2    41  ALA41      -0.2864
     44  CB        21.4670    0.7170    1.8680 C.3    41  ALA41       0.0319
     45  N         20.7730    3.7720   -3.1150 N.3    44  GLU44      -0.1245
     46  CA        19.3910    4.2000   -2.9410 C.3    44  GLU44       0.1567
     47  C         19.3100    5.5280   -2.2010 C.2    44  GLU44       0.2260
     48  O         18.3880    6.3120   -2.4190 O.2    44  GLU44      -0.2867
     49  CB        18.5890    3.1430   -2.1840 C.3    44  GLU44       0.0388
     50  CG        18.1350    1.9740   -3.0340 C.3    44  GLU44       0.1160
     51  CD        17.2580    1.0090   -2.2600 C.2    44  GLU44       0.3649
     52  OE1       17.7870    0.3020   -1.3780 O.co2  44  GLU44      -0.2457
     53  OE2       16.0390    0.9670   -2.5260 O.co2  44  GLU44      -0.2457
     54  N         15.6090    7.8700    7.1210 N.3    74  TRP74      -0.1227
     55  CA        16.1790    7.2380    5.9270 C.3    74  TRP74       0.1737
     56  C         15.9820    5.7200    5.8640 C.2    74  TRP74       0.2595
     57  O         15.6900    5.1690    4.8020 O.2    74  TRP74      -0.2718
     58  CB        17.6630    7.5860    5.7670 C.3    74  TRP74       0.0564
     59  CG        18.5550    6.9860    6.8130 C.ar   74  TRP74       0.0003
     60  CD1       18.9050    7.5420    8.0080 C.ar   74  TRP74       0.0946
     61  CD2       19.2160    5.7160    6.7520 C.ar   74  TRP74       0.0152
     62  NE1       19.7380    6.6940    8.6980 N.ar   74  TRP74      -0.2442
     63  CE2       19.9440    5.5670    7.9470 C.ar   74  TRP74       0.0810
     64  CE3       19.2590    4.6880    5.8060 C.ar   74  TRP74       0.0012
     65  CZ2       20.7050    4.4350    8.2190 C.ar   74  TRP74       0.0191
     66  CZ3       20.0150    3.5640    6.0800 C.ar   74  TRP74       0.0001
     67  CH2       20.7270    3.4470    7.2740 C.ar   74  TRP74       0.0015
     68  N         16.1310    5.0470    7.0000 N.am   75  LEU75      -0.1980
     69  CA        15.9800    3.5960    7.0350 C.3    75  LEU75       0.1596
     70  C         14.5090    3.1980    6.9730 C.2    75  LEU75       0.2287
     71  O         14.1600    2.1870    6.3700 O.2    75  LEU75      -0.2864
     72  CB        16.6530    2.9990    8.2740 C.3    75  LEU75       0.0297
     73  CG        16.6920    1.4690    8.3020 C.3    75  LEU75       0.0022
     74  CD1       17.2890    0.9300    7.0120 C.3    75  LEU75       0.0001
     75  CD2       17.4710    0.9670    9.5040 C.3    75  LEU75       0.0001
     76  N         13.6370    3.3910    3.3250 N.3    78  LEU78      -0.1231
     77  CA        14.1960    2.2340    2.6400 C.3    78  LEU78       0.1693
     78  C         13.3660    0.9980    2.9520 C.2    78  LEU78       0.2591
     79  O         13.1300    0.1580    2.0860 O.2    78  LEU78      -0.2718
     80  CB        15.6460    1.9950    3.0650 C.3    78  LEU78       0.0284
     81  CG        16.7260    2.9310    2.5270 C.3    78  LEU78       0.0019
     82  CD1       18.0900    2.4770    3.0020 C.3    78  LEU78       0.0001
     83  CD2       16.6840    2.9980    1.0140 C.3    78  LEU78       0.0001
     84  N         12.9230    0.8980    4.2000 N.am   79  MET79      -0.1979
     85  CA        12.1610   -0.2600    4.6520 C.3    79  MET79       0.1605
     86  C         10.7600   -0.3260    4.0620 C.2    79  MET79       0.2287
     87  O         10.3390   -1.3760    3.5850 O.2    79  MET79      -0.2864
     88  CB        12.1010   -0.3180    6.1810 C.3    79  MET79       0.0413
     89  CG        13.3750   -0.8400    6.8110 C.3    79  MET79       0.0598
     90  SD        13.2660   -1.0440    8.5940 S.3    79  MET79      -0.1393
     91  CE        14.9030   -1.6750    8.9360 C.3    79  MET79       0.0692
     92  N         11.0370   -1.3440    0.6050 N.3    82  LEU82      -0.1245
     93  CA        11.2940   -2.7770    0.5290 C.3    82  LEU82       0.1561
     94  C         10.0040   -3.5640    0.6990 C.2    82  LEU82       0.2260
     95  O          9.7530   -4.5300   -0.0200 O.2    82  LEU82      -0.2867
     96  CB        12.2960   -3.1970    1.6070 C.3    82  LEU82       0.0270
     97  CG        12.5410   -4.6990    1.7690 C.3    82  LEU82       0.0019
     98  CD1       13.2120   -5.2690    0.5390 C.3    82  LEU82       0.0001
     99  CD2       13.3760   -4.9650    2.9980 C.3    82  LEU82       0.0001
    100  N          7.8870   -3.2950   -2.3850 N.3    85  ARG85      -0.1245
    101  CA         8.4100   -4.0750   -3.5030 C.3    85  ARG85       0.1563
    102  C          8.1200   -5.5580   -3.3150 C.2    85  ARG85       0.2260
    103  O          7.9290   -6.2920   -4.2820 O.2    85  ARG85      -0.2867
    104  CB         9.9180   -3.8650   -3.6680 C.3    85  ARG85       0.0307
    105  CG        10.3140   -2.4770   -4.1310 C.3    85  ARG85       0.0489
    106  CD        11.7710   -2.4290   -4.5580 C.3    85  ARG85       0.2205
    107  NE        12.6700   -2.8940   -3.5070 N.pl3  85  ARG85      -0.0865
    108  CZ        13.3410   -2.0950   -2.6860 C.cat  85  ARG85       0.5346
    109  NH1       13.2200   -0.7800   -2.7920 N.pl3  85  ARG85       0.1354
    110  NH2       14.1370   -2.6120   -1.7600 N.pl3  85  ARG85       0.1354
    111  N         14.6210   -7.1550   -2.2980 N.3    95  PHE95      -0.1241
    112  CA        15.5570   -6.0490   -2.1210 C.3    95  PHE95       0.1605
    113  C         15.8420   -5.4010   -3.4660 C.2    95  PHE95       0.2264
    114  O         15.8240   -4.1790   -3.6040 O.2    95  PHE95      -0.2867
    115  CB        16.8580   -6.5470   -1.4910 C.3    95  PHE95       0.0534
    116  CG        16.6860   -7.1080   -0.1080 C.ar   95  PHE95      -0.0203
    117  CD1       16.9780   -6.3420    1.0050 C.ar   95  PHE95      -0.0042
    118  CD2       16.2280   -8.4010    0.0790 C.ar   95  PHE95      -0.0042
    119  CE1       16.8200   -6.8560    2.2790 C.ar   95  PHE95      -0.0003
    120  CE2       16.0670   -8.9180    1.3510 C.ar   95  PHE95      -0.0003
    121  CZ        16.3630   -8.1440    2.4500 C.ar   95  PHE95      -0.0000
    122  N         17.3740  -15.9960    4.5190 N.3   106  GLY106     -0.1210
    123  CA        17.5470  -14.7500    5.2400 C.3   106  GLY106      0.1956
    124  C         18.7420  -14.6830    6.1710 C.2   106  GLY106      0.2611
    125  O         19.6870  -13.9430    5.9010 O.2   106  GLY106     -0.2717
    126  N         18.6900  -15.4730    7.2450 N.am  107  LYS107     -0.1979
    127  CA        19.6340  -15.4080    8.3690 C.3   107  LYS107      0.1596
    128  C         21.1050  -15.1580    8.0310 C.2   107  LYS107      0.2287
    129  O         21.5030  -14.0150    7.8010 O.2   107  LYS107     -0.2864
    130  CB        19.5140  -16.6600    9.2490 C.3   107  LYS107      0.0298
    131  CG        19.2550  -17.9490    8.4850 C.3   107  LYS107      0.0038
    132  CD        17.7910  -18.3420    8.5490 C.3   107  LYS107      0.0206
    133  CE        17.4030  -18.7530    9.9580 C.3   107  LYS107      0.1093
    134  NZ        15.9420  -19.0100   10.0730 N.3   107  LYS107     -0.1314
    135  N         23.7090  -13.8630    8.6700 N.3   109  VAL109     -0.1245
    136  CA        24.0080  -12.7930    9.6100 C.3   109  VAL109      0.1561
    137  C         23.2340  -12.9820   10.9100 C.2   109  VAL109      0.2260
    138  O         22.0520  -13.3260   10.8790 O.2   109  VAL109     -0.2867
    139  CB        23.6390  -11.4370    8.9950 C.3   109  VAL109      0.0252
    140  CG1       23.9930  -10.2950    9.9350 C.3   109  VAL109      0.0019
    141  CG2       24.3390  -11.2780    7.6630 C.3   109  VAL109      0.0019
    142  N         18.4640  -10.8510   12.5870 N.3   112  MET112     -0.1245
    143  CA        17.9890  -10.4580   11.2630 C.3   112  MET112      0.1570
    144  C         17.0010  -11.4320   10.6210 C.2   112  MET112      0.2261
    145  O         16.7450  -11.3700    9.4200 O.2   112  MET112     -0.2867
    146  CB        19.1810  -10.1870   10.3410 C.3   112  MET112      0.0387
    147  CG        20.2710   -9.3080   10.9630 C.3   112  MET112      0.0595
    148  SD        19.8080   -7.5760   11.1880 S.3   112  MET112     -0.1393
    149  CE        19.0540   -7.5930   12.8130 C.3   112  MET112      0.0692
    150  N         13.5930   -9.3040   12.4250 N.3   115  ILE115     -0.1231
    151  CA        13.2510   -8.1380   11.6200 C.3   115  ILE115      0.1692
    152  C         12.8240   -8.5480   10.2080 C.2   115  ILE115      0.2592
    153  O         12.0260   -7.8630    9.5670 O.2   115  ILE115     -0.2718
    154  CB        14.4210   -7.1240   11.5750 C.3   115  ILE115      0.0266
    155  CG1       14.0430   -5.8840   10.7670 C.3   115  ILE115      0.0019
    156  CG2       15.6690   -7.7660   11.0090 C.3   115  ILE115      0.0020
    157  CD1       15.1860   -4.9190   10.5950 C.3   115  ILE115      0.0001
    158  N         13.3420   -9.6790    9.7400 N.am  116  PHE116     -0.1976
    159  CA        12.9470  -10.2260    8.4480 C.3   116  PHE116      0.1639
    160  C         11.4680  -10.5850    8.4780 C.2   116  PHE116      0.2290
    161  O         10.7360  -10.3190    7.5290 O.2   116  PHE116     -0.2864
    162  CB        13.7760  -11.4710    8.1200 C.3   116  PHE116      0.0560
    163  CG        13.7600  -11.8510    6.6630 C.ar  116  PHE116     -0.0200
    164  CD1       12.6510  -12.4570    6.0970 C.ar  116  PHE116     -0.0042
    165  CD2       14.8630  -11.6160    5.8630 C.ar  116  PHE116     -0.0042
    166  CE1       12.6400  -12.8070    4.7600 C.ar  116  PHE116     -0.0003
    167  CE2       14.8580  -11.9660    4.5260 C.ar  116  PHE116     -0.0003
    168  CZ        13.7460  -12.5620    3.9760 C.ar  116  PHE116     -0.0000
    169  N          9.2300   -7.4850    8.5330 N.3   119  LEU119     -0.1245
    170  CA         9.0850   -6.9390    7.1890 C.3   119  LEU119      0.1561
    171  C          8.0690   -7.7460    6.3970 C.2   119  LEU119      0.2260
    172  O          7.2390   -7.1870    5.6830 O.2   119  LEU119     -0.2867
    173  CB        10.4280   -6.9370    6.4610 C.3   119  LEU119      0.0270
    174  CG        11.4950   -5.9930    7.0090 C.3   119  LEU119      0.0019
    175  CD1       12.8570   -6.3830    6.4820 C.3   119  LEU119      0.0001
    176  CD2       11.1870   -4.5540    6.6560 C.3   119  LEU119      0.0001
    177  N         16.8330   -2.3060   13.3870 N.3   203  GLY203     -0.1225
    178  CA        17.7850   -2.4640   12.3020 C.3   203  GLY203      0.1811
    179  C         18.9540   -1.5100   12.4420 C.2   203  GLY203      0.2280
    180  O         20.0970   -1.8640   12.1560 O.2   203  GLY203     -0.2866
    181  N         21.2840   -2.8430   14.9580 N.3   206  HIS206     -0.1226
    182  CA        22.1730   -3.8750   14.4490 C.3   206  HIS206      0.1752
    183  C         23.2850   -3.2720   13.6020 C.2   206  HIS206      0.2595
    184  O         24.3830   -3.8200   13.5190 O.2   206  HIS206     -0.2718
    185  CB        21.3790   -4.8810   13.6210 C.3   206  HIS206      0.0759
    186  CG        22.1630   -6.0910   13.2250 C.ar  206  HIS206      0.0818
    187  ND1       22.9160   -6.1470   12.0720 N.ar  206  HIS206     -0.2268
    188  CD2       22.3050   -7.2960   13.8260 C.ar  206  HIS206      0.1154
    189  CE1       23.4900   -7.3330   11.9810 C.ar  206  HIS206      0.1986
    190  NE2       23.1350   -8.0500   13.0330 N.ar  206  HIS206     -0.2212
    191  N         22.9900   -2.1400   12.9730 N.am  207  LEU207     -0.1980
    192  CA        23.9530   -1.4600   12.1150 C.3   207  LEU207      0.1596
    193  C         25.0840   -0.8270   12.9170 C.2   207  LEU207      0.2287
    194  O         26.2230   -0.7630   12.4560 O.2   207  LEU207     -0.2864
    195  CB        23.2500   -0.4020   11.2620 C.3   207  LEU207      0.0297
    196  CG        23.0420   -0.7530    9.7880 C.3   207  LEU207      0.0022
    197  CD1       22.6220   -2.2020    9.6210 C.3   207  LEU207      0.0001
    198  CD2       22.0260    0.1820    9.1540 C.3   207  LEU207      0.0001
    199  N         31.1460   -0.4920    5.2440 N.3   213  LEU213     -0.1245
    200  CA        30.1940    0.6250    5.2120 C.3   213  LEU213      0.1561
    201  C         30.7590    1.8810    4.5500 C.2   213  LEU213      0.2260
    202  O         31.9550    2.1550    4.6180 O.2   213  LEU213     -0.2867
    203  CB        29.6620    0.9580    6.6100 C.3   213  LEU213      0.0270
    204  CG        28.7080   -0.0440    7.2610 C.3   213  LEU213      0.0019
    205  CD1       28.4020    0.3630    8.6950 C.3   213  LEU213      0.0001
    206  CD2       27.4300   -0.1570    6.4530 C.3   213  LEU213      0.0001
    207  N         26.6520    6.3420    4.6390 N.3   217  LEU217     -0.1245
    208  CA        25.9160    5.5040    5.5800 C.3   217  LEU217      0.1561
    209  C         26.3610    5.7600    7.0150 C.2   217  LEU217      0.2260
    210  O         25.5640    5.6730    7.9470 O.2   217  LEU217     -0.2867
    211  CB        26.0950    4.0240    5.2370 C.3   217  LEU217      0.0270
    212  CG        25.2620    3.4660    4.0870 C.3   217  LEU217      0.0019
    213  CD1       25.7680    2.0930    3.6930 C.3   217  LEU217      0.0001
    214  CD2       23.8020    3.4000    4.4960 C.3   217  LEU217      0.0001
@<TRIPOS>BOND
     1   106   105    1
     2   106   107    1
     3   103   102    2
     4    38    37    1
     5   105   104    1
     6   104   101    1
     7   114   113    2
     8   107   108    2
     9   101   102    1
    10   101   100    1
    11   113   112    1
    12    45    46    1
    13    50    51    1
    14    50    49    1
    15    46    47    1
    16    46    49    1
    17   109   108    1
    18    37    39    1
    19    37    36    1
    20   108   110    1
    21    53    51   ar
    22    33    36    1
    23    33    32    1
    24    33    34    1
    25    48    47    2
    26    35    34    2
    27   111   112    1
    28    51    52   ar
    29   112   115    1
    30    34    40   am
    31   115   116    1
    32    40    41    1
    33   116   118   ar
    34   116   117   ar
    35    95    94    2
    36    43    42    2
    37   118   120   ar
    38    42    41    1
    39    41    44    1
    40    93    92    1
    41    93    94    1
    42    93    96    1
    43    98    97    1
    44    17    18    1
    45    28    27    2
    46    27    26    1
    47   117   119   ar
    48    83    81    1
    49    23    22    1
    50    18    19    1
    51    18    21    1
    52    20    19    2
    53   120   121   ar
    54    19    25   am
    55    96    97    1
    56    97    99    1
    57    25    26    1
    58     2     1    1
    59     2     3    1
    60     2     5    1
    61     4     3    2
    62    79    78    2
    63    22    21    1
    64    22    24    1
    65     6     5    1
    66     6     7    1
    67    26    29    1
    68   119   121   ar
    69     8     7    1
    70    30    29    1
    71    81    82    1
    72    81    80    1
    73     3     9   am
    74    77    78    1
    75    77    80    1
    76    77    76    1
    77    78    84   am
    78    12    11    2
    79    29    31    1
    80    11    10    1
    81    87    86    2
    82     9    10    1
    83   213   212    1
    84   168   167   ar
    85   168   166   ar
    86    86    85    1
    87   212   214    1
    88   212   211    1
    89    84    85    1
    90    10    13    1
    91   122   123    1
    92   167   165   ar
    93   201   202    2
    94   201   200    1
    95   207   208    1
    96    85    88    1
    97   166   164   ar
    98    57    56    2
    99   200   199    1
   100   200   203    1
   101   211   208    1
   102   123   124    1
   103    13    14    1
   104   208   209    1
   105   172   171    2
   106    58    55    1
   107    58    59    1
   108    64    66   ar
   109    64    61   ar
   110   165   163   ar
   111    56    55    1
   112    56    68   am
   113   125   124    2
   114    55    54    1
   115    66    67   ar
   116   164   163   ar
   117   124   126   am
   118    88    89    1
   119    71    70    2
   120   171   170    1
   121   206   204    1
   122   173   174    1
   123   173   170    1
   124   175   174    1
   125   203   204    1
   126   176   174    1
   127   163   162    1
   128    61    59   ar
   129    61    63   ar
   130    14    15    1
   131    89    90    1
   132    59    60   ar
   133    15    16    1
   134    70    69    1
   135    68    69    1
   136    74    73    1
   137   209   210    2
   138    69    72    1
   139   170   169    1
   140   126   127    1
   141   204   205    1
   142    67    65   ar
   143   161   160    2
   144   141   139    1
   145   129   128    2
   146    63    65   ar
   147    63    62   ar
   148    60    62   ar
   149   128   127    1
   150   162   159    1
   151    72    73    1
   152    73    75    1
   153   127   130    1
   154   159   160    1
   155   159   158    1
   156   131   132    1
   157   131   130    1
   158   132   133    1
   159    90    91    1
   160   135   136    1
   161   139   136    1
   162   139   140    1
   163   198   196    1
   164   145   144    2
   165   153   152    2
   166   136   137    1
   167   197   196    1
   168   158   152   am
   169   196   195    1
   170   133   134    1
   171   152   151    1
   172   146   147    1
   173   146   143    1
   174   157   155    1
   175   144   143    1
   176   155   154    1
   177   138   137    2
   178   147   148    1
   179   156   154    1
   180   148   149    1
   181   195   192    1
   182   143   142    1
   183   154   151    1
   184   151   150    1
   185   189   187   ar
   186   189   190   ar
   187   187   186   ar
   188   192   193    1
   189   192   191    1
   190   180   179    2
   191   178   179    1
   192   178   177    1
   193   194   193    2
   194   191   183   am
   195   190   188   ar
   196   186   185    1
   197   186   188   ar
   198   184   183    2
   199   183   182    1
   200   185   182    1
   201   182   181    1
