@<TRIPOS>MOLECULE
tmp/5dkvA00.pdb
 148 140 0 0 0
SMALL
GASTEIGER

@<TRIPOS>ATOM
      1  N         66.0830   10.3210   46.7690 N.3    18  ASP18      -0.1239
      2  CA        66.2650   11.1400   45.5900 C.3    18  ASP18       0.1674
      3  C         66.5570   12.5210   46.1420 C.2    18  ASP18       0.2266
      4  O         65.7360   13.1070   46.8330 O.2    18  ASP18      -0.2867
      5  CB        64.9950   11.0970   44.7100 C.3    18  ASP18       0.1410
      6  CG        65.0670   11.9790   43.4610 C.2    18  ASP18       0.3668
      7  OD1       65.8570   12.9510   43.4100 O.co2  18  ASP18      -0.2456
      8  OD2       64.2930   11.6960   42.5090 O.co2  18  ASP18      -0.2456
      9  N         66.5980   15.3560   44.9560 N.3    20  PHE20      -0.1227
     10  CA        65.6410   16.3920   44.5840 C.3    20  PHE20       0.1736
     11  C         64.5180   16.4640   45.6130 C.2    20  PHE20       0.2595
     12  O         64.1850   17.5380   46.1380 O.2    20  PHE20      -0.2718
     13  CB        65.0580   16.1250   43.2050 C.3    20  PHE20       0.0547
     14  CG        63.9530   17.0740   42.7940 C.ar   20  PHE20      -0.0202
     15  CD1       64.2410   18.3210   42.3150 C.ar   20  PHE20      -0.0042
     16  CD2       62.6290   16.6730   42.8400 C.ar   20  PHE20      -0.0042
     17  CE1       63.2490   19.1850   41.9090 C.ar   20  PHE20      -0.0003
     18  CE2       61.6070   17.5350   42.4410 C.ar   20  PHE20      -0.0003
     19  CZ        61.9110   18.8030   41.9820 C.ar   20  PHE20      -0.0000
     20  N         63.9340   15.3160   45.9220 N.am   21  TYR21      -0.1976
     21  CA        62.8110   15.3070   46.8520 C.3    21  TYR21       0.1639
     22  C         63.2840   15.5340   48.2880 C.2    21  TYR21       0.2290
     23  O         62.5560   16.0770   49.1170 O.2    21  TYR21      -0.2864
     24  CB        62.0230   14.0080   46.7260 C.3    21  TYR21       0.0560
     25  CG        61.3010   13.9090   45.3900 C.ar   21  TYR21      -0.0198
     26  CD1       60.2850   14.8260   45.0500 C.ar   21  TYR21      -0.0009
     27  CD2       61.6310   12.9490   44.4600 C.ar   21  TYR21      -0.0009
     28  CE1       59.6470   14.7640   43.8310 C.ar   21  TYR21       0.0417
     29  CE2       60.9860   12.8960   43.2180 C.ar   21  TYR21       0.0417
     30  CZ        60.0000   13.7990   42.9190 C.ar   21  TYR21       0.1957
     31  OH        59.3970   13.6830   41.6890 O.3    21  TYR21      -0.2866
     32  N         59.7990    5.4410   41.9660 N.3    47  PHE47      -0.1241
     33  CA        58.9210    6.3740   41.2490 C.3    47  PHE47       0.1605
     34  C         57.9350    5.5220   40.4690 C.2    47  PHE47       0.2264
     35  O         58.2230    5.0620   39.3570 O.2    47  PHE47      -0.2867
     36  CB        59.7560    7.2950   40.3410 C.3    47  PHE47       0.0534
     37  CG        59.0130    8.4770   39.7870 C.ar   47  PHE47      -0.0203
     38  CD1       58.1910    8.3490   38.6810 C.ar   47  PHE47      -0.0042
     39  CD2       59.1600    9.7200   40.3590 C.ar   47  PHE47      -0.0042
     40  CE1       57.5270    9.4530   38.1590 C.ar   47  PHE47      -0.0003
     41  CE2       58.4970   10.8260   39.8500 C.ar   47  PHE47      -0.0003
     42  CZ        57.6740   10.6930   38.7590 C.ar   47  PHE47      -0.0000
     43  N         56.2740   19.5440   41.6270 N.3    95  ASP95      -0.1225
     44  CA        57.1660   18.9190   40.6280 C.3    95  ASP95       0.1805
     45  C         56.4060   18.3990   39.4080 C.2    95  ASP95       0.2598
     46  O         56.5650   18.9200   38.2930 O.2    95  ASP95      -0.2718
     47  CB        57.9990   17.7990   41.2640 C.3    95  ASP95       0.1424
     48  CG        58.9950   17.2040   40.3010 C.2    95  ASP95       0.3668
     49  OD1       59.6250   17.9770   39.5320 O.co2  95  ASP95      -0.2456
     50  OD2       59.1560   15.9590   40.3450 O.co2  95  ASP95      -0.2456
     51  N         55.5640   17.3980   39.6390 N.am   96  THR96      -0.1953
     52  CA        54.7610   16.7530   38.6120 C.3    96  THR96       0.1897
     53  C         53.2830   17.1110   38.7680 C.2    96  THR96       0.2313
     54  O         52.8890   17.6770   39.7890 O.2    96  THR96      -0.2863
     55  CB        54.9020   15.2450   38.7010 C.3    96  THR96       0.1794
     56  OG1       54.5900   14.8470   40.0440 O.3    96  THR96      -0.2208
     57  CG2       56.3200   14.8310   38.3470 C.3    96  THR96       0.0378
     58  N         63.9670    8.9540   31.4690 N.3   147  VAL147     -0.1245
     59  CA        63.4460    7.9860   32.4240 C.3   147  VAL147      0.1561
     60  C         62.5080    6.9810   31.7610 C.2   147  VAL147      0.2260
     61  O         62.8600    5.8090   31.5740 O.2   147  VAL147     -0.2867
     62  CB        62.7150    8.7280   33.5780 C.3   147  VAL147      0.0252
     63  CG1       62.1610    7.7440   34.5870 C.3   147  VAL147      0.0019
     64  CG2       63.6710    9.6640   34.2730 C.3   147  VAL147      0.0019
     65  N         56.2770   10.4690   32.0360 N.3   151  VAL151     -0.1245
     66  CA        56.5990   11.2130   33.2400 C.3   151  VAL151      0.1561
     67  C         56.5060   12.6860   32.8680 C.2   151  VAL151      0.2260
     68  O         57.1780   13.1080   31.9580 O.2   151  VAL151     -0.2867
     69  CB        58.0070   10.8950   33.7710 C.3   151  VAL151      0.0252
     70  CG1       58.3230   11.7630   34.9960 C.3   151  VAL151      0.0019
     71  CG2       58.1300    9.3990   34.0830 C.3   151  VAL151      0.0019
     72  N         57.3290   15.7070   33.8710 N.3   153  THR153     -0.1203
     73  CA        58.4690   16.6240   33.9180 C.3   153  THR153      0.1994
     74  C         59.5110   16.2850   32.8490 C.2   153  THR153      0.2618
     75  O         59.9540   17.1500   32.0970 O.2   153  THR153     -0.2717
     76  CB        59.1460   16.5640   35.2670 C.3   153  THR153      0.1784
     77  OG1       59.3430   15.1880   35.5910 O.3   153  THR153     -0.2211
     78  CG2       58.2810   17.2440   36.3470 C.3   153  THR153      0.0376
     79  N         59.9330   15.0270   32.8210 N.am  154  THR154     -0.1952
     80  CA        60.9700   14.6220   31.8900 C.3   154  THR154      0.1897
     81  C         60.4560   14.5230   30.4470 C.2   154  THR154      0.2313
     82  O         61.2310   14.7040   29.5130 O.2   154  THR154     -0.2863
     83  CB        61.5970   13.3050   32.3280 C.3   154  THR154      0.1794
     84  OG1       60.5770   12.3130   32.4380 O.3   154  THR154     -0.2208
     85  CG2       62.3220   13.4670   33.6780 C.3   154  THR154      0.0378
     86  N         60.9430   18.0960   29.4520 N.3   157  ARG157     -0.1245
     87  CA        62.3440   18.4080   29.2230 C.3   157  ARG157      0.1563
     88  C         62.8010   17.8590   27.8840 C.2   157  ARG157      0.2260
     89  O         63.5260   18.5210   27.1590 O.2   157  ARG157     -0.2867
     90  CB        63.2210   17.8490   30.3420 C.3   157  ARG157      0.0307
     91  CG        62.9310   18.4470   31.6790 C.3   157  ARG157      0.0489
     92  CD        63.6000   17.7300   32.8450 C.3   157  ARG157      0.2205
     93  NE        62.9350   18.1400   34.0860 N.pl3 157  ARG157     -0.0865
     94  CZ        63.0190   17.5190   35.2520 C.cat 157  ARG157      0.5346
     95  NH1       63.7790   16.4410   35.4000 N.pl3 157  ARG157      0.1354
     96  NH2       62.3550   18.0080   36.2920 N.pl3 157  ARG157      0.1354
     97  N         64.6390    5.1870   35.3220 N.3   181  ASN181     -0.1240
     98  CA        65.1970    5.8690   36.4870 C.3   181  ASN181      0.1653
     99  C         66.4030    5.1730   37.1160 C.2   181  ASN181      0.2266
    100  O         66.7640    5.4650   38.2470 O.2   181  ASN181     -0.2867
    101  CB        64.1300    6.1040   37.5510 C.3   181  ASN181      0.1155
    102  CG        64.1920    7.5070   38.1480 C.2   181  ASN181      0.2627
    103  OD1       64.6990    8.4450   37.5340 O.2   181  ASN181     -0.2716
    104  ND2       63.6610    7.6530   39.3510 N.am  181  ASN181     -0.0877
    105  N         67.1840   13.8280   33.9360 N.3   207  ASN207     -0.1225
    106  CA        66.9590   13.9590   35.3750 C.3   207  ASN207      0.1785
    107  C         68.2000   13.4530   36.0970 C.2   207  ASN207      0.2597
    108  O         69.1680   13.0110   35.4700 O.2   207  ASN207     -0.2718
    109  CB        65.6870   13.2200   35.8560 C.3   207  ASN207      0.1169
    110  CG        65.9050   11.7290   36.1240 C.2   207  ASN207      0.2627
    111  OD1       66.7220   11.0900   35.4710 O.2   207  ASN207     -0.2716
    112  ND2       65.1130   11.1650   37.0420 N.am  207  ASN207     -0.0877
    113  N         68.1730   13.5770   37.4170 N.am  208  LEU208     -0.1966
    114  CA        69.3260   13.2300   38.2440 C.3   208  LEU208      0.1728
    115  C         69.9730   11.9090   37.8470 C.2   208  LEU208      0.2616
    116  O         71.1800   11.8530   37.5210 O.2   208  LEU208     -0.2715
    117  CB        68.8950   13.1660   39.7010 C.3   208  LEU208      0.0311
    118  CG        69.9960   13.1730   40.7520 C.3   208  LEU208      0.0022
    119  CD1       69.4610   13.7110   42.0820 C.3   208  LEU208      0.0001
    120  CD2       70.6000   11.8020   40.9650 C.3   208  LEU208      0.0001
    121  N         69.1610   10.8600   37.8340 N.am  209  PHE209     -0.1974
    122  CA        69.6750    9.5010   37.6340 C.3   209  PHE209      0.1639
    123  C         70.1700    9.3140   36.2000 C.2   209  PHE209      0.2290
    124  O         71.1850    8.6700   35.9710 O.2   209  PHE209     -0.2864
    125  CB        68.5970    8.4870   38.0300 C.3   209  PHE209      0.0560
    126  CG        68.2280    8.5990   39.4700 C.ar  209  PHE209     -0.0200
    127  CD1       69.0990    8.1380   40.4360 C.ar  209  PHE209     -0.0042
    128  CD2       67.0600    9.2110   39.8720 C.ar  209  PHE209     -0.0042
    129  CE1       68.7950    8.2710   41.7790 C.ar  209  PHE209     -0.0003
    130  CE2       66.7720    9.3530   41.2230 C.ar  209  PHE209     -0.0003
    131  CZ        67.6320    8.8800   42.1590 C.ar  209  PHE209     -0.0000
    132  N         69.5440   18.3700   37.1660 N.3   233  ASP233     -0.1239
    133  CA        69.6370   18.2390   38.6230 C.3   233  ASP233      0.1674
    134  C         71.0830   18.3700   39.0930 C.2   233  ASP233      0.2266
    135  O         72.0110   18.4520   38.2800 O.2   233  ASP233     -0.2867
    136  CB        68.9750   16.9430   39.1240 C.3   233  ASP233      0.1410
    137  CG        67.4670   16.9540   38.8960 C.2   233  ASP233      0.3668
    138  OD1       66.9350   16.0210   38.2360 O.co2 233  ASP233     -0.2456
    139  OD2       66.8200   17.9290   39.3720 O.co2 233  ASP233     -0.2456
    140  N         67.5260   22.4350   39.4690 N.3   253  GLN253     -0.1245
    141  CA        66.2490   22.9850   39.8310 C.3   253  GLN253      0.1566
    142  C         66.3990   23.6360   41.1930 C.2   253  GLN253      0.2260
    143  O         67.4850   23.6380   41.7710 O.2   253  GLN253     -0.2867
    144  CB        65.1860   21.8940   39.8640 C.3   253  GLN253      0.0367
    145  CG        65.0310   21.1370   38.5360 C.3   253  GLN253      0.0905
    146  CD        63.8870   20.1650   38.5840 C.2   253  GLN253      0.2608
    147  OE1       62.7540   20.5640   38.4230 O.2   253  GLN253     -0.2717
    148  NE2       64.1810   18.8840   38.8170 N.am  253  GLN253     -0.0878
@<TRIPOS>BOND
     1    89    88    2
     2    88    87    1
     3    87    86    1
     4    87    90    1
     5    82    81    2
     6    90    91    1
     7    81    80    1
     8    58    59    1
     9    61    60    2
    10    91    92    1
    11    60    59    1
    12    80    83    1
    13    80    79    1
    14    68    67    2
    15    65    66    1
    16    75    74    2
    17    83    84    1
    18    83    85    1
    19    59    62    1
    20    79    74   am
    21    92    93    1
    22    74    73    1
    23    67    66    1
    24    66    69    1
    25    62    64    1
    26    62    63    1
    27    69    71    1
    28    69    70    1
    29    72    73    1
    30    73    76    1
    31   105   106    1
    32    93    94    2
    33    94    95    1
    34    94    96    1
    35    76    77    1
    36    76    78    1
    37    97    98    1
    38   106   109    1
    39   106   107    1
    40   108   107    2
    41   111   110    2
    42   109   110    1
    43   124   123    2
    44   107   113   am
    45   110   112   am
    46   123   122    1
    47    98    99    1
    48    98   101    1
    49    99   100    2
    50   132   133    1
    51   113   114    1
    52   116   115    2
    53   103   102    2
    54   101   102    1
    55   122   121    1
    56   122   125    1
    57   121   115   am
    58   115   114    1
    59   125   126    1
    60   102   104   am
    61    40    38   ar
    62    40    42   ar
    63   138   137   ar
    64   114   117    1
    65   135   134    2
    66    46    45    2
    67    57    55    1
    68   147   146    2
    69   145   146    1
    70   145   144    1
    71   146   148   am
    72    52    55    1
    73    52    53    1
    74    52    51    1
    75   133   134    1
    76   133   136    1
    77    38    37   ar
    78    55    56    1
    79    42    41   ar
    80    53    54    2
    81   137   136    1
    82   137   139   ar
    83    35    34    2
    84    45    51   am
    85    45    44    1
    86   140   141    1
    87   126   128   ar
    88   126   127   ar
    89    49    48   ar
    90   117   118    1
    91    37    36    1
    92    37    39   ar
    93   141   144    1
    94   141   142    1
    95    41    39   ar
    96   128   130   ar
    97    48    50   ar
    98    48    47    1
    99    36    33    1
   100   127   129   ar
   101    34    33    1
   102    44    47    1
   103    44    43    1
   104   118   120    1
   105   118   119    1
   106   142   143    2
   107   130   131   ar
   108    33    32    1
   109    31    30    1
   110   129   131   ar
   111    17    19   ar
   112    17    15   ar
   113    19    18   ar
   114    15    14   ar
   115    18    16   ar
   116     8     6   ar
   117    14    16   ar
   118    14    13    1
   119    30    29   ar
   120    30    28   ar
   121    13    10    1
   122    29    27   ar
   123     7     6   ar
   124     6     5    1
   125    28    26   ar
   126    27    25   ar
   127    10     9    1
   128    10    11    1
   129     5     2    1
   130    26    25   ar
   131    25    24    1
   132     2     3    1
   133     2     1    1
   134    11    20   am
   135    11    12    2
   136    20    21    1
   137     3     4    2
   138    24    21    1
   139    21    22    1
   140    22    23    2
