@<TRIPOS>MOLECULE
tmp/5dkwA01.pdb
 135 128 0 0 0
SMALL
GASTEIGER

@<TRIPOS>ATOM
      1  N        -16.5300   36.6620  -33.2450 N.3   138  ARG138     -0.1245
      2  CA       -16.9400   36.9730  -31.8860 C.3   138  ARG138      0.1563
      3  C        -16.5510   38.4000  -31.5340 C.2   138  ARG138      0.2260
      4  O        -15.5010   38.8860  -31.9410 O.2   138  ARG138     -0.2867
      5  CB       -16.3230   35.9820  -30.9070 C.3   138  ARG138      0.0307
      6  CG       -16.5800   34.5390  -31.2950 C.3   138  ARG138      0.0489
      7  CD       -15.8680   33.5940  -30.3640 C.3   138  ARG138      0.2205
      8  NE       -16.2750   33.7980  -28.9820 N.pl3 138  ARG138     -0.0865
      9  CZ       -17.3760   33.2810  -28.4490 C.cat 138  ARG138      0.5346
     10  NH1      -18.1890   32.5420  -29.1910 N.pl3 138  ARG138      0.1354
     11  NH2      -17.6690   33.5100  -27.1770 N.pl3 138  ARG138      0.1354
     12  N        -25.4570   34.7380  -20.9660 N.3   168  GLY168     -0.1210
     13  CA       -24.5970   34.0650  -21.8920 C.3   168  GLY168      0.1956
     14  C        -23.1770   34.0330  -21.4770 C.2   168  GLY168      0.2612
     15  O        -22.9020   34.1690  -20.3540 O.2   168  GLY168     -0.2717
     16  N        -22.2830   33.8730  -22.4190 N.am  169  SER169     -0.1952
     17  CA       -20.8800   33.8410  -22.1650 C.3   169  SER169      0.1924
     18  C        -20.3920   35.1270  -21.5570 C.2   169  SER169      0.2314
     19  O        -19.4180   35.1320  -20.8970 O.2   169  SER169     -0.2863
     20  CB       -20.1220   33.5380  -23.4340 C.3   169  SER169      0.2116
     21  OG       -20.3560   34.4870  -24.4030 O.3   169  SER169     -0.2180
     22  N        -20.4990   34.9220  -18.0250 N.3   172  ARG172     -0.1245
     23  CA       -19.5720   33.9060  -17.5450 C.3   172  ARG172      0.1563
     24  C        -18.1280   34.3870  -17.6360 C.2   172  ARG172      0.2260
     25  O        -17.1950   33.6150  -17.4270 O.2   172  ARG172     -0.2867
     26  CB       -19.7490   32.6050  -18.3270 C.3   172  ARG172      0.0307
     27  CG       -21.1730   32.0870  -18.3110 C.3   172  ARG172      0.0489
     28  CD       -21.2480   30.5920  -18.5570 C.3   172  ARG172      0.2205
     29  NE       -20.4800   30.1710  -19.7220 N.pl3 172  ARG172     -0.0865
     30  CZ       -20.9520   30.1760  -20.9630 C.cat 172  ARG172      0.5346
     31  NH1      -22.1870   30.5940  -21.1970 N.pl3 172  ARG172      0.1354
     32  NH2      -20.1910   29.7680  -21.9700 N.pl3 172  ARG172      0.1354
     33  N        -20.1180   35.3780  -28.7580 N.3   178  GLY178     -0.1210
     34  CA       -20.6730   35.0360  -30.0570 C.3   178  GLY178      0.1956
     35  C        -21.9010   35.8640  -30.3890 C.2   178  GLY178      0.2611
     36  O        -22.1660   36.1720  -31.5490 O.2   178  GLY178     -0.2717
     37  N        -22.6490   36.2270  -29.3550 N.am  179  ASP179     -0.1973
     38  CA       -23.8580   37.0250  -29.4970 C.3   179  ASP179      0.1709
     39  C        -24.2440   37.5940  -28.1360 C.2   179  ASP179      0.2293
     40  O        -23.5950   37.3000  -27.1340 O.2   179  ASP179     -0.2864
     41  CB       -24.9990   36.1880  -30.0760 C.3   179  ASP179      0.1436
     42  CG       -25.1760   34.8610  -29.3590 C.2   179  ASP179      0.3671
     43  OD1      -24.1930   34.3650  -28.7660 O.co2 179  ASP179     -0.2456
     44  OD2      -26.2990   34.3100  -29.3930 O.co2 179  ASP179     -0.2456
     45  N        -27.4350   38.1770  -25.3160 N.3   181  ASP181     -0.1239
     46  CA       -28.8000   37.9510  -24.8590 C.3   181  ASP181      0.1674
     47  C        -29.0900   38.8300  -23.6490 C.2   181  ASP181      0.2266
     48  O        -28.4650   38.6780  -22.6000 O.2   181  ASP181     -0.2867
     49  CB       -29.0320   36.4790  -24.5120 C.3   181  ASP181      0.1410
     50  CG       -28.5710   35.5340  -25.6130 C.2   181  ASP181      0.3668
     51  OD1      -28.4980   35.9600  -26.7860 O.co2 181  ASP181     -0.2456
     52  OD2      -28.2900   34.3560  -25.3040 O.co2 181  ASP181     -0.2456
     53  N        -30.4440   38.9300  -28.6530 N.3   242  ASP242     -0.1239
     54  CA       -31.6720   38.3510  -28.1330 C.3   242  ASP242      0.1674
     55  C        -32.1990   39.2140  -27.0060 C.2   242  ASP242      0.2266
     56  O        -31.4280   39.7060  -26.1940 O.2   242  ASP242     -0.2867
     57  CB       -31.4450   36.9170  -27.6570 C.3   242  ASP242      0.1410
     58  CG       -31.1590   35.9610  -28.8080 C.2   242  ASP242      0.3668
     59  OD1      -31.4240   36.3520  -29.9660 O.co2 242  ASP242     -0.2456
     60  OD2      -30.6790   34.8260  -28.5690 O.co2 242  ASP242     -0.2456
     61  N        -30.8120   29.7960  -17.0440 N.3   257  TYR257     -0.1227
     62  CA       -30.9240   29.1340  -18.3420 C.3   257  TYR257      0.1736
     63  C        -30.1880   29.8800  -19.4500 C.2   257  TYR257      0.2595
     64  O        -29.5370   29.2600  -20.2940 O.2   257  TYR257     -0.2718
     65  CB       -32.3980   28.9600  -18.7180 C.3   257  TYR257      0.0548
     66  CG       -32.6410   28.3400  -20.0780 C.ar  257  TYR257     -0.0200
     67  CD1      -32.7580   26.9670  -20.2300 C.ar  257  TYR257     -0.0009
     68  CD2      -32.7760   29.1340  -21.2100 C.ar  257  TYR257     -0.0009
     69  CE1      -32.9920   26.4060  -21.4730 C.ar  257  TYR257      0.0417
     70  CE2      -33.0020   28.5840  -22.4450 C.ar  257  TYR257      0.0417
     71  CZ       -33.1120   27.2230  -22.5780 C.ar  257  TYR257      0.1957
     72  OH       -33.3520   26.6860  -23.8280 O.3   257  TYR257     -0.2866
     73  N        -30.2880   31.2040  -19.4600 N.am  258  PHE258     -0.1962
     74  CA       -29.6910   31.9720  -20.5490 C.3   258  PHE258      0.1771
     75  C        -28.2300   32.2940  -20.2710 C.2   258  PHE258      0.2620
     76  O        -27.4970   32.7170  -21.1640 O.2   258  PHE258     -0.2715
     77  CB       -30.4940   33.2510  -20.8130 C.3   258  PHE258      0.0574
     78  CG       -31.8550   32.9880  -21.3900 C.ar  258  PHE258     -0.0200
     79  CD1      -32.9950   33.1800  -20.6320 C.ar  258  PHE258     -0.0042
     80  CD2      -31.9880   32.5070  -22.6820 C.ar  258  PHE258     -0.0042
     81  CE1      -34.2450   32.9210  -21.1590 C.ar  258  PHE258     -0.0003
     82  CE2      -33.2370   32.2480  -23.2210 C.ar  258  PHE258     -0.0003
     83  CZ       -34.3660   32.4540  -22.4600 C.ar  258  PHE258     -0.0000
     84  N        -27.8010   32.0760  -19.0350 N.am  259  THR259     -0.1937
     85  CA       -26.3950   32.2140  -18.7050 C.3   259  THR259      0.2028
     86  C        -25.6290   31.0300  -19.2780 C.2   259  THR259      0.2643
     87  O        -24.5450   31.1820  -19.8330 O.2   259  THR259     -0.2714
     88  CB       -26.1790   32.3020  -17.1960 C.3   259  THR259      0.1808
     89  OG1      -26.7030   33.5460  -16.7230 O.3   259  THR259     -0.2208
     90  CG2      -24.6990   32.2270  -16.8600 C.3   259  THR259      0.0379
     91  N        -26.2080   29.8460  -19.1510 N.am  260  GLY260     -0.1939
     92  CA       -25.6090   28.6540  -19.7110 C.3   260  GLY260      0.2014
     93  C        -24.4550   28.1220  -18.8860 C.2   260  GLY260      0.2640
     94  O        -24.3410   28.4380  -17.7020 O.2   260  GLY260     -0.2714
     95  N        -23.5780   27.3340  -19.5040 N.am  261  SER261     -0.1935
     96  CA       -23.6160   27.0510  -20.9380 C.3   261  SER261      0.2055
     97  C        -24.6770   26.0230  -21.2920 C.2   261  SER261      0.2642
     98  O        -25.4410   25.5990  -20.4310 O.2   261  SER261     -0.2714
     99  CB       -22.2560   26.5530  -21.4080 C.3   261  SER261      0.2130
    100  OG       -22.0120   25.2590  -20.8900 O.3   261  SER261     -0.2179
    101  N        -24.7270   25.6280  -22.5590 N.am  262  ALA262     -0.1977
    102  CA       -25.7190   24.6580  -22.9960 C.3   262  ALA262      0.1597
    103  C        -25.3760   23.2800  -22.4410 C.2   262  ALA262      0.2287
    104  O        -26.2670   22.4920  -22.1040 O.2   262  ALA262     -0.2864
    105  CB       -25.8100   24.6260  -24.5090 C.3   262  ALA262      0.0319
    106  N        -26.4890   23.4930  -18.7660 N.3   265  ASN265     -0.1225
    107  CA       -27.9380   23.3440  -18.7060 C.3   265  ASN265      0.1785
    108  C        -28.3480   21.8880  -18.8230 C.2   265  ASN265      0.2597
    109  O        -29.1440   21.3900  -18.0260 O.2   265  ASN265     -0.2718
    110  CB       -28.6160   24.1550  -19.8080 C.3   265  ASN265      0.1169
    111  CG       -28.6240   25.6350  -19.5210 C.2   265  ASN265      0.2627
    112  OD1      -28.1210   26.0850  -18.4920 O.2   265  ASN265     -0.2716
    113  ND2      -29.1850   26.4080  -20.4380 N.am  265  ASN265     -0.0877
    114  N        -27.7820   21.2110  -19.8150 N.am  266  ARG266     -0.1979
    115  CA       -28.0510   19.7990  -20.0430 C.3   266  ARG266      0.1597
    116  C        -27.7240   18.9600  -18.8050 C.2   266  ARG266      0.2287
    117  O        -28.5150   18.1080  -18.3980 O.2   266  ARG266     -0.2864
    118  CB       -27.2580   19.3020  -21.2470 C.3   266  ARG266      0.0334
    119  CG       -27.5810   17.8880  -21.6390 C.3   266  ARG266      0.0492
    120  CD       -26.8570   17.4880  -22.9090 C.3   266  ARG266      0.2205
    121  NE       -27.1260   18.4250  -23.9940 N.pl3 266  ARG266     -0.0865
    122  CZ       -26.2190   19.2560  -24.4960 C.cat 266  ARG266      0.5346
    123  NH1      -24.9790   19.2480  -24.0130 N.pl3 266  ARG266      0.1354
    124  NH2      -26.5480   20.0850  -25.4830 N.pl3 266  ARG266      0.1354
    125  N        -30.2980   19.4900  -16.1750 N.3   269  ARG269     -0.1245
    126  CA       -31.5540   18.8300  -16.4840 C.3   269  ARG269      0.1563
    127  C        -31.4560   17.3670  -16.0810 C.2   269  ARG269      0.2260
    128  O        -32.3940   16.8120  -15.5140 O.2   269  ARG269     -0.2867
    129  CB       -31.9040   18.9700  -17.9690 C.3   269  ARG269      0.0307
    130  CG       -32.4210   20.3500  -18.3380 C.3   269  ARG269      0.0489
    131  CD       -33.1600   20.3560  -19.6720 C.3   269  ARG269      0.2205
    132  NE       -32.2910   20.0080  -20.7920 N.pl3 269  ARG269     -0.0865
    133  CZ       -31.4900   20.8670  -21.4130 C.cat 269  ARG269      0.5346
    134  NH1      -31.4370   22.1330  -21.0210 N.pl3 269  ARG269      0.1354
    135  NH2      -30.7370   20.4610  -22.4240 N.pl3 269  ARG269      0.1354
@<TRIPOS>BOND
     1     1     2    1
     2     4     3    2
     3     2     3    1
     4     2     5    1
     5    36    35    2
     6     6     5    1
     7     6     7    1
     8    35    34    1
     9    35    37   am
    10     7     8    1
    11    41    38    1
    12    41    42    1
    13    34    33    1
    14    59    58   ar
    15    38    37    1
    16    38    39    1
    17    44    42   ar
    18    42    43   ar
    19    10     9    1
    20     8     9    2
    21    58    60   ar
    22    58    57    1
    23    53    54    1
    24     9    11    1
    25    39    40    2
    26    54    57    1
    27    54    55    1
    28    55    56    2
    29    51    50   ar
    30    50    52   ar
    31    50    49    1
    32   124   122    1
    33    45    46    1
    34    46    49    1
    35    46    47    1
    36   105   102    1
    37   122   123    1
    38   122   121    2
    39    21    20    1
    40   121   120    1
    41    72    71    1
    42    47    48    2
    43    20    17    1
    44    82    80   ar
    45    82    83   ar
    46   102   101    1
    47   102   103    1
    48   120   119    1
    49    80    78   ar
    50    71    70   ar
    51    71    69   ar
    52   101    97   am
    53    83    81   ar
    54    70    68   ar
    55   103   104    2
    56   135   133    1
    57    16    17    1
    58    16    14   am
    59    17    18    1
    60    32    30    1
    61    13    14    1
    62    13    12    1
    63   119   118    1
    64    18    19    2
    65    14    15    2
    66    69    67   ar
    67   133   134    1
    68   133   132    2
    69    99    96    1
    70    99   100    1
    71    78    77    1
    72    78    79   ar
    73    97    96    1
    74    97    98    2
    75   118   115    1
    76    68    66   ar
    77    31    30    1
    78    76    75    2
    79    81    79   ar
    80    30    29    2
    81    96    95    1
    82    77    74    1
    83   132   131    1
    84    74    75    1
    85    74    73    1
    86   113   111   am
    87    64    63    2
    88    75    84   am
    89    67    66   ar
    90    66    65    1
    91   115   114    1
    92   115   116    1
    93    87    86    2
    94   114   108   am
    95   110   111    1
    96   110   107    1
    97    29    28    1
    98    92    91    1
    99    92    93    1
   100   131   130    1
   101   111   112    2
   102    95    93   am
   103    73    63   am
   104    63    62    1
   105    86    91   am
   106    86    85    1
   107    84    85    1
   108    93    94    2
   109   108   107    1
   110   108   109    2
   111   116   117    2
   112   106   107    1
   113    65    62    1
   114    85    88    1
   115    28    27    1
   116    62    61    1
   117   130   129    1
   118    26    27    1
   119    26    23    1
   120    22    23    1
   121   129   126    1
   122    24    23    1
   123    24    25    2
   124    88    90    1
   125    88    89    1
   126   126   125    1
   127   126   127    1
   128   127   128    2
