@<TRIPOS>MOLECULE
tmp/5dkxA00.pdb
 136 135 0 0 0
SMALL
GASTEIGER

@<TRIPOS>ATOM
      1  N         13.3490   52.8810   16.9530 N.3   366  TRP366     -0.1241
      2  CA        14.4340   53.7420   17.4290 C.3   366  TRP366      0.1605
      3  C         14.8010   54.6610   16.2750 C.2   366  TRP366      0.2264
      4  O         15.4380   54.1900   15.3410 O.2   366  TRP366     -0.2867
      5  CB        15.6170   52.8620   17.8630 C.3   366  TRP366      0.0550
      6  CG        16.7950   53.5610   18.4440 C.ar  366  TRP366      0.0003
      7  CD1       16.8860   54.8690   18.8330 C.ar  366  TRP366      0.0946
      8  CD2       18.0370   52.9620   18.7290 C.ar  366  TRP366      0.0152
      9  NE1       18.1350   55.1160   19.3300 N.ar  366  TRP366     -0.2442
     10  CE2       18.8780   53.9630   19.2570 C.ar  366  TRP366      0.0810
     11  CE3       18.5560   51.6830   18.5280 C.ar  366  TRP366      0.0012
     12  CZ2       20.1960   53.7070   19.6270 C.ar  366  TRP366      0.0191
     13  CZ3       19.8520   51.4290   18.9000 C.ar  366  TRP366      0.0001
     14  CH2       20.6700   52.4370   19.4350 C.ar  366  TRP366      0.0015
     15  N         11.5660   55.7640   22.0330 N.3   394  ASP394     -0.1225
     16  CA        12.8720   55.2900   22.4330 C.3   394  ASP394      0.1805
     17  C         13.7750   56.4740   22.8590 C.2   394  ASP394      0.2597
     18  O         13.3280   57.6290   22.8900 O.2   394  ASP394     -0.2718
     19  CB        13.4420   54.4490   21.2600 C.3   394  ASP394      0.1424
     20  CG        14.4160   53.3440   21.6690 C.2   394  ASP394      0.3668
     21  OD1       15.1170   53.4880   22.6940 O.co2 394  ASP394     -0.2456
     22  OD2       14.4530   52.2990   20.9510 O.co2 394  ASP394     -0.2456
     23  N         15.0190   56.1680   23.1940 N.am  395  ILE395     -0.1980
     24  CA        15.8860   57.0350   24.0070 C.3   395  ILE395      0.1595
     25  C         16.1610   58.4290   23.4370 C.2   395  ILE395      0.2287
     26  O         16.5200   59.3260   24.1940 O.2   395  ILE395     -0.2864
     27  CB        17.2300   56.3570   24.2980 C.3   395  ILE395      0.0276
     28  CG1       17.9390   55.9910   22.9950 C.3   395  ILE395      0.0022
     29  CG2       17.0330   55.1690   25.2310 C.3   395  ILE395      0.0022
     30  CD1       19.2740   55.3200   23.2140 C.3   395  ILE395      0.0001
     31  N         10.4720   55.5940   27.1750 N.3   431  ILE431     -0.1245
     32  CA        11.5400   54.7990   27.7760 C.3   431  ILE431      0.1561
     33  C         12.1660   55.5180   28.9880 C.2   431  ILE431      0.2260
     34  O         12.3830   56.7420   28.9670 O.2   431  ILE431     -0.2867
     35  CB        12.5560   54.3400   26.7000 C.3   431  ILE431      0.0252
     36  CG1       13.4210   53.1980   27.2390 C.3   431  ILE431      0.0019
     37  CG2       13.4180   55.4900   26.2120 C.3   431  ILE431      0.0019
     38  CD1       14.1490   52.4990   26.1340 C.3   431  ILE431      0.0001
     39  N         24.1720   54.6990   27.6030 N.3   468  TRP468     -0.1241
     40  CA        23.7480   55.6910   26.6060 C.3   468  TRP468      0.1605
     41  C         24.1690   57.1380   26.9370 C.2   468  TRP468      0.2264
     42  O         24.5990   57.8390   26.0360 O.2   468  TRP468     -0.2867
     43  CB        22.2240   55.6480   26.3210 C.3   468  TRP468      0.0550
     44  CG        21.6310   54.3060   25.8740 C.ar  468  TRP468      0.0003
     45  CD1       20.6460   53.6230   26.5020 C.ar  468  TRP468      0.0946
     46  CD2       21.9780   53.5530   24.7220 C.ar  468  TRP468      0.0152
     47  NE1       20.3690   52.4650   25.8180 N.ar  468  TRP468     -0.2442
     48  CE2       21.1820   52.4060   24.7200 C.ar  468  TRP468      0.0810
     49  CE3       22.8950   53.7410   23.6860 C.ar  468  TRP468      0.0012
     50  CZ2       21.2950   51.4110   23.7340 C.ar  468  TRP468      0.0191
     51  CZ3       22.9770   52.7830   22.6790 C.ar  468  TRP468      0.0001
     52  CH2       22.1940   51.6270   22.7220 C.ar  468  TRP468      0.0015
     53  N          8.3980   52.2830   29.4800 N.3   505  TRP505     -0.1241
     54  CA         9.2330   51.1770   29.0090 C.3   505  TRP505      0.1605
     55  C         10.5170   51.2000   29.8150 C.2   505  TRP505      0.2264
     56  O         11.2600   52.1970   29.7640 O.2   505  TRP505     -0.2867
     57  CB         9.5080   51.4010   27.5290 C.3   505  TRP505      0.0550
     58  CG        10.4280   50.4880   26.8370 C.ar  505  TRP505      0.0003
     59  CD1       10.9190   49.2840   27.2490 C.ar  505  TRP505      0.0946
     60  CD2       10.9500   50.7160   25.5320 C.ar  505  TRP505      0.0152
     61  NE1       11.7370   48.7560   26.2510 N.ar  505  TRP505     -0.2442
     62  CE2       11.7480   49.6080   25.1840 C.ar  505  TRP505      0.0810
     63  CE3       10.7840   51.7360   24.6060 C.ar  505  TRP505      0.0012
     64  CZ2       12.4310   49.5460   23.9700 C.ar  505  TRP505      0.0191
     65  CZ3       11.4310   51.6460   23.3870 C.ar  505  TRP505      0.0001
     66  CH2       12.2370   50.5600   23.0800 C.ar  505  TRP505      0.0015
     67  N         14.2210   49.5030   30.2240 N.3   507  ASP507     -0.1225
     68  CA        15.1690   48.7720   29.3990 C.3   507  ASP507      0.1805
     69  C         16.5520   48.8240   30.0330 C.2   507  ASP507      0.2597
     70  O         16.7940   49.5860   30.9630 O.2   507  ASP507     -0.2718
     71  CB        15.1570   49.3950   28.0060 C.3   507  ASP507      0.1424
     72  CG        15.9940   48.6580   26.9890 C.2   507  ASP507      0.3668
     73  OD1       16.0830   47.4500   27.0120 O.co2 507  ASP507     -0.2456
     74  OD2       16.5950   49.3430   26.1600 O.co2 507  ASP507     -0.2456
     75  N         17.4730   48.0250   29.4980 N.am  508  MET508     -0.1979
     76  CA        18.8720   48.0720   29.9080 C.3   508  MET508      0.1605
     77  C         19.0050   47.7730   31.3890 C.2   508  MET508      0.2287
     78  O         19.9800   48.1650   32.0350 O.2   508  MET508     -0.2864
     79  CB        19.5140   49.4310   29.6010 C.3   508  MET508      0.0413
     80  CG        19.2040   49.9580   28.2230 C.3   508  MET508      0.0598
     81  SD        19.9060   49.0120   26.8550 S.3   508  MET508     -0.1393
     82  CE        21.6040   49.5900   26.9470 C.3   508  MET508      0.0692
     83  N         12.8300   44.6160   29.8980 N.3   568  ARG568     -0.1245
     84  CA        13.7330   43.7120   29.1850 C.3   568  ARG568      0.1563
     85  C         14.2020   42.6140   30.1140 C.2   568  ARG568      0.2260
     86  O         14.0230   41.4350   29.8260 O.2   568  ARG568     -0.2867
     87  CB        14.9180   44.4500   28.5570 C.3   568  ARG568      0.0307
     88  CG        15.5180   43.6190   27.4070 C.3   568  ARG568      0.0489
     89  CD        16.4890   44.3730   26.5390 C.3   568  ARG568      0.2205
     90  NE        17.6840   44.7320   27.2830 N.pl3 568  ARG568     -0.0865
     91  CZ        18.7220   45.3910   26.7800 C.cat 568  ARG568      0.5346
     92  NH1       19.8130   45.5410   27.5030 N.pl3 568  ARG568      0.1354
     93  NH2       18.6930   45.8250   25.5290 N.pl3 568  ARG568      0.1354
     94  N          9.5360   41.6220   26.5310 N.3   581  TRP581     -0.1241
     95  CA         9.7500   41.2020   25.1560 C.3   581  TRP581      0.1605
     96  C         11.1240   40.5690   25.0630 C.2   581  TRP581      0.2264
     97  O         11.9640   40.7700   25.9360 O.2   581  TRP581     -0.2867
     98  CB         9.5730   42.3410   24.1660 C.3   581  TRP581      0.0550
     99  CG        10.7880   43.1400   23.8450 C.ar  581  TRP581      0.0003
    100  CD1       11.4140   43.1630   22.6530 C.ar  581  TRP581      0.0946
    101  CD2       11.5030   44.0700   24.6850 C.ar  581  TRP581      0.0152
    102  NE1       12.4870   44.0230   22.6620 N.ar  581  TRP581     -0.2442
    103  CE2       12.5630   44.5990   23.9020 C.ar  581  TRP581      0.0810
    104  CE3       11.3740   44.4930   26.0150 C.ar  581  TRP581      0.0012
    105  CZ2       13.4660   45.5410   24.4120 C.ar  581  TRP581      0.0191
    106  CZ3       12.2740   45.4200   26.5030 C.ar  581  TRP581      0.0001
    107  CH2       13.2990   45.9190   25.7010 C.ar  581  TRP581      0.0015
    108  N         16.6220   42.2900   21.5090 N.3   584  ASP584     -0.1239
    109  CA        17.0700   42.7430   20.2030 C.3   584  ASP584      0.1674
    110  C         17.2110   41.5360   19.2760 C.2   584  ASP584      0.2266
    111  O         18.3050   41.0190   19.0700 O.2   584  ASP584     -0.2867
    112  CB        18.3730   43.5300   20.3400 C.3   584  ASP584      0.1410
    113  CG        18.2110   44.8180   21.1160 C.2   584  ASP584      0.3668
    114  OD1       17.0870   45.3090   21.3070 O.co2 584  ASP584     -0.2456
    115  OD2       19.2530   45.3600   21.5140 O.co2 584  ASP584     -0.2456
    116  N         14.2280   43.3510   15.2010 N.3   617  PHE617     -0.1241
    117  CA        14.8250   44.6420   15.5710 C.3   617  PHE617      0.1605
    118  C         15.9450   45.0190   14.5920 C.2   617  PHE617      0.2264
    119  O         15.8830   46.0670   13.9590 O.2   617  PHE617     -0.2867
    120  CB        15.3120   44.5410   17.0100 C.3   617  PHE617      0.0534
    121  CG        16.0790   45.7210   17.4900 C.ar  617  PHE617     -0.0203
    122  CD1       15.4550   46.9160   17.7720 C.ar  617  PHE617     -0.0042
    123  CD2       17.4320   45.6240   17.6880 C.ar  617  PHE617     -0.0042
    124  CE1       16.1810   47.9930   18.2510 C.ar  617  PHE617     -0.0003
    125  CE2       18.1530   46.6990   18.1740 C.ar  617  PHE617     -0.0003
    126  CZ        17.5210   47.8630   18.4500 C.ar  617  PHE617     -0.0000
    127  N          8.9400   47.0230   16.3180 N.3   642  HIS642     -0.1241
    128  CA        10.0770   47.8390   16.7290 C.3   642  HIS642      0.1621
    129  C         11.1900   47.5850   15.7300 C.2   642  HIS642      0.2264
    130  O         11.2250   46.5710   15.0670 O.2   642  HIS642     -0.2867
    131  CB        10.4920   47.4720   18.1690 C.3   642  HIS642      0.0745
    132  CG        11.5740   48.3220   18.7460 C.ar  642  HIS642      0.0817
    133  ND1       11.7260   49.6600   18.4510 N.ar  642  HIS642     -0.2268
    134  CD2       12.5780   48.0110   19.5890 C.ar  642  HIS642      0.1154
    135  CE1       12.7600   50.1360   19.1030 C.ar  642  HIS642      0.1986
    136  NE2       13.2960   49.1560   19.8070 N.ar  642  HIS642     -0.2212
@<TRIPOS>BOND
     1   119   118    2
     2   118   117    1
     3   130   129    2
     4   116   117    1
     5     4     3    2
     6   117   120    1
     7   129   128    1
     8     3     2    1
     9   127   128    1
    10   128   131    1
    11     1     2    1
    12   120   121    1
    13     2     5    1
    14   121   123   ar
    15   121   122   ar
    16   123   125   ar
    17   122   124   ar
    18     5     6    1
    19   131   132    1
    20   125   126   ar
    21   124   126   ar
    22     6     8   ar
    23     6     7   ar
    24   133   132   ar
    25   133   135   ar
    26    11     8   ar
    27    11    13   ar
    28     8    10   ar
    29   132   134   ar
    30     7     9   ar
    31    13    14   ar
    32   111   110    2
    33   135   136   ar
    34    10     9   ar
    35    10    12   ar
    36   110   109    1
    37    14    12   ar
    38   134   136   ar
    39   109   112    1
    40   109   108    1
    41   112   113    1
    42    22    20   ar
    43   113   114   ar
    44   113   115   ar
    45    19    20    1
    46    19    16    1
    47    20    21   ar
    48    15    16    1
    49    16    17    1
    50   100   102   ar
    51   100    99   ar
    52   102   103   ar
    53    51    52   ar
    54    51    49   ar
    55    52    50   ar
    56    17    18    2
    57    17    23   am
    58    28    30    1
    59    28    27    1
    60    66    65   ar
    61    66    64   ar
    62    23    24    1
    63    65    63   ar
    64    25    24    1
    65    25    26    2
    66    49    46   ar
    67    50    48   ar
    68    99    98    1
    69    99   101   ar
    70   103   105   ar
    71   103   101   ar
    72    64    62   ar
    73    24    27    1
    74    98    95    1
    75    27    29    1
    76   105   107   ar
    77    63    60   ar
    78   101   104   ar
    79    48    46   ar
    80    48    47   ar
    81    46    44   ar
    82    96    95    1
    83    96    97    2
    84    95    94    1
    85    62    60   ar
    86    62    61   ar
    87    93    91    1
    88    60    58   ar
    89   107   106   ar
    90    47    45   ar
    91    44    43    1
    92    44    45   ar
    93   104   106   ar
    94    42    41    2
    95    38    36    1
    96    74    72   ar
    97    37    35    1
    98    61    59   ar
    99    43    40    1
   100    89    90    1
   101    89    88    1
   102    40    41    1
   103    40    39    1
   104    35    36    1
   105    35    32    1
   106    91    90    2
   107    91    92    1
   108    58    59   ar
   109    58    57    1
   110    81    82    1
   111    81    80    1
   112    72    73   ar
   113    72    71    1
   114    31    32    1
   115    88    87    1
   116    57    54    1
   117    32    33    1
   118    71    68    1
   119    80    79    1
   120    87    84    1
   121    34    33    2
   122    54    53    1
   123    54    55    1
   124    84    83    1
   125    84    85    1
   126    68    69    1
   127    68    67    1
   128    75    76    1
   129    75    69   am
   130    79    76    1
   131    56    55    2
   132    86    85    2
   133    76    77    1
   134    69    70    2
   135    77    78    2
