@<TRIPOS>MOLECULE
tmp/5dkyA00.pdb
 136 135 0 0 0
SMALL
GASTEIGER

@<TRIPOS>ATOM
      1  N         13.2030   52.9930   16.9900 N.3   366  TRP366     -0.1241
      2  CA        14.2810   53.8330   17.5120 C.3   366  TRP366      0.1605
      3  C         14.6900   54.7420   16.3270 C.2   366  TRP366      0.2264
      4  O         15.4500   54.2670   15.4470 O.2   366  TRP366     -0.2867
      5  CB        15.4260   52.9410   17.9410 C.3   366  TRP366      0.0550
      6  CG        16.6460   53.6300   18.5390 C.ar  366  TRP366      0.0003
      7  CD1       16.7650   54.9480   18.8660 C.ar  366  TRP366      0.0946
      8  CD2       17.8960   53.0220   18.8470 C.ar  366  TRP366      0.0152
      9  NE1       18.0010   55.1970   19.3940 N.ar  366  TRP366     -0.2442
     10  CE2       18.7290   54.0360   19.4020 C.ar  366  TRP366      0.0810
     11  CE3       18.3960   51.7190   18.7530 C.ar  366  TRP366      0.0012
     12  CZ2       20.0520   53.7890   19.7720 C.ar  366  TRP366      0.0191
     13  CZ3       19.6930   51.4690   19.1460 C.ar  366  TRP366      0.0001
     14  CH2       20.5060   52.4860   19.6790 C.ar  366  TRP366      0.0015
     15  N         11.4470   55.9830   22.0940 N.3   394  ASP394     -0.1225
     16  CA        12.7610   55.5160   22.4680 C.3   394  ASP394      0.1805
     17  C         13.6710   56.6910   22.8890 C.2   394  ASP394      0.2597
     18  O         13.2070   57.8450   22.9140 O.2   394  ASP394     -0.2718
     19  CB        13.3320   54.6750   21.2950 C.3   394  ASP394      0.1424
     20  CG        14.2380   53.5190   21.7540 C.2   394  ASP394      0.3668
     21  OD1       14.9360   53.6750   22.7830 O.co2 394  ASP394     -0.2456
     22  OD2       14.3170   52.5040   21.0240 O.co2 394  ASP394     -0.2456
     23  N         14.9370   56.3890   23.1840 N.am  395  ILE395     -0.1980
     24  CA        15.8420   57.2400   23.9920 C.3   395  ILE395      0.1595
     25  C         16.1230   58.6170   23.3770 C.2   395  ILE395      0.2287
     26  O         16.5160   59.5310   24.1230 O.2   395  ILE395     -0.2864
     27  CB        17.1870   56.5860   24.2960 C.3   395  ILE395      0.0276
     28  CG1       17.8700   56.0480   23.0280 C.3   395  ILE395      0.0022
     29  CG2       17.0080   55.4930   25.3590 C.3   395  ILE395      0.0022
     30  CD1       19.2210   55.4670   23.2650 C.3   395  ILE395      0.0001
     31  N         10.4200   55.7090   27.1880 N.3   431  ILE431     -0.1245
     32  CA        11.4860   54.9390   27.7990 C.3   431  ILE431      0.1561
     33  C         12.1370   55.6760   28.9780 C.2   431  ILE431      0.2260
     34  O         12.3450   56.8690   28.9280 O.2   431  ILE431     -0.2867
     35  CB        12.5250   54.4770   26.7230 C.3   431  ILE431      0.0252
     36  CG1       13.3910   53.3210   27.2430 C.3   431  ILE431      0.0019
     37  CG2       13.3860   55.6090   26.2080 C.3   431  ILE431      0.0019
     38  CD1       14.1870   52.6840   26.1140 C.3   431  ILE431      0.0001
     39  N         24.1690   54.9940   27.6720 N.3   468  TRP468     -0.1241
     40  CA        23.7780   56.0310   26.6940 C.3   468  TRP468      0.1605
     41  C         24.1960   57.4410   27.0350 C.2   468  TRP468      0.2264
     42  O         24.5680   58.2000   26.1280 O.2   468  TRP468     -0.2867
     43  CB        22.2760   56.0550   26.4030 C.3   468  TRP468      0.0550
     44  CG        21.7840   54.8200   25.8760 C.ar  468  TRP468      0.0003
     45  CD1       20.8280   54.0320   26.4420 C.ar  468  TRP468      0.0946
     46  CD2       22.2190   54.1560   24.7100 C.ar  468  TRP468      0.0152
     47  NE1       20.6520   52.9150   25.7030 N.ar  468  TRP468     -0.2442
     48  CE2       21.5020   52.9520   24.6350 C.ar  468  TRP468      0.0810
     49  CE3       23.1420   54.4490   23.7180 C.ar  468  TRP468      0.0012
     50  CZ2       21.6680   52.0630   23.6200 C.ar  468  TRP468      0.0191
     51  CZ3       23.2980   53.5190   22.6570 C.ar  468  TRP468      0.0001
     52  CH2       22.5660   52.3670   22.6300 C.ar  468  TRP468      0.0015
     53  N          8.4040   52.4130   29.5050 N.3   505  TRP505     -0.1241
     54  CA         9.2250   51.2810   29.0530 C.3   505  TRP505      0.1605
     55  C         10.5240   51.3120   29.8460 C.2   505  TRP505      0.2264
     56  O         11.2370   52.2960   29.7810 O.2   505  TRP505     -0.2867
     57  CB         9.4780   51.4540   27.5480 C.3   505  TRP505      0.0550
     58  CG        10.4290   50.5740   26.8880 C.ar  505  TRP505      0.0003
     59  CD1       10.9280   49.3980   27.3230 C.ar  505  TRP505      0.0946
     60  CD2       10.9650   50.7840   25.5780 C.ar  505  TRP505      0.0152
     61  NE1       11.7940   48.8830   26.3660 N.ar  505  TRP505     -0.2442
     62  CE2       11.8160   49.7260   25.2930 C.ar  505  TRP505      0.0810
     63  CE3       10.8210   51.8040   24.6310 C.ar  505  TRP505      0.0012
     64  CZ2       12.5390   49.6490   24.1040 C.ar  505  TRP505      0.0191
     65  CZ3       11.5070   51.7150   23.4560 C.ar  505  TRP505      0.0001
     66  CH2       12.3640   50.6580   23.2010 C.ar  505  TRP505      0.0015
     67  N         14.1660   49.7110   30.1170 N.3   507  ASP507     -0.1225
     68  CA        15.1420   48.9930   29.2770 C.3   507  ASP507      0.1805
     69  C         16.5040   49.0040   29.9470 C.2   507  ASP507      0.2597
     70  O         16.7160   49.6990   30.9130 O.2   507  ASP507     -0.2718
     71  CB        15.1230   49.6370   27.8900 C.3   507  ASP507      0.1424
     72  CG        16.0530   48.9820   26.8470 C.2   507  ASP507      0.3668
     73  OD1       16.2620   47.7830   26.9170 O.co2 507  ASP507     -0.2456
     74  OD2       16.5520   49.7360   25.9640 O.co2 507  ASP507     -0.2456
     75  N         17.4530   48.2240   29.4240 N.am  508  MET508     -0.1979
     76  CA        18.8480   48.2410   29.8880 C.3   508  MET508      0.1605
     77  C         18.9820   47.9400   31.3660 C.2   508  MET508      0.2287
     78  O         19.9740   48.3570   32.0220 O.2   508  MET508     -0.2864
     79  CB        19.5380   49.5810   29.5710 C.3   508  MET508      0.0413
     80  CG        19.2980   50.0880   28.1690 C.3   508  MET508      0.0598
     81  SD        19.9860   49.0950   26.8280 S.3   508  MET508     -0.1393
     82  CE        21.6890   49.5920   26.8970 C.3   508  MET508      0.0692
     83  N         12.8260   44.7140   30.0040 N.3   568  ARG568     -0.1245
     84  CA        13.7050   43.8000   29.2830 C.3   568  ARG568      0.1563
     85  C         14.1850   42.6920   30.1980 C.2   568  ARG568      0.2260
     86  O         13.9770   41.5280   29.9140 O.2   568  ARG568     -0.2867
     87  CB        14.8430   44.5060   28.5890 C.3   568  ARG568      0.0307
     88  CG        15.4700   43.6450   27.4940 C.3   568  ARG568      0.0489
     89  CD        16.4370   44.4220   26.6310 C.3   568  ARG568      0.2205
     90  NE        17.6660   44.7820   27.3410 N.pl3 568  ARG568     -0.0865
     91  CZ        18.7400   45.3020   26.7620 C.cat 568  ARG568      0.5346
     92  NH1       19.8250   45.5280   27.4950 N.pl3 568  ARG568      0.1354
     93  NH2       18.7490   45.6500   25.4680 N.pl3 568  ARG568      0.1354
     94  N          9.5090   41.7300   26.5780 N.3   581  TRP581     -0.1241
     95  CA         9.7630   41.2980   25.2130 C.3   581  TRP581      0.1605
     96  C         11.1300   40.6590   25.1200 C.2   581  TRP581      0.2264
     97  O         11.9640   40.8270   25.9830 O.2   581  TRP581     -0.2867
     98  CB         9.6160   42.4650   24.1940 C.3   581  TRP581      0.0550
     99  CG        10.8440   43.2780   23.9170 C.ar  581  TRP581      0.0003
    100  CD1       11.5460   43.3310   22.7180 C.ar  581  TRP581      0.0946
    101  CD2       11.5350   44.1990   24.8040 C.ar  581  TRP581      0.0152
    102  NE1       12.5910   44.1680   22.8310 N.ar  581  TRP581     -0.2442
    103  CE2       12.6040   44.7460   24.0700 C.ar  581  TRP581      0.0810
    104  CE3       11.3190   44.6430   26.1030 C.ar  581  TRP581      0.0012
    105  CZ2       13.5140   45.6420   24.6270 C.ar  581  TRP581      0.0191
    106  CZ3       12.1890   45.5170   26.6460 C.ar  581  TRP581      0.0001
    107  CH2       13.2890   46.0170   25.9130 C.ar  581  TRP581      0.0015
    108  N         16.6740   42.2680   21.5250 N.3   584  ASP584     -0.1239
    109  CA        17.1620   42.6530   20.1960 C.3   584  ASP584      0.1674
    110  C         17.2400   41.4420   19.2730 C.2   584  ASP584      0.2266
    111  O         18.3210   40.9280   18.9890 O.2   584  ASP584     -0.2867
    112  CB        18.4950   43.4010   20.3150 C.3   584  ASP584      0.1410
    113  CG        18.3390   44.7100   21.0690 C.2   584  ASP584      0.3668
    114  OD1       17.2210   45.2200   21.2250 O.co2 584  ASP584     -0.2456
    115  OD2       19.3690   45.2590   21.4880 O.co2 584  ASP584     -0.2456
    116  N         14.1590   43.4600   15.3230 N.3   617  PHE617     -0.1241
    117  CA        14.8210   44.6970   15.7070 C.3   617  PHE617      0.1605
    118  C         15.9170   45.0790   14.7030 C.2   617  PHE617      0.2264
    119  O         15.8420   46.1520   14.0860 O.2   617  PHE617     -0.2867
    120  CB        15.3630   44.5490   17.0930 C.3   617  PHE617      0.0534
    121  CG        16.0810   45.7400   17.5980 C.ar  617  PHE617     -0.0203
    122  CD1       15.3860   46.8910   17.9620 C.ar  617  PHE617     -0.0042
    123  CD2       17.4460   45.6990   17.7590 C.ar  617  PHE617     -0.0042
    124  CE1       16.0860   47.9910   18.4720 C.ar  617  PHE617     -0.0003
    125  CE2       18.1450   46.7860   18.3020 C.ar  617  PHE617     -0.0003
    126  CZ        17.4350   47.9160   18.6620 C.ar  617  PHE617     -0.0000
    127  N          8.8330   47.1470   16.3110 N.3   642  HIS642     -0.1241
    128  CA         9.9800   47.9500   16.7390 C.3   642  HIS642      0.1621
    129  C         11.1230   47.6920   15.7640 C.2   642  HIS642      0.2264
    130  O         11.1230   46.6580   15.0870 O.2   642  HIS642     -0.2867
    131  CB        10.3430   47.5840   18.1780 C.3   642  HIS642      0.0745
    132  CG        11.4470   48.4030   18.7790 C.ar  642  HIS642      0.0817
    133  ND1       11.6200   49.7430   18.4980 N.ar  642  HIS642     -0.2268
    134  CD2       12.4180   48.0780   19.6540 C.ar  642  HIS642      0.1154
    135  CE1       12.6540   50.1970   19.1790 C.ar  642  HIS642      0.1986
    136  NE2       13.1540   49.2070   19.8900 N.ar  642  HIS642     -0.2212
@<TRIPOS>BOND
     1   119   118    2
     2   118   117    1
     3   130   129    2
     4   116   117    1
     5     4     3    2
     6   117   120    1
     7   129   128    1
     8   127   128    1
     9     3     2    1
    10   128   131    1
    11     1     2    1
    12   120   121    1
    13     2     5    1
    14   121   123   ar
    15   121   122   ar
    16   123   125   ar
    17     5     6    1
    18   122   124   ar
    19   131   132    1
    20   125   126   ar
    21   124   126   ar
    22   133   132   ar
    23   133   135   ar
    24     6     8   ar
    25     6     7   ar
    26    11     8   ar
    27    11    13   ar
    28   132   134   ar
    29     8    10   ar
    30     7     9   ar
    31   111   110    2
    32    13    14   ar
    33   135   136   ar
    34   110   109    1
    35     9    10   ar
    36    10    12   ar
    37   134   136   ar
    38    14    12   ar
    39   109   112    1
    40   109   108    1
    41   112   113    1
    42    22    20   ar
    43   113   114   ar
    44   113   115   ar
    45    19    20    1
    46    19    16    1
    47    20    21   ar
    48    15    16    1
    49    16    17    1
    50    52    51   ar
    51    52    50   ar
    52    51    49   ar
    53   100   102   ar
    54   100    99   ar
    55   102   103   ar
    56    17    18    2
    57    17    23   am
    58    28    30    1
    59    28    27    1
    60    23    24    1
    61    66    65   ar
    62    66    64   ar
    63    25    24    1
    64    25    26    2
    65    65    63   ar
    66    50    48   ar
    67    49    46   ar
    68    99    98    1
    69    99   101   ar
    70    24    27    1
    71   103   105   ar
    72   103   101   ar
    73    64    62   ar
    74    98    95    1
    75    27    29    1
    76   105   107   ar
    77    63    60   ar
    78    48    46   ar
    79    48    47   ar
    80    46    44   ar
    81   101   104   ar
    82    96    95    1
    83    96    97    2
    84    95    94    1
    85    62    60   ar
    86    62    61   ar
    87    93    91    1
    88    60    58   ar
    89    47    45   ar
    90    44    43    1
    91    44    45   ar
    92   107   106   ar
    93    74    72   ar
    94   104   106   ar
    95    38    36    1
    96    42    41    2
    97    37    35    1
    98    61    59   ar
    99    43    40    1
   100    89    90    1
   101    89    88    1
   102    40    41    1
   103    40    39    1
   104    35    36    1
   105    35    32    1
   106    91    90    2
   107    91    92    1
   108    81    82    1
   109    81    80    1
   110    72    73   ar
   111    72    71    1
   112    58    59   ar
   113    58    57    1
   114    31    32    1
   115    88    87    1
   116    57    54    1
   117    32    33    1
   118    71    68    1
   119    80    79    1
   120    87    84    1
   121    34    33    2
   122    54    53    1
   123    54    55    1
   124    68    69    1
   125    68    67    1
   126    84    83    1
   127    84    85    1
   128    75    76    1
   129    75    69   am
   130    79    76    1
   131    56    55    2
   132    76    77    1
   133    86    85    2
   134    69    70    2
   135    77    78    2
