@<TRIPOS>MOLECULE
tmp/5dkzA01.pdb
 149 146 0 0 0
SMALL
GASTEIGER

@<TRIPOS>ATOM
      1  N         22.8140   42.0750   28.5280 N.3   250  ASP250     -0.1239
      2  CA        22.5040   42.7690   27.2930 C.3   250  ASP250      0.1674
      3  C         23.2540   42.0650   26.1740 C.2   250  ASP250      0.2266
      4  O         24.4220   42.3080   25.9850 O.2   250  ASP250     -0.2867
      5  CB        22.9370   44.2430   27.4330 C.3   250  ASP250      0.1410
      6  CG        22.5230   45.1150   26.2670 C.2   250  ASP250      0.3668
      7  OD1       22.0660   44.5980   25.2230 O.co2 250  ASP250     -0.2456
      8  OD2       22.6820   46.3510   26.3940 O.co2 250  ASP250     -0.2456
      9  N         13.2610   53.0190   17.2360 N.3   362  TRP362     -0.1241
     10  CA        14.3410   53.9040   17.6410 C.3   362  TRP362      0.1605
     11  C         14.7200   54.7870   16.4390 C.2   362  TRP362      0.2264
     12  O         15.5120   54.3490   15.5840 O.2   362  TRP362     -0.2867
     13  CB        15.5280   53.0430   18.0690 C.3   362  TRP362      0.0550
     14  CG        16.6880   53.8020   18.6400 C.ar  362  TRP362      0.0003
     15  CD1       16.6900   55.1000   19.0590 C.ar  362  TRP362      0.0946
     16  CD2       18.0170   53.3080   18.8640 C.ar  362  TRP362      0.0152
     17  NE1       17.9300   55.4430   19.5200 N.ar  362  TRP362     -0.2442
     18  CE2       18.7640   54.3620   19.4190 C.ar  362  TRP362      0.0810
     19  CE3       18.6510   52.0750   18.6510 C.ar  362  TRP362      0.0012
     20  CZ2       20.1260   54.2290   19.7590 C.ar  362  TRP362      0.0191
     21  CZ3       20.0110   51.9460   18.9950 C.ar  362  TRP362      0.0001
     22  CH2       20.7250   53.0140   19.5290 C.ar  362  TRP362      0.0015
     23  N         11.4360   56.1720   22.1620 N.3   390  ASP390     -0.1225
     24  CA        12.7180   55.6910   22.6070 C.3   390  ASP390      0.1805
     25  C         13.6280   56.8750   22.9650 C.2   390  ASP390      0.2597
     26  O         13.2190   58.0230   22.8790 O.2   390  ASP390     -0.2718
     27  CB        13.3130   54.8490   21.4690 C.3   390  ASP390      0.1424
     28  CG        14.1770   53.7080   21.9520 C.2   390  ASP390      0.3668
     29  OD1       14.7870   53.7680   23.0520 O.co2 390  ASP390     -0.2456
     30  OD2       14.2800   52.7490   21.1650 O.co2 390  ASP390     -0.2456
     31  N         14.8810   56.5830   23.3000 N.am  391  ILE391     -0.1980
     32  CA        15.7260   57.4550   24.1260 C.3   391  ILE391      0.1595
     33  C         16.0530   58.8390   23.5460 C.2   391  ILE391      0.2287
     34  O         16.3530   59.7810   24.3270 O.2   391  ILE391     -0.2864
     35  CB        17.0640   56.7890   24.4360 C.3   391  ILE391      0.0276
     36  CG1       17.7650   56.3640   23.1280 C.3   391  ILE391      0.0022
     37  CG2       16.8570   55.6280   25.3970 C.3   391  ILE391      0.0022
     38  CD1       19.1290   55.7520   23.3500 C.3   391  ILE391      0.0001
     39  N         10.4820   55.8500   27.2450 N.3   427  ILE427     -0.1245
     40  CA        11.5230   55.0660   27.9000 C.3   427  ILE427      0.1561
     41  C         12.1700   55.8120   29.0900 C.2   427  ILE427      0.2260
     42  O         12.4780   56.9970   29.0020 O.2   427  ILE427     -0.2867
     43  CB        12.5770   54.5800   26.8760 C.3   427  ILE427      0.0252
     44  CG1       13.4560   53.4920   27.4860 C.3   427  ILE427      0.0019
     45  CG2       13.4410   55.7240   26.3690 C.3   427  ILE427      0.0019
     46  CD1       14.1450   52.6380   26.4350 C.3   427  ILE427      0.0001
     47  N         15.3780   54.5250   31.6300 N.3   429  ASP429     -0.1239
     48  CA        16.3230   53.4690   31.9910 C.3   429  ASP429      0.1674
     49  C         17.0040   53.8170   33.3290 C.2   429  ASP429      0.2266
     50  O         16.8550   54.9260   33.8520 O.2   429  ASP429     -0.2867
     51  CB        17.3670   53.3060   30.8760 C.3   429  ASP429      0.1410
     52  CG        16.7730   52.8050   29.5580 C.2   429  ASP429      0.3668
     53  OD1       15.6750   52.1850   29.5790 O.co2 429  ASP429     -0.2456
     54  OD2       17.4280   53.0480   28.5030 O.co2 429  ASP429     -0.2456
     55  N         24.2100   54.9840   27.6830 N.3   464  TRP464     -0.1241
     56  CA        23.7770   55.9640   26.6660 C.3   464  TRP464      0.1605
     57  C         24.3070   57.3760   26.8880 C.2   464  TRP464      0.2264
     58  O         24.6980   58.0300   25.9130 O.2   464  TRP464     -0.2867
     59  CB        22.2290   56.0360   26.5240 C.3   464  TRP464      0.0550
     60  CG        21.6140   54.7740   26.0010 C.ar  464  TRP464      0.0003
     61  CD1       20.6140   54.0600   26.5760 C.ar  464  TRP464      0.0946
     62  CD2       22.0020   54.0500   24.8200 C.ar  464  TRP464      0.0152
     63  NE1       20.3260   52.9560   25.8140 N.ar  464  TRP464     -0.2442
     64  CE2       21.1740   52.9170   24.7410 C.ar  464  TRP464      0.0810
     65  CE3       22.9460   54.2680   23.8130 C.ar  464  TRP464      0.0012
     66  CZ2       21.2690   51.9920   23.7040 C.ar  464  TRP464      0.0191
     67  CZ3       23.0480   53.3410   22.7850 C.ar  464  TRP464      0.0001
     68  CH2       22.2060   52.2210   22.7360 C.ar  464  TRP464      0.0015
     69  N          8.3870   52.4830   29.7390 N.3   501  TRP501     -0.1241
     70  CA         9.1410   51.3660   29.2220 C.3   501  TRP501      0.1605
     71  C         10.4970   51.4280   29.9310 C.2   501  TRP501      0.2264
     72  O         11.1680   52.4400   29.8570 O.2   501  TRP501     -0.2867
     73  CB         9.2780   51.6020   27.7030 C.3   501  TRP501      0.0550
     74  CG        10.2540   50.7880   26.9630 C.ar  501  TRP501      0.0003
     75  CD1       10.7540   49.5730   27.3210 C.ar  501  TRP501      0.0946
     76  CD2       10.8440   51.1090   25.6960 C.ar  501  TRP501      0.0152
     77  NE1       11.6370   49.1270   26.3590 N.ar  501  TRP501     -0.2442
     78  CE2       11.7080   50.0520   25.3550 C.ar  501  TRP501      0.0810
     79  CE3       10.7250   52.1870   24.8220 C.ar  501  TRP501      0.0012
     80  CZ2       12.4450   50.0300   24.1670 C.ar  501  TRP501      0.0191
     81  CZ3       11.4650   52.1770   23.6550 C.ar  501  TRP501      0.0001
     82  CH2       12.3110   51.0940   23.3310 C.ar  501  TRP501      0.0015
     83  N         14.1640   49.6340   29.8850 N.3   503  ALA503     -0.1231
     84  CA        15.2130   48.7610   29.3470 C.3   503  ALA503      0.1694
     85  C         16.5760   48.9890   30.0640 C.2   503  ALA503      0.2591
     86  O         16.6790   49.7930   30.9910 O.2   503  ALA503     -0.2718
     87  CB        15.3610   49.0420   27.8630 C.3   503  ALA503      0.0304
     88  N         17.6080   48.2820   29.6100 N.am  504  MET504     -0.1979
     89  CA        18.9720   48.4450   30.0980 C.3   504  MET504      0.1605
     90  C         19.0800   48.1250   31.5620 C.2   504  MET504      0.2287
     91  O         20.0770   48.4780   32.1980 O.2   504  MET504     -0.2864
     92  CB        19.5090   49.8550   29.8320 C.3   504  MET504      0.0413
     93  CG        19.1390   50.4370   28.4710 C.3   504  MET504      0.0598
     94  SD        19.7120   49.3800   27.1330 S.3   504  MET504     -0.1393
     95  CE        21.4760   49.7650   27.1030 C.3   504  MET504      0.0692
     96  N         12.8110   44.8990   30.1640 N.3   564  ARG564     -0.1245
     97  CA        13.6660   43.9980   29.4200 C.3   564  ARG564      0.1563
     98  C         14.1510   42.8510   30.2790 C.2   564  ARG564      0.2260
     99  O         14.0380   41.6850   29.8930 O.2   564  ARG564     -0.2867
    100  CB        14.8430   44.7160   28.8120 C.3   564  ARG564      0.0307
    101  CG        15.5060   43.8840   27.7230 C.3   564  ARG564      0.0489
    102  CD        16.3610   44.7620   26.8370 C.3   564  ARG564      0.2205
    103  NE        17.5910   45.0920   27.5270 N.pl3 564  ARG564     -0.0865
    104  CZ        18.6350   45.7150   26.9830 C.cat 564  ARG564      0.5346
    105  NH1       19.7010   45.9340   27.7210 N.pl3 564  ARG564      0.1354
    106  NH2       18.6330   46.1010   25.7230 N.pl3 564  ARG564      0.1354
    107  N          9.5110   41.7820   26.7040 N.3   577  TRP577     -0.1241
    108  CA         9.7450   41.3820   25.3610 C.3   577  TRP577      0.1605
    109  C         11.1150   40.7520   25.2760 C.2   577  TRP577      0.2264
    110  O         11.9180   40.8710   26.2080 O.2   577  TRP577     -0.2867
    111  CB         9.5490   42.5730   24.4230 C.3   577  TRP577      0.0550
    112  CG        10.7770   43.3540   24.0560 C.ar  577  TRP577      0.0003
    113  CD1       11.4250   43.3150   22.8710 C.ar  577  TRP577      0.0946
    114  CD2       11.4700   44.3090   24.8640 C.ar  577  TRP577      0.0152
    115  NE1       12.4900   44.1620   22.8860 N.ar  577  TRP577     -0.2442
    116  CE2       12.5350   44.8020   24.0930 C.ar  577  TRP577      0.0810
    117  CE3       11.2830   44.8020   26.1590 C.ar  577  TRP577      0.0012
    118  CZ2       13.4340   45.7590   24.5720 C.ar  577  TRP577      0.0191
    119  CZ3       12.1490   45.7480   26.6330 C.ar  577  TRP577      0.0001
    120  CH2       13.2280   46.2220   25.8370 C.ar  577  TRP577      0.0015
    121  N         16.5820   42.2630   21.7540 N.3   580  ASP580     -0.1239
    122  CA        16.9950   42.6640   20.4220 C.3   580  ASP580      0.1674
    123  C         17.0750   41.4740   19.4840 C.2   580  ASP580      0.2266
    124  O         18.1220   40.9570   19.2270 O.2   580  ASP580     -0.2867
    125  CB        18.2970   43.4370   20.4650 C.3   580  ASP580      0.1410
    126  CG        18.2170   44.6360   21.3720 C.2   580  ASP580      0.3668
    127  OD1       17.0830   45.1720   21.5720 O.co2 580  ASP580     -0.2456
    128  OD2       19.2970   45.0300   21.8830 O.co2 580  ASP580     -0.2456
    129  N         14.1770   43.3960   15.3380 N.3   613  PHE613     -0.1241
    130  CA        14.6970   44.6830   15.7580 C.3   613  PHE613      0.1605
    131  C         15.8340   45.1020   14.8410 C.2   613  PHE613      0.2264
    132  O         15.7470   46.1690   14.2510 O.2   613  PHE613     -0.2867
    133  CB        15.1430   44.6310   17.2080 C.3   613  PHE613      0.0534
    134  CG        15.7890   45.9040   17.7190 C.ar  613  PHE613     -0.0203
    135  CD1       15.0360   47.0330   17.9850 C.ar  613  PHE613     -0.0042
    136  CD2       17.1390   45.9290   18.0340 C.ar  613  PHE613     -0.0042
    137  CE1       15.6380   48.1750   18.4820 C.ar  613  PHE613     -0.0003
    138  CE2       17.7500   47.0770   18.5300 C.ar  613  PHE613     -0.0003
    139  CZ        16.9870   48.1910   18.7640 C.ar  613  PHE613     -0.0000
    140  N          8.7870   47.2000   16.4530 N.3   638  HIS638     -0.1241
    141  CA         9.9330   47.9880   16.9450 C.3   638  HIS638      0.1621
    142  C         11.1140   47.7670   15.9990 C.2   638  HIS638      0.2264
    143  O         11.1570   46.7760   15.2660 O.2   638  HIS638     -0.2867
    144  CB        10.2560   47.6110   18.4040 C.3   638  HIS638      0.0745
    145  CG        11.3500   48.4160   19.0340 C.ar  638  HIS638      0.0817
    146  ND1       11.5740   49.7430   18.7420 N.ar  638  HIS638     -0.2268
    147  CD2       12.2840   48.0750   19.9520 C.ar  638  HIS638      0.1154
    148  CE1       12.6250   50.1750   19.4210 C.ar  638  HIS638      0.1986
    149  NE2       13.0690   49.1810   20.1720 N.ar  638  HIS638     -0.2212
@<TRIPOS>BOND
     1   132   131    2
     2   131   130    1
     3   143   142    2
     4   129   130    1
     5    12    11    2
     6   130   133    1
     7   142   141    1
     8    11    10    1
     9   140   141    1
    10   141   144    1
    11   133   134    1
    12     9    10    1
    13    10    13    1
    14   134   135   ar
    15   134   136   ar
    16   135   137   ar
    17   136   138   ar
    18    13    14    1
    19   144   145    1
    20   137   139   ar
    21   138   139   ar
    22    14    16   ar
    23    14    15   ar
    24    19    16   ar
    25    19    21   ar
    26   146   145   ar
    27   146   148   ar
    28    16    18   ar
    29    21    22   ar
    30   145   147   ar
    31    15    17   ar
    32   124   123    2
    33    18    17   ar
    34    18    20   ar
    35   148   149   ar
    36   123   122    1
    37    22    20   ar
    38   147   149   ar
    39   122   125    1
    40   122   121    1
    41   125   126    1
    42    30    28   ar
    43   126   127   ar
    44   126   128   ar
    45    27    28    1
    46    27    24    1
    47    28    29   ar
    48    23    24    1
    49    24    25    1
    50    68    67   ar
    51    68    66   ar
    52    67    65   ar
    53   113   115   ar
    54   113   112   ar
    55    26    25    2
    56   115   116   ar
    57    25    31   am
    58    36    38    1
    59    36    35    1
    60    31    32    1
    61    82    81   ar
    62    82    80   ar
    63    33    32    1
    64    33    34    2
    65    81    79   ar
    66    66    64   ar
    67    65    62   ar
    68   112   111    1
    69   112   114   ar
    70   116   118   ar
    71   116   114   ar
    72    32    35    1
    73    80    78   ar
    74   111   108    1
    75    35    37    1
    76   118   120   ar
    77    64    62   ar
    78    64    63   ar
    79    62    60   ar
    80    79    76   ar
    81   114   117   ar
    82     7     6   ar
    83   109   108    1
    84   109   110    2
    85    78    76   ar
    86    78    77   ar
    87   108   107    1
    88    76    74   ar
    89   106   104    1
    90    63    61   ar
    91   120   119   ar
    92    58    57    2
    93     4     3    2
    94    60    59    1
    95    60    61   ar
    96   117   119   ar
    97     3     2    1
    98     6     8   ar
    99     6     5    1
   100    77    75   ar
   101    45    43    1
   102    46    44    1
   103    59    56    1
   104    56    57    1
   105    56    55    1
   106   102   103    1
   107   102   101    1
   108    43    44    1
   109    43    40    1
   110    74    75   ar
   111    74    73    1
   112   104   103    2
   113   104   105    1
   114    95    94    1
   115    94    93    1
   116    39    40    1
   117     2     5    1
   118     2     1    1
   119    73    70    1
   120   101   100    1
   121    87    84    1
   122    40    41    1
   123    93    92    1
   124    54    52   ar
   125   100    97    1
   126    42    41    2
   127    70    69    1
   128    70    71    1
   129    84    83    1
   130    84    85    1
   131    97    96    1
   132    97    98    1
   133    52    53   ar
   134    52    51    1
   135    88    85   am
   136    88    89    1
   137    92    89    1
   138    72    71    2
   139    99    98    2
   140    85    86    2
   141    89    90    1
   142    51    48    1
   143    90    91    2
   144    47    48    1
   145    48    49    1
   146    49    50    2
