@<TRIPOS>MOLECULE
tmp/5dkzA00.pdb
 134 132 0 0 0
SMALL
GASTEIGER

@<TRIPOS>ATOM
      1  N         31.4880   41.3020   21.2920 N.3     2  HIS2       -0.1241
      2  CA        31.0620   40.9400   22.6360 C.3     2  HIS2        0.1621
      3  C         31.7720   39.6820   23.1100 C.2     2  HIS2        0.2264
      4  O         32.0260   38.7490   22.3440 O.2     2  HIS2       -0.2867
      5  CB        29.5460   40.7350   22.6760 C.3     2  HIS2        0.0745
      6  CG        28.7660   42.0080   22.5470 C.ar    2  HIS2        0.0817
      7  ND1       28.8680   42.8400   21.4500 N.ar    2  HIS2       -0.2268
      8  CD2       27.8820   42.6000   23.3860 C.ar    2  HIS2        0.1154
      9  CE1       28.0800   43.8860   21.6190 C.ar    2  HIS2        0.1986
     10  NE2       27.4680   43.7640   22.7840 N.ar    2  HIS2       -0.2212
     11  N         22.8140   42.0750   28.5280 N.3   250  ASP250     -0.1239
     12  CA        22.5040   42.7690   27.2930 C.3   250  ASP250      0.1674
     13  C         23.2540   42.0650   26.1740 C.2   250  ASP250      0.2266
     14  O         24.4220   42.3080   25.9850 O.2   250  ASP250     -0.2867
     15  CB        22.9370   44.2430   27.4330 C.3   250  ASP250      0.1410
     16  CG        22.5230   45.1150   26.2670 C.2   250  ASP250      0.3668
     17  OD1       22.0660   44.5980   25.2230 O.co2 250  ASP250     -0.2456
     18  OD2       22.6820   46.3510   26.3940 O.co2 250  ASP250     -0.2456
     19  N         23.5130   41.8570   22.5760 N.3   252  PHE252     -0.1241
     20  CA        23.5650   42.3170   21.1910 C.3   252  PHE252      0.1605
     21  C         23.5740   41.1790   20.1670 C.2   252  PHE252      0.2264
     22  O         24.5010   40.3780   20.1260 O.2   252  PHE252     -0.2867
     23  CB        24.8500   43.1610   21.0430 C.3   252  PHE252      0.0534
     24  CG        25.0050   43.8720   19.7120 C.ar  252  PHE252     -0.0203
     25  CD1       24.0720   44.8200   19.2910 C.ar  252  PHE252     -0.0042
     26  CD2       26.1280   43.6290   18.9030 C.ar  252  PHE252     -0.0042
     27  CE1       24.2470   45.4960   18.0860 C.ar  252  PHE252     -0.0003
     28  CE2       26.2970   44.3020   17.6970 C.ar  252  PHE252     -0.0003
     29  CZ        25.3540   45.2360   17.2890 C.ar  252  PHE252     -0.0000
     30  N         13.2610   53.0190   17.2360 N.3   362  TRP362     -0.1241
     31  CA        14.3410   53.9040   17.6410 C.3   362  TRP362      0.1605
     32  C         14.7200   54.7870   16.4390 C.2   362  TRP362      0.2264
     33  O         15.5120   54.3490   15.5840 O.2   362  TRP362     -0.2867
     34  CB        15.5280   53.0430   18.0690 C.3   362  TRP362      0.0550
     35  CG        16.6880   53.8020   18.6400 C.ar  362  TRP362      0.0003
     36  CD1       16.6900   55.1000   19.0590 C.ar  362  TRP362      0.0946
     37  CD2       18.0170   53.3080   18.8640 C.ar  362  TRP362      0.0152
     38  NE1       17.9300   55.4430   19.5200 N.ar  362  TRP362     -0.2442
     39  CE2       18.7640   54.3620   19.4190 C.ar  362  TRP362      0.0810
     40  CE3       18.6510   52.0750   18.6510 C.ar  362  TRP362      0.0012
     41  CZ2       20.1260   54.2290   19.7590 C.ar  362  TRP362      0.0191
     42  CZ3       20.0110   51.9460   18.9950 C.ar  362  TRP362      0.0001
     43  CH2       20.7250   53.0140   19.5290 C.ar  362  TRP362      0.0015
     44  N         24.2100   54.9840   27.6830 N.3   464  TRP464     -0.1241
     45  CA        23.7770   55.9640   26.6660 C.3   464  TRP464      0.1605
     46  C         24.3070   57.3760   26.8880 C.2   464  TRP464      0.2264
     47  O         24.6980   58.0300   25.9130 O.2   464  TRP464     -0.2867
     48  CB        22.2290   56.0360   26.5240 C.3   464  TRP464      0.0550
     49  CG        21.6140   54.7740   26.0010 C.ar  464  TRP464      0.0003
     50  CD1       20.6140   54.0600   26.5760 C.ar  464  TRP464      0.0946
     51  CD2       22.0020   54.0500   24.8200 C.ar  464  TRP464      0.0152
     52  NE1       20.3260   52.9560   25.8140 N.ar  464  TRP464     -0.2442
     53  CE2       21.1740   52.9170   24.7410 C.ar  464  TRP464      0.0810
     54  CE3       22.9460   54.2680   23.8130 C.ar  464  TRP464      0.0012
     55  CZ2       21.2690   51.9920   23.7040 C.ar  464  TRP464      0.0191
     56  CZ3       23.0480   53.3410   22.7850 C.ar  464  TRP464      0.0001
     57  CH2       22.2060   52.2210   22.7360 C.ar  464  TRP464      0.0015
     58  N         17.6080   48.2820   29.6100 N.3   504  MET504     -0.1245
     59  CA        18.9720   48.4450   30.0980 C.3   504  MET504      0.1570
     60  C         19.0800   48.1250   31.5620 C.2   504  MET504      0.2261
     61  O         20.0770   48.4780   32.1980 O.2   504  MET504     -0.2867
     62  CB        19.5090   49.8550   29.8320 C.3   504  MET504      0.0387
     63  CG        19.1390   50.4370   28.4710 C.3   504  MET504      0.0595
     64  SD        19.7120   49.3800   27.1330 S.3   504  MET504     -0.1393
     65  CE        21.4760   49.7650   27.1030 C.3   504  MET504      0.0692
     66  N         28.0880   49.5640   29.4560 N.3   510  PHE510     -0.1241
     67  CA        28.7730   49.3860   28.1780 C.3   510  PHE510      0.1605
     68  C         30.2300   49.0130   28.3730 C.2   510  PHE510      0.2264
     69  O         30.7410   48.1420   27.6940 O.2   510  PHE510     -0.2867
     70  CB        28.6620   50.6450   27.3060 C.3   510  PHE510      0.0534
     71  CG        27.2730   50.8990   26.7370 C.ar  510  PHE510     -0.0203
     72  CD1       26.2220   49.9880   26.9060 C.ar  510  PHE510     -0.0042
     73  CD2       27.0110   52.0750   26.0400 C.ar  510  PHE510     -0.0042
     74  CE1       24.9620   50.2470   26.3780 C.ar  510  PHE510     -0.0003
     75  CE2       25.7400   52.3390   25.5160 C.ar  510  PHE510     -0.0003
     76  CZ        24.7220   51.4140   25.6750 C.ar  510  PHE510     -0.0000
     77  N         29.0500   43.4130   29.6050 N.3   515  VAL515     -0.1245
     78  CA        28.1390   44.5400   29.5200 C.3   515  VAL515      0.1561
     79  C         27.2670   44.7220   30.7610 C.2   515  VAL515      0.2260
     80  O         26.1800   45.2940   30.6710 O.2   515  VAL515     -0.2867
     81  CB        27.2330   44.4410   28.2610 C.3   515  VAL515      0.0252
     82  CG1       26.8010   45.8410   27.8100 C.3   515  VAL515      0.0019
     83  CG2       27.9560   43.7420   27.1060 C.3   515  VAL515      0.0019
     84  N         12.8110   44.8990   30.1640 N.3   564  ARG564     -0.1245
     85  CA        13.6660   43.9980   29.4200 C.3   564  ARG564      0.1563
     86  C         14.1510   42.8510   30.2790 C.2   564  ARG564      0.2260
     87  O         14.0380   41.6850   29.8930 O.2   564  ARG564     -0.2867
     88  CB        14.8430   44.7160   28.8120 C.3   564  ARG564      0.0307
     89  CG        15.5060   43.8840   27.7230 C.3   564  ARG564      0.0489
     90  CD        16.3610   44.7620   26.8370 C.3   564  ARG564      0.2205
     91  NE        17.5910   45.0920   27.5270 N.pl3 564  ARG564     -0.0865
     92  CZ        18.6350   45.7150   26.9830 C.cat 564  ARG564      0.5346
     93  NH1       19.7010   45.9340   27.7210 N.pl3 564  ARG564      0.1354
     94  NH2       18.6330   46.1010   25.7230 N.pl3 564  ARG564      0.1354
     95  N         16.5820   42.2630   21.7540 N.3   580  ASP580     -0.1239
     96  CA        16.9950   42.6640   20.4220 C.3   580  ASP580      0.1674
     97  C         17.0750   41.4740   19.4840 C.2   580  ASP580      0.2266
     98  O         18.1220   40.9570   19.2270 O.2   580  ASP580     -0.2867
     99  CB        18.2970   43.4370   20.4650 C.3   580  ASP580      0.1410
    100  CG        18.2170   44.6360   21.3720 C.2   580  ASP580      0.3668
    101  OD1       17.0830   45.1720   21.5720 O.co2 580  ASP580     -0.2456
    102  OD2       19.2970   45.0300   21.8830 O.co2 580  ASP580     -0.2456
    103  N         14.1770   43.3960   15.3380 N.3   613  PHE613     -0.1227
    104  CA        14.6970   44.6830   15.7580 C.3   613  PHE613      0.1736
    105  C         15.8340   45.1020   14.8410 C.2   613  PHE613      0.2595
    106  O         15.7470   46.1690   14.2510 O.2   613  PHE613     -0.2718
    107  CB        15.1430   44.6310   17.2080 C.3   613  PHE613      0.0547
    108  CG        15.7890   45.9040   17.7190 C.ar  613  PHE613     -0.0202
    109  CD1       15.0360   47.0330   17.9850 C.ar  613  PHE613     -0.0042
    110  CD2       17.1390   45.9290   18.0340 C.ar  613  PHE613     -0.0042
    111  CE1       15.6380   48.1750   18.4820 C.ar  613  PHE613     -0.0003
    112  CE2       17.7500   47.0770   18.5300 C.ar  613  PHE613     -0.0003
    113  CZ        16.9870   48.1910   18.7640 C.ar  613  PHE613     -0.0000
    114  N         16.8680   44.2690   14.7120 N.am  614  PHE614     -0.1976
    115  CA        18.0030   44.5550   13.8180 C.3   614  PHE614      0.1639
    116  C         17.6760   44.2570   12.3780 C.2   614  PHE614      0.2290
    117  O         17.2670   43.1360   12.0490 O.2   614  PHE614     -0.2864
    118  CB        19.2500   43.7420   14.1690 C.3   614  PHE614      0.0560
    119  CG        19.8750   44.1380   15.4590 C.ar  614  PHE614     -0.0200
    120  CD1       20.5290   45.3670   15.5880 C.ar  614  PHE614     -0.0042
    121  CD2       19.8090   43.2920   16.5750 C.ar  614  PHE614     -0.0042
    122  CE1       21.1080   45.7410   16.8090 C.ar  614  PHE614     -0.0003
    123  CE2       20.3940   43.6620   17.7880 C.ar  614  PHE614     -0.0003
    124  CZ        21.0410   44.8920   17.9060 C.ar  614  PHE614     -0.0000
    125  N         15.4400   49.0350   14.9620 N.3   640  HIS640     -0.1241
    126  CA        16.7310   49.5940   15.3530 C.3   640  HIS640      0.1621
    127  C         17.0030   50.9070   14.5760 C.2   640  HIS640      0.2264
    128  O         16.3850   51.1680   13.5300 O.2   640  HIS640     -0.2867
    129  CB        17.8070   48.5260   15.1120 C.3   640  HIS640      0.0745
    130  CG        19.2230   49.0050   15.2260 C.ar  640  HIS640      0.0817
    131  ND1       19.9130   49.0200   16.4210 N.ar  640  HIS640     -0.2268
    132  CD2       20.1080   49.3960   14.2820 C.ar  640  HIS640      0.1154
    133  CE1       21.1540   49.4220   16.2130 C.ar  640  HIS640      0.1986
    134  NE2       21.2930   49.6730   14.9240 N.ar  640  HIS640     -0.2212
@<TRIPOS>BOND
     1   117   116    2
     2   116   115    1
     3   128   127    2
     4   115   118    1
     5   115   114    1
     6   118   119    1
     7   106   105    2
     8   132   134   ar
     9   132   130   ar
    10   127   126    1
    11   114   105   am
    12   105   104    1
    13   134   133   ar
    14   125   126    1
    15   129   130    1
    16   129   126    1
    17   130   131   ar
    18   103   104    1
    19   119   120   ar
    20   119   121   ar
    21    33    32    2
    22   120   122   ar
    23   104   107    1
    24   133   131   ar
    25    32    31    1
    26   121   123   ar
    27   122   124   ar
    28   107   108    1
    29    30    31    1
    30    29    28   ar
    31    29    27   ar
    32    31    34    1
    33    28    26   ar
    34   108   109   ar
    35   108   110   ar
    36   123   124   ar
    37   109   111   ar
    38   110   112   ar
    39    34    35    1
    40    27    25   ar
    41   111   113   ar
    42   112   113   ar
    43    35    37   ar
    44    35    36   ar
    45    40    37   ar
    46    40    42   ar
    47    37    39   ar
    48    26    24   ar
    49    42    43   ar
    50    36    38   ar
    51    98    97    2
    52    25    24   ar
    53    39    38   ar
    54    39    41   ar
    55    97    96    1
    56    43    41   ar
    57    24    23    1
    58    22    21    2
    59    21    20    1
    60    96    99    1
    61    96    95    1
    62    99   100    1
    63    23    20    1
    64    20    19    1
    65     1     2    1
    66   100   101   ar
    67   100   102   ar
    68     7     9   ar
    69     7     6   ar
    70     9    10   ar
    71     4     3    2
    72     6     5    1
    73     6     8   ar
    74     2     5    1
    75     2     3    1
    76    57    56   ar
    77    57    55   ar
    78    10     8   ar
    79    56    54   ar
    80    55    53   ar
    81    54    51   ar
    82    53    51   ar
    83    53    52   ar
    84    51    49   ar
    85    17    16   ar
    86    75    76   ar
    87    75    73   ar
    88    76    74   ar
    89    94    92    1
    90    52    50   ar
    91    47    46    2
    92    14    13    2
    93    49    48    1
    94    49    50   ar
    95    73    71   ar
    96    13    12    1
    97    16    18   ar
    98    16    15    1
    99    74    72   ar
   100    48    45    1
   101    45    46    1
   102    45    44    1
   103    71    72   ar
   104    71    70    1
   105    90    91    1
   106    90    89    1
   107    92    91    2
   108    92    93    1
   109    65    64    1
   110    83    81    1
   111    64    63    1
   112    12    15    1
   113    12    11    1
   114    70    67    1
   115    69    68    2
   116    89    88    1
   117    82    81    1
   118    67    68    1
   119    67    66    1
   120    81    78    1
   121    63    62    1
   122    88    85    1
   123    85    84    1
   124    85    86    1
   125    78    77    1
   126    78    79    1
   127    58    59    1
   128    62    59    1
   129    87    86    2
   130    59    60    1
   131    80    79    2
   132    60    61    2
