@<TRIPOS>MOLECULE
tmp/5dl1N00.pdb
 177 171 0 0 0
SMALL
GASTEIGER

@<TRIPOS>ATOM
      1  N        -60.9700   -8.9790   23.4600 N.3    66  VAL66      -0.1245
      2  CA       -62.3110   -9.2720   22.9490 C.3    66  VAL66       0.1561
      3  C        -62.9620  -10.3420   23.8090 C.2    66  VAL66       0.2260
      4  O        -64.0770  -10.1720   24.2870 O.2    66  VAL66      -0.2867
      5  CB       -62.2630   -9.7400   21.4800 C.3    66  VAL66       0.0252
      6  CG1      -63.6330  -10.1850   20.9980 C.3    66  VAL66       0.0019
      7  CG2      -61.7440   -8.6220   20.5920 C.3    66  VAL66       0.0019
      8  N        -62.8720    1.4000   22.1910 N.3    93  SER93      -0.1202
      9  CA       -62.6600   -0.0040   21.8470 C.3    93  SER93       0.2020
     10  C        -63.7190   -0.9020   22.5010 C.2    93  SER93       0.2618
     11  O        -64.9060   -0.6990   22.2780 O.2    93  SER93      -0.2717
     12  CB       -61.2280   -0.4200   22.1980 C.3    93  SER93       0.2103
     13  OG       -60.9930   -1.7730   21.8710 O.3    93  SER93      -0.2182
     14  N        -63.3110   -1.8730   23.3130 N.am   94  MET94      -0.1979
     15  CA       -64.2650   -2.8100   23.9210 C.3    94  MET94       0.1605
     16  C        -65.1270   -2.1550   25.0040 C.2    94  MET94       0.2287
     17  O        -66.1480   -2.7120   25.4030 O.2    94  MET94      -0.2864
     18  CB       -63.5310   -4.0190   24.5100 C.3    94  MET94       0.0413
     19  CG       -64.3480   -5.3010   24.5180 C.3    94  MET94       0.0598
     20  SD       -64.6310   -5.9720   22.8650 S.3    94  MET94      -0.1393
     21  CE       -65.7790   -7.2970   23.2370 C.3    94  MET94       0.0692
     22  N        -66.7630    0.6740   24.6050 N.3    96  SER96      -0.1202
     23  CA       -67.9590    1.1170   23.9000 C.3    96  SER96       0.2020
     24  C        -68.9070   -0.0450   23.6140 C.2    96  SER96       0.2618
     25  O        -70.1110    0.1560   23.4680 O.2    96  SER96      -0.2717
     26  CB       -67.5890    1.8090   22.5880 C.3    96  SER96       0.2103
     27  OG       -66.8690    0.9400   21.7390 O.3    96  SER96      -0.2182
     28  N        -68.3650   -1.2560   23.5230 N.am   97  PHE97      -0.1975
     29  CA       -69.1870   -2.4480   23.3250 C.3    97  PHE97       0.1639
     30  C        -70.0250   -2.7190   24.5670 C.2    97  PHE97       0.2290
     31  O        -71.2130   -3.0160   24.4640 O.2    97  PHE97      -0.2864
     32  CB       -68.3170   -3.6630   23.0100 C.3    97  PHE97       0.0560
     33  CG       -69.0870   -4.8460   22.5000 C.ar   97  PHE97      -0.0200
     34  CD1      -69.4750   -4.9140   21.1700 C.ar   97  PHE97      -0.0042
     35  CD2      -69.4120   -5.8980   23.3450 C.ar   97  PHE97      -0.0042
     36  CE1      -70.1800   -6.0070   20.6940 C.ar   97  PHE97      -0.0003
     37  CE2      -70.1160   -6.9940   22.8750 C.ar   97  PHE97      -0.0003
     38  CZ       -70.5010   -7.0480   21.5480 C.ar   97  PHE97      -0.0000
     39  N        -65.7300    3.3880   18.7140 N.3   117  ILE117     -0.1231
     40  CA       -66.2610    2.0490   18.4340 C.3   117  ILE117      0.1692
     41  C        -65.4030    1.2950   17.4190 C.2   117  ILE117      0.2592
     42  O        -65.8480    0.9890   16.3150 O.2   117  ILE117     -0.2718
     43  CB       -67.7410    2.0960   17.9730 C.3   117  ILE117      0.0266
     44  CG1      -67.9560    3.1400   16.8700 C.3   117  ILE117      0.0019
     45  CG2      -68.6450    2.4020   19.1570 C.3   117  ILE117      0.0020
     46  CD1      -69.2770    3.0000   16.1430 C.3   117  ILE117      0.0001
     47  N        -64.1690    0.9950   17.8110 N.am  118  HIS118     -0.1962
     48  CA       -63.2580    0.2120   16.9740 C.3   118  HIS118      0.1787
     49  C        -62.2670   -0.5760   17.8250 C.2   118  HIS118      0.2620
     50  O        -61.5010    0.0020   18.5950 O.2   118  HIS118     -0.2715
     51  CB       -62.5060    1.1200   15.9960 C.3   118  HIS118      0.0785
     52  CG       -61.2870    0.4870   15.3940 C.ar  118  HIS118      0.0821
     53  ND1      -60.0180    0.9850   15.5890 N.ar  118  HIS118     -0.2267
     54  CD2      -61.1430   -0.6100   14.6150 C.ar  118  HIS118      0.1154
     55  CE1      -59.1450    0.2270   14.9490 C.ar  118  HIS118      0.1986
     56  NE2      -59.8030   -0.7470   14.3480 N.ar  118  HIS118     -0.2212
     57  N        -62.2880   -1.8970   17.6730 N.am  119  GLN119     -0.1964
     58  CA       -61.3520   -2.7810   18.3640 C.3   119  GLN119      0.1718
     59  C        -60.1860   -3.1300   17.4370 C.2   119  GLN119      0.2458
     60  O        -60.3870   -3.8120   16.4300 O.2   119  GLN119     -0.2730
     61  CB       -62.0730   -4.0620   18.8020 C.3   119  GLN119      0.0407
     62  CG       -61.2200   -5.0740   19.5550 C.3   119  GLN119      0.0908
     63  CD       -60.9240   -4.6660   20.9870 C.2   119  GLN119      0.2608
     64  OE1      -61.8210   -4.2260   21.7110 O.2   119  GLN119     -0.2717
     65  NE2      -59.6650   -4.8240   21.4100 N.am  119  GLN119     -0.0878
     66  N        -58.9620   -2.6630   17.7640 N.am  120  PRO120     -0.2716
     67  CA       -57.7900   -3.1740   17.0470 C.3   120  PRO120      0.1536
     68  C        -57.4830   -4.5830   17.5440 C.2   120  PRO120      0.2598
     69  O        -58.1810   -5.0730   18.4290 O.2   120  PRO120     -0.2715
     70  CB       -56.6840   -2.1970   17.4390 C.3   120  PRO120      0.0310
     71  CG       -57.0780   -1.7240   18.7930 C.3   120  PRO120      0.0237
     72  CD       -58.5820   -1.7040   18.8180 C.3   120  PRO120      0.0939
     73  N        -56.4550   -5.2350   17.0100 N.am  121  LEU121     -0.1964
     74  CA       -56.2380   -6.6420   17.3570 C.3   121  LEU121      0.1728
     75  C        -54.9400   -6.9500   18.0990 C.2   121  LEU121      0.2617
     76  O        -53.8510   -6.5370   17.6950 O.2   121  LEU121     -0.2715
     77  CB       -56.3570   -7.5430   16.1230 C.3   121  LEU121      0.0311
     78  CG       -55.4510   -7.2490   14.9250 C.3   121  LEU121      0.0022
     79  CD1      -54.7540   -8.5170   14.4510 C.3   121  LEU121      0.0001
     80  CD2      -56.2440   -6.6070   13.7980 C.3   121  LEU121      0.0001
     81  N        -55.0980   -7.6690   19.2080 N.am  122  GLY122     -0.1940
     82  CA       -54.0130   -8.3840   19.8710 C.3   122  GLY122      0.2014
     83  C        -54.3750   -9.8590   19.8430 C.2   122  GLY122      0.2639
     84  O        -54.9710  -10.3320   18.8710 O.2   122  GLY122     -0.2714
     85  N        -54.0290  -10.5840   20.9050 N.am  123  GLY123     -0.1939
     86  CA       -54.3480  -12.0140   21.0150 C.3   123  GLY123      0.2014
     87  C        -54.0650  -12.8020   19.7460 C.2   123  GLY123      0.2638
     88  O        -54.8380  -13.6850   19.3650 O.2   123  GLY123     -0.2714
     89  N        -52.9470  -12.4770   19.0970 N.am  124  ALA124     -0.1977
     90  CA       -52.5750  -13.0690   17.8100 C.3   124  ALA124      0.1597
     91  C        -51.7820  -14.3710   17.9670 C.2   124  ALA124      0.2287
     92  O        -51.4950  -15.0400   16.9760 O.2   124  ALA124     -0.2864
     93  CB       -51.7730  -12.0660   16.9910 C.3   124  ALA124      0.0319
     94  N        -53.6670  -18.0740   17.2450 N.3   127  GLN127     -0.1245
     95  CA       -54.1030  -18.1200   15.8500 C.3   127  GLN127      0.1566
     96  C        -52.9250  -18.2190   14.8770 C.2   127  GLN127      0.2260
     97  O        -53.0400  -18.8500   13.8270 O.2   127  GLN127     -0.2867
     98  CB       -54.9220  -16.8690   15.5220 C.3   127  GLN127      0.0367
     99  CG       -56.1330  -16.6620   16.4200 C.3   127  GLN127      0.0905
    100  CD       -56.4860  -15.1990   16.6030 C.2   127  GLN127      0.2608
    101  OE1      -56.3090  -14.3890   15.6930 O.2   127  GLN127     -0.2717
    102  NE2      -56.9940  -14.8520   17.7830 N.am  127  GLN127     -0.0878
    103  N        -60.7900  -16.3280   11.5950 N.3   137  HIS137     -0.1226
    104  CA       -61.1430  -16.0320   12.9850 C.3   137  HIS137      0.1752
    105  C        -61.3220  -14.5290   13.2080 C.2   137  HIS137      0.2595
    106  O        -62.1240  -14.1090   14.0390 O.2   137  HIS137     -0.2718
    107  CB       -60.0840  -16.5720   13.9430 C.3   137  HIS137      0.0759
    108  CG       -60.4430  -16.4120   15.3870 C.ar  137  HIS137      0.0818
    109  ND1      -61.4200  -17.1660   16.0000 N.ar  137  HIS137     -0.2268
    110  CD2      -59.9590  -15.5810   16.3380 C.ar  137  HIS137      0.1154
    111  CE1      -61.5220  -16.8070   17.2670 C.ar  137  HIS137      0.1986
    112  NE2      -60.6460  -15.8460   17.4980 N.ar  137  HIS137     -0.2212
    113  N        -60.5630  -13.7280   12.4680 N.am  138  ILE138     -0.1980
    114  CA       -60.7280  -12.2780   12.4840 C.3   138  ILE138      0.1595
    115  C        -62.0750  -11.9070   11.8590 C.2   138  ILE138      0.2287
    116  O        -62.8080  -11.0830   12.4030 O.2   138  ILE138     -0.2864
    117  CB       -59.5810  -11.5650   11.7340 C.3   138  ILE138      0.0276
    118  CG1      -58.2480  -11.7860   12.4570 C.3   138  ILE138      0.0022
    119  CG2      -59.8550  -10.0710   11.6180 C.3   138  ILE138      0.0022
    120  CD1      -57.0310  -11.4710   11.6130 C.3   138  ILE138      0.0001
    121  N        -64.9070  -13.0780   14.2120 N.3   141  THR141     -0.1203
    122  CA       -64.9860  -12.1440   15.3370 C.3   141  THR141      0.1994
    123  C        -65.5370  -10.7880   14.8890 C.2   141  THR141      0.2617
    124  O        -66.2680  -10.1350   15.6370 O.2   141  THR141     -0.2717
    125  CB       -63.6070  -11.9440   16.0050 C.3   141  THR141      0.1784
    126  OG1      -63.0410  -13.2190   16.3370 O.3   141  THR141     -0.2211
    127  CG2      -63.7270  -11.1060   17.2770 C.3   141  THR141      0.0376
    128  N        -65.1870  -10.3750   13.6720 N.am  142  ARG142     -0.1979
    129  CA       -65.7060   -9.1280   13.0980 C.3   142  ARG142      0.1597
    130  C        -67.2060   -9.2420   12.8430 C.2   142  ARG142      0.2287
    131  O        -67.9590   -8.3060   13.1090 O.2   142  ARG142     -0.2864
    132  CB       -64.9690   -8.7760   11.8010 C.3   142  ARG142      0.0334
    133  CG       -65.1350   -7.3280   11.3600 C.3   142  ARG142      0.0492
    134  CD       -64.2570   -6.9960   10.1600 C.3   142  ARG142      0.2205
    135  NE       -64.9320   -7.2380    8.8820 N.pl3 142  ARG142     -0.0865
    136  CZ       -65.6620   -6.3410    8.2140 C.cat 142  ARG142      0.5346
    137  NH1      -66.2240   -6.6830    7.0600 N.pl3 142  ARG142      0.1354
    138  NH2      -65.8400   -5.1080    8.6840 N.pl3 142  ARG142      0.1354
    139  N        -68.8700   -9.3130   16.3910 N.3   145  LEU145     -0.1231
    140  CA       -68.9530   -7.9860   17.0110 C.3   145  LEU145      0.1693
    141  C        -69.9660   -7.0880   16.3150 C.2   145  LEU145      0.2592
    142  O        -70.7970   -6.4640   16.9740 O.2   145  LEU145     -0.2718
    143  CB       -67.5870   -7.2910   17.0050 C.3   145  LEU145      0.0284
    144  CG       -66.5800   -7.7690   18.0480 C.3   145  LEU145      0.0019
    145  CD1      -65.1720   -7.3340   17.6760 C.3   145  LEU145      0.0001
    146  CD2      -66.9490   -7.2570   19.4310 C.3   145  LEU145      0.0001
    147  N        -69.8800   -7.0210   14.9890 N.am  146  ASN146     -0.1974
    148  CA       -70.7440   -6.1420   14.1990 C.3   146  ASN146      0.1688
    149  C        -72.2170   -6.5310   14.2510 C.2   146  ASN146      0.2292
    150  O        -73.0770   -5.6610   14.2150 O.2   146  ASN146     -0.2864
    151  CB       -70.2660   -6.0790   12.7440 C.3   146  ASN146      0.1181
    152  CG       -68.9150   -5.4010   12.6010 C.2   146  ASN146      0.2629
    153  OD1      -68.4710   -4.6760   13.4920 O.2   146  ASN146     -0.2716
    154  ND2      -68.2530   -5.6380   11.4760 N.am  146  ASN146     -0.0877
    155  N        -73.4940   -5.5030   17.8500 N.3   149  LEU149     -0.1245
    156  CA       -73.5340   -4.0430   17.9560 C.3   149  LEU149      0.1561
    157  C        -74.7320   -3.4890   17.1870 C.2   149  LEU149      0.2260
    158  O        -75.4440   -2.6140   17.6800 O.2   149  LEU149     -0.2867
    159  CB       -72.2390   -3.4190   17.4190 C.3   149  LEU149      0.0270
    160  CG       -71.7110   -2.1280   18.0670 C.3   149  LEU149      0.0019
    161  CD1      -70.6800   -1.4840   17.1550 C.3   149  LEU149      0.0001
    162  CD2      -72.7990   -1.1220   18.3890 C.3   149  LEU149      0.0001
    163  N        -66.8200    0.5350   12.2580 N.3   164  THR164     -0.1203
    164  CA       -66.0320   -0.2880   13.1840 C.3   164  THR164      0.1994
    165  C        -64.7210   -0.8220   12.5920 C.2   164  THR164      0.2617
    166  O        -64.0110   -1.5810   13.2490 O.2   164  THR164     -0.2717
    167  CB       -66.8460   -1.4870   13.7110 C.3   164  THR164      0.1784
    168  OG1      -67.2190   -2.3370   12.6220 O.3   164  THR164     -0.2211
    169  CG2      -68.0840   -1.0080   14.4540 C.3   164  THR164      0.0376
    170  N        -64.4050   -0.4320   11.3600 N.am  165  ASP165     -0.1973
    171  CA       -63.1590   -0.8370   10.7180 C.3   165  ASP165      0.1709
    172  C        -62.0350    0.1450   11.0490 C.2   165  ASP165      0.2293
    173  O        -60.9380   -0.2670   11.4280 O.2   165  ASP165     -0.2864
    174  CB       -63.3530   -0.9270    9.2030 C.3   165  ASP165      0.1436
    175  CG       -62.1800   -1.5780    8.4970 C.2   165  ASP165      0.3671
    176  OD1      -61.9270   -1.2230    7.3280 O.co2 165  ASP165     -0.2456
    177  OD2      -61.5150   -2.4430    9.1020 O.co2 165  ASP165     -0.2456
@<TRIPOS>BOND
     1   137   136    1
     2   176   175   ar
     3   136   138    1
     4   136   135    2
     5   175   177   ar
     6   175   174    1
     7   135   134    1
     8   174   171    1
     9   134   133    1
    10   171   172    1
    11   171   170    1
    12   172   173    2
    13   133   132    1
    14   170   165   am
    15   154   152   am
    16   103   104    1
    17   120   118    1
    18   119   117    1
    19   117   118    1
    20   117   114    1
    21   132   129    1
    22   115   116    2
    23   115   114    1
    24   163   164    1
    25   113   114    1
    26   113   105   am
    27   165   164    1
    28   165   166    2
    29   152   151    1
    30   152   153    2
    31   168   167    1
    32   151   148    1
    33   130   129    1
    34   130   131    2
    35   104   105    1
    36   104   107    1
    37   129   128    1
    38   164   167    1
    39   105   106    2
    40   128   123   am
    41   167   169    1
    42    80    78    1
    43    97    96    2
    44   107   108    1
    45   148   149    1
    46   148   147    1
    47   121   122    1
    48   150   149    2
    49    56    54   ar
    50    56    55   ar
    51    79    78    1
    52    54    52   ar
    53    96    95    1
    54   123   122    1
    55   123   124    2
    56    78    77    1
    57    55    53   ar
    58   147   141   am
    59   122   125    1
    60   108   109   ar
    61   108   110   ar
    62    52    53   ar
    63    52    51    1
    64    98    95    1
    65    98    99    1
    66   101   100    2
    67    95    94    1
    68    51    48    1
    69   109   111   ar
    70   125   126    1
    71   125   127    1
    72    77    74    1
    73    46    44    1
    74    42    41    2
    75   141   142    2
    76   141   140    1
    77   110   112   ar
    78   139   140    1
    79    99   100    1
    80    60    59    2
    81   100   102   am
    82    44    43    1
    83    48    47    1
    84    48    49    1
    85    92    91    2
    86    93    90    1
    87   143   140    1
    88   143   144    1
    89    73    74    1
    90    73    68   am
    91    67    70    1
    92    67    68    1
    93    67    66    1
    94   161   160    1
    95   157   158    2
    96   157   156    1
    97   111   112   ar
    98    74    75    1
    99    41    47   am
   100    41    40    1
   101   159   156    1
   102   159   160    1
   103    59    66   am
   104    59    58    1
   105    70    71    1
   106    68    69    2
   107    57    49   am
   108    57    58    1
   109   145   144    1
   110    76    75    2
   111    66    72    1
   112    90    91    1
   113    90    89    1
   114    49    50    2
   115   155   156    1
   116    43    40    1
   117    43    45    1
   118   144   146    1
   119   160   162    1
   120    75    81   am
   121    58    61    1
   122    40    39    1
   123    71    72    1
   124    61    62    1
   125    84    83    2
   126    89    87   am
   127    81    82    1
   128    88    87    2
   129    62    63    1
   130    87    86    1
   131    83    82    1
   132    83    85   am
   133     7     5    1
   134    36    34   ar
   135    36    38   ar
   136    85    86    1
   137    63    65   am
   138    63    64    2
   139     6     5    1
   140    34    33   ar
   141     5     2    1
   142    38    37   ar
   143    27    26    1
   144     9     8    1
   145     9    12    1
   146     9    10    1
   147    13    12    1
   148    11    10    2
   149    33    32    1
   150    33    35   ar
   151    10    14   am
   152    26    23    1
   153    20    21    1
   154    20    19    1
   155    37    35   ar
   156     2     1    1
   157     2     3    1
   158    32    29    1
   159    14    15    1
   160    29    28    1
   161    29    30    1
   162    25    24    2
   163    28    24   am
   164    24    23    1
   165     3     4    2
   166    23    22    1
   167    15    18    1
   168    15    16    1
   169    31    30    2
   170    18    19    1
   171    16    17    2
