@<TRIPOS>MOLECULE
tmp/5dl5A01.pdb
 81 82 0 0 0
SMALL
GASTEIGER

@<TRIPOS>ATOM
      1  N        -23.2070  -42.4270    8.0070 N.3    20  PHE20      -0.1241
      2  CA       -23.5690  -41.5600    6.8600 C.3    20  PHE20       0.1605
      3  C        -22.3750  -40.8120    6.2950 C.2    20  PHE20       0.2264
      4  O        -21.7380  -40.0940    6.9770 O.2    20  PHE20      -0.2867
      5  CB       -24.6070  -40.5780    7.3030 C.3    20  PHE20       0.0534
      6  CG       -25.8590  -41.2210    7.7660 C.ar   20  PHE20      -0.0203
      7  CD1      -26.7950  -41.6040    6.8420 C.ar   20  PHE20      -0.0042
      8  CD2      -26.0940  -41.4390    9.1000 C.ar   20  PHE20      -0.0042
      9  CE1      -28.0050  -42.1400    7.2270 C.ar   20  PHE20      -0.0003
     10  CE2      -27.3320  -41.9530    9.5250 C.ar   20  PHE20      -0.0003
     11  CZ       -28.2890  -42.3330    8.5780 C.ar   20  PHE20      -0.0000
     12  N        -23.7170  -39.2250   -1.5200 N.3    41  GLN41      -0.1231
     13  CA       -24.1120  -39.4460   -0.1490 C.3    41  GLN41       0.1698
     14  C        -24.3710  -40.9240    0.0310 C.2    41  GLN41       0.2593
     15  O        -25.0600  -41.5260   -0.8220 O.2    41  GLN41      -0.2718
     16  CB       -25.3850  -38.6800    0.1670 C.3    41  GLN41       0.0381
     17  CG       -25.9410  -38.9520    1.5610 C.3    41  GLN41       0.0905
     18  CD       -25.0900  -38.3900    2.6580 C.2    41  GLN41       0.2608
     19  OE1      -24.7090  -37.2150    2.5650 O.2    41  GLN41      -0.2717
     20  NE2      -24.7020  -39.2220    3.6600 N.am   41  GLN41      -0.0878
     21  N        -23.8530  -41.5030    1.1160 N.am   42  SER42      -0.1938
     22  CA       -24.0350  -42.9340    1.3880 C.3    42  SER42       0.2055
     23  C        -24.5290  -43.0990    2.7560 C.2    42  SER42       0.2642
     24  O        -24.2690  -42.2700    3.6370 O.2    42  SER42      -0.2714
     25  CB       -22.6690  -43.6690    1.3530 C.3    42  SER42       0.2130
     26  OG       -22.3910  -43.6950   -0.0240 O.3    42  SER42      -0.2179
     27  N        -25.1670  -44.2430    2.9570 N.am   43  ALA43      -0.1977
     28  CA       -25.4870  -44.7320    4.3130 C.3    43  ALA43       0.1597
     29  C        -24.9720  -46.1710    4.3660 C.2    43  ALA43       0.2287
     30  O        -25.4120  -47.0120    3.5960 O.2    43  ALA43      -0.2864
     31  CB       -26.9750  -44.6980    4.6230 C.3    43  ALA43       0.0319
     32  N        -26.5830  -47.9540    0.9980 N.3    66  GLY66      -0.1210
     33  CA       -27.4290  -47.3610   -0.0800 C.3    66  GLY66       0.1956
     34  C        -26.9100  -45.9330   -0.2910 C.2    66  GLY66       0.2613
     35  O        -26.5160  -45.2680    0.6810 O.2    66  GLY66      -0.2717
     36  N        -26.8920  -45.4940   -1.5350 N.am   67  SER67      -0.1938
     37  CA       -26.2720  -44.2400   -1.8570 C.3    67  SER67       0.2055
     38  C        -26.9980  -43.4950   -2.9460 C.2    67  SER67       0.2643
     39  O        -27.7520  -44.1400   -3.7040 O.2    67  SER67      -0.2714
     40  CB       -24.8140  -44.4640   -2.3010 C.3    67  SER67       0.2130
     41  OG       -24.1260  -45.2970   -1.4060 O.3    67  SER67      -0.2179
     42  N        -26.7130  -42.1920   -3.0960 N.am   68  PHE68      -0.1973
     43  CA       -27.2220  -41.4970   -4.3110 C.3    68  PHE68       0.1639
     44  C        -26.1600  -40.5160   -4.7640 C.2    68  PHE68       0.2290
     45  O        -25.4240  -39.9930   -3.9620 O.2    68  PHE68      -0.2864
     46  CB       -28.6060  -40.9000   -4.0820 C.3    68  PHE68       0.0560
     47  CG       -28.6970  -39.9830   -2.8900 C.ar   68  PHE68      -0.0200
     48  CD1      -29.0430  -40.4820   -1.6050 C.ar   68  PHE68      -0.0042
     49  CD2      -28.4570  -38.6260   -3.0310 C.ar   68  PHE68      -0.0042
     50  CE1      -29.1610  -39.5950   -0.4930 C.ar   68  PHE68      -0.0003
     51  CE2      -28.5270  -37.7830   -1.9420 C.ar   68  PHE68      -0.0003
     52  CZ       -28.9260  -38.2540   -0.6810 C.ar   68  PHE68      -0.0000
     53  N        -28.7130  -43.7320   -8.0960 N.3    92  HIS92      -0.1226
     54  CA       -28.7940  -44.2820   -6.7440 C.3    92  HIS92       0.1752
     55  C        -28.4400  -45.7830   -6.8530 C.2    92  HIS92       0.2596
     56  O        -28.5440  -46.3590   -7.9300 O.2    92  HIS92      -0.2718
     57  CB       -30.1480  -44.1030   -6.0210 C.3    92  HIS92       0.0759
     58  CG       -31.3570  -44.5460   -6.8300 C.ar   92  HIS92       0.0818
     59  ND1      -31.8520  -45.8500   -6.8180 N.ar   92  HIS92      -0.2268
     60  CD2      -32.1090  -43.8820   -7.7220 C.ar   92  HIS92       0.1154
     61  CE1      -32.8580  -45.9500   -7.6720 C.ar   92  HIS92       0.1986
     62  NE2      -33.0800  -44.7560   -8.1800 N.ar   92  HIS92      -0.2212
     63  N        -27.8960  -46.3440   -5.7900 N.am   93  TRP93      -0.1962
     64  CA       -27.5660  -47.7270   -5.7970 C.3    93  TRP93       0.1771
     65  C        -27.5020  -48.2720   -4.3770 C.2    93  TRP93       0.2619
     66  O        -27.2820  -47.5650   -3.4000 O.2    93  TRP93      -0.2715
     67  CB       -26.1450  -47.9590   -6.4610 C.3    93  TRP93       0.0590
     68  CG       -24.9660  -47.1570   -5.8760 C.ar   93  TRP93       0.0006
     69  CD1      -23.9600  -47.6320   -5.1050 C.ar   93  TRP93       0.0946
     70  CD2      -24.6920  -45.7130   -6.0380 C.ar   93  TRP93       0.0152
     71  NE1      -23.0580  -46.5780   -4.7450 N.ar   93  TRP93      -0.2442
     72  CE2      -23.5240  -45.4060   -5.3080 C.ar   93  TRP93       0.0810
     73  CE3      -25.3070  -44.6930   -6.7530 C.ar   93  TRP93       0.0012
     74  CZ2      -22.9940  -44.1080   -5.2760 C.ar   93  TRP93       0.0191
     75  CZ3      -24.7920  -43.4280   -6.7090 C.ar   93  TRP93       0.0001
     76  CH2      -23.6450  -43.1450   -5.9930 C.ar   93  TRP93       0.0015
     77  N        -27.5450  -49.5790   -4.3340 N.am   94  ALA94      -0.1977
     78  CA       -27.5950  -50.3530   -3.1320 C.3    94  ALA94       0.1597
     79  C        -26.7790  -51.6370   -3.3250 C.2    94  ALA94       0.2287
     80  O        -26.8120  -52.2670   -4.4060 O.2    94  ALA94      -0.2864
     81  CB       -29.0570  -50.6700   -2.7660 C.3    94  ALA94       0.0319
@<TRIPOS>BOND
     1    62    60   ar
     2    62    61   ar
     3    53    54    1
     4    56    55    2
     5    60    58   ar
     6    61    59   ar
     7    55    54    1
     8    55    63   am
     9    58    59   ar
    10    58    57    1
    11    73    75   ar
    12    73    70   ar
    13    54    57    1
    14    75    76   ar
    15    67    68    1
    16    67    64    1
    17    70    68   ar
    18    70    72   ar
    19    76    74   ar
    20    68    69   ar
    21    64    63    1
    22    64    65    1
    23    72    74   ar
    24    72    71   ar
    25    69    71   ar
    26    44    43    1
    27    44    45    2
    28    80    79    2
    29    65    77   am
    30    65    66    2
    31    77    78    1
    32    43    46    1
    33    43    42    1
    34    46    47    1
    35    39    38    2
    36    79    78    1
    37    78    81    1
    38    42    38   am
    39    49    47   ar
    40    49    51   ar
    41    38    37    1
    42    47    48   ar
    43    40    37    1
    44    40    41    1
    45    51    52   ar
    46    37    36    1
    47    48    50   ar
    48    36    34   am
    49    12    13    1
    50    15    14    2
    51    52    50   ar
    52    34    33    1
    53    34    35    2
    54    13    14    1
    55    13    16    1
    56    33    32    1
    57    26    25    1
    58    14    21   am
    59    16    17    1
    60    21    22    1
    61    25    22    1
    62    22    23    1
    63    17    18    1
    64    19    18    2
    65    18    20   am
    66    23    27   am
    67    23    24    2
    68    27    28    1
    69    30    29    2
    70    28    29    1
    71    28    31    1
    72     3     2    1
    73     3     4    2
    74     7     9   ar
    75     7     6   ar
    76     2     5    1
    77     2     1    1
    78     9    11   ar
    79     5     6    1
    80     6     8   ar
    81    11    10   ar
    82     8    10   ar
