@<TRIPOS>MOLECULE
tmp/5dl5A00.pdb
 163 153 0 0 0
SMALL
GASTEIGER

@<TRIPOS>ATOM
      1  N        -10.3900  -34.3830   -9.5630 N.3    27  ARG27      -0.1245
      2  CA        -9.0170  -34.3660  -10.1240 C.3    27  ARG27       0.1563
      3  C         -9.0240  -33.4990  -11.3970 C.2    27  ARG27       0.2260
      4  O         -9.7350  -33.8300  -12.3990 O.2    27  ARG27      -0.2867
      5  CB        -8.6790  -35.7600  -10.5700 C.3    27  ARG27       0.0307
      6  CG        -8.4750  -36.6990   -9.3880 C.3    27  ARG27       0.0489
      7  CD        -7.5680  -37.9320   -9.6710 C.3    27  ARG27       0.2205
      8  NE        -7.5760  -38.7430   -8.4490 N.pl3  27  ARG27      -0.0865
      9  CZ        -7.1550  -39.9930   -8.3440 C.cat  27  ARG27       0.5346
     10  NH1       -6.7310  -40.6150   -9.3680 N.pl3  27  ARG27       0.1354
     11  NH2       -7.2150  -40.6150   -7.2060 N.pl3  27  ARG27       0.1354
     12  N         -6.8350  -32.1680  -14.3800 N.3    29  LYS29      -0.1245
     13  CA        -5.6460  -32.6480  -15.1240 C.3    29  LYS29       0.1561
     14  C         -5.2870  -31.6670  -16.2830 C.2    29  LYS29       0.2260
     15  O         -6.0070  -30.7310  -16.5240 O.2    29  LYS29      -0.2867
     16  CB        -5.8720  -34.0860  -15.5390 C.3    29  LYS29       0.0271
     17  CG        -6.2710  -35.0060  -14.3670 C.3    29  LYS29       0.0035
     18  CD        -5.6490  -36.3450  -14.6460 C.3    29  LYS29       0.0206
     19  CE        -6.1220  -37.4220  -13.7000 C.3    29  LYS29       0.1093
     20  NZ        -5.7190  -38.7150  -14.2300 N.3    29  LYS29      -0.1314
     21  N        -11.9870  -35.4490  -13.5060 N.3    36  THR36      -0.1218
     22  CA       -13.0240  -36.2140  -12.8810 C.3    36  THR36       0.1862
     23  C        -13.5690  -35.3440  -11.7220 C.2    36  THR36       0.2287
     24  O        -12.8610  -34.5020  -11.1110 O.2    36  THR36      -0.2866
     25  CB       -12.5890  -37.5900  -12.4460 C.3    36  THR36       0.1770
     26  OG1      -11.4470  -37.4480  -11.6000 O.3    36  THR36      -0.2211
     27  CG2      -12.3450  -38.6080  -13.6850 C.3    36  THR36       0.0375
     28  N        -15.6740  -40.7760  -11.4050 N.3    77  GLY77      -0.1210
     29  CA       -14.5800  -41.6950  -11.5940 C.3    77  GLY77       0.1956
     30  C        -13.9660  -41.9860  -10.2620 C.2    77  GLY77       0.2612
     31  O        -14.5300  -41.6370   -9.2190 O.2    77  GLY77      -0.2717
     32  N        -12.8200  -42.6580  -10.3130 N.am   78  ASN78      -0.1960
     33  CA       -12.0220  -42.8780   -9.1430 C.3    78  ASN78       0.1819
     34  C        -12.7520  -43.7520   -8.1820 C.2    78  ASN78       0.2621
     35  O        -12.6500  -43.5800   -7.0320 O.2    78  ASN78      -0.2715
     36  CB       -11.5580  -41.5530   -8.5210 C.3    78  ASN78       0.1195
     37  CG       -10.9610  -40.6390   -9.5420 C.2    78  ASN78       0.2630
     38  OD1       -9.9210  -40.9540  -10.2920 O.2    78  ASN78      -0.2716
     39  ND2      -11.6070  -39.5650   -9.7180 N.am   78  ASN78      -0.0877
     40  N        -13.5370  -44.6790   -8.7080 N.am   79  GLN79      -0.1977
     41  CA       -14.2650  -45.6270   -7.9160 C.3    79  GLN79       0.1601
     42  C        -15.2330  -45.0580   -6.8770 C.2    79  GLN79       0.2287
     43  O        -15.5110  -45.7270   -5.8950 O.2    79  GLN79      -0.2864
     44  CB       -13.2660  -46.6510   -7.2700 C.3    79  GLN79       0.0394
     45  CG       -12.5340  -47.4160   -8.3030 C.3    79  GLN79       0.0908
     46  CD       -11.4490  -46.6590   -9.0860 C.2    79  GLN79       0.2608
     47  OE1      -10.5830  -45.8750   -8.5590 O.2    79  GLN79      -0.2717
     48  NE2      -11.5510  -46.8390  -10.3970 N.am   79  GLN79      -0.0878
     49  N        -21.2290  -46.5900  -12.8340 N.3    83  LYS83      -0.1245
     50  CA       -21.4370  -45.9820  -14.1330 C.3    83  LYS83       0.1561
     51  C        -22.1810  -46.9630  -15.0340 C.2    83  LYS83       0.2260
     52  O        -22.0600  -48.1970  -14.8750 O.2    83  LYS83      -0.2867
     53  CB       -20.0950  -45.5090  -14.7630 C.3    83  LYS83       0.0271
     54  CG       -19.6010  -44.2190  -14.1140 C.3    83  LYS83       0.0035
     55  CD       -18.4890  -43.4970  -14.8620 C.3    83  LYS83       0.0206
     56  CE       -17.1570  -43.9530  -14.3590 C.3    83  LYS83       0.1093
     57  NZ       -16.1030  -43.1120  -14.9120 N.3    83  LYS83      -0.1314
     58  N        -13.3790  -44.6150   -0.3040 N.3   127  ARG127     -0.1245
     59  CA       -14.3150  -43.9660   -1.2870 C.3   127  ARG127      0.1563
     60  C        -15.6680  -43.8230   -0.6370 C.2   127  ARG127      0.2260
     61  O        -15.7110  -43.4590    0.5670 O.2   127  ARG127     -0.2867
     62  CB       -14.3520  -44.6430   -2.7010 C.3   127  ARG127      0.0307
     63  CG       -12.9890  -44.6500   -3.3820 C.3   127  ARG127      0.0489
     64  CD       -12.4510  -43.2830   -3.7470 C.3   127  ARG127      0.2205
     65  NE       -11.2030  -43.4320   -4.5000 N.pl3 127  ARG127     -0.0865
     66  CZ       -10.0010  -43.6050   -3.9580 C.cat 127  ARG127      0.5346
     67  NH1       -9.8540  -43.6450   -2.6390 N.pl3 127  ARG127      0.1354
     68  NH2       -8.9300  -43.7900   -4.7440 N.pl3 127  ARG127      0.1354
     69  N        -17.7550  -49.2790   -6.4890 N.3   160  ASP160     -0.1239
     70  CA       -18.4510  -48.6680   -7.5960 C.3   160  ASP160      0.1674
     71  C        -19.0950  -49.6590   -8.5540 C.2   160  ASP160      0.2266
     72  O        -19.2750  -49.3490   -9.7780 O.2   160  ASP160     -0.2867
     73  CB       -17.4510  -47.7740   -8.3800 C.3   160  ASP160      0.1410
     74  CG       -16.3290  -48.5800   -9.0760 C.2   160  ASP160      0.3668
     75  OD1      -16.0240  -49.7430   -8.6920 O.co2 160  ASP160     -0.2456
     76  OD2      -15.7780  -48.0600  -10.0700 O.co2 160  ASP160     -0.2456
     77  N        -12.7510  -53.4980   -9.5680 N.3   168  ALA168     -0.1245
     78  CA       -12.7490  -52.0970  -10.0260 C.3   168  ALA168      0.1562
     79  C        -12.7800  -52.1150  -11.5270 C.2   168  ALA168      0.2260
     80  O        -13.2140  -51.1310  -12.1310 O.2   168  ALA168     -0.2867
     81  CB       -11.4780  -51.3080   -9.5780 C.3   168  ALA168      0.0290
     82  N         -1.3540  -53.7960   -7.9610 N.3   292  TYR292     -0.1241
     83  CA        -2.4070  -54.2970   -7.0960 C.3   292  TYR292      0.1605
     84  C         -3.7950  -53.8080   -7.5870 C.2   292  TYR292      0.2264
     85  O         -3.9700  -52.7800   -8.2850 O.2   292  TYR292     -0.2867
     86  CB        -2.1410  -53.9980   -5.6140 C.3   292  TYR292      0.0534
     87  CG        -2.5330  -52.5710   -5.1880 C.ar  292  TYR292     -0.0201
     88  CD1       -1.7150  -51.4830   -5.4630 C.ar  292  TYR292     -0.0009
     89  CD2       -3.7530  -52.3060   -4.6040 C.ar  292  TYR292     -0.0009
     90  CE1       -2.0740  -50.1780   -5.1210 C.ar  292  TYR292      0.0417
     91  CE2       -4.1070  -51.0420   -4.2990 C.ar  292  TYR292      0.0417
     92  CZ        -3.2850  -49.9790   -4.5800 C.ar  292  TYR292      0.1957
     93  OH        -3.6560  -48.6840   -4.3280 O.3   292  TYR292     -0.2866
     94  N         -8.8590  -53.6360   -3.4440 N.3   299  PHE299     -0.1241
     95  CA        -8.5050  -52.2850   -3.7620 C.3   299  PHE299      0.1605
     96  C         -7.6320  -51.5710   -2.7120 C.2   299  PHE299      0.2264
     97  O         -7.0780  -50.5660   -2.9700 O.2   299  PHE299     -0.2867
     98  CB        -9.8240  -51.5370   -4.0550 C.3   299  PHE299      0.0534
     99  CG        -9.6510  -50.1870   -4.6530 C.ar  299  PHE299     -0.0203
    100  CD1       -9.5130  -50.0650   -5.9900 C.ar  299  PHE299     -0.0042
    101  CD2       -9.5980  -49.0790   -3.8710 C.ar  299  PHE299     -0.0042
    102  CE1       -9.3470  -48.8250   -6.5800 C.ar  299  PHE299     -0.0003
    103  CE2       -9.4840  -47.8190   -4.4400 C.ar  299  PHE299     -0.0003
    104  CZ        -9.3680  -47.7070   -5.7920 C.ar  299  PHE299     -0.0000
    105  N         -0.5000  -42.0880   -1.2090 N.3   308  TYR308     -0.1227
    106  CA        -1.4730  -40.9810   -1.0480 C.3   308  TYR308      0.1736
    107  C         -2.3300  -40.9870   -2.2900 C.2   308  TYR308      0.2595
    108  O         -3.0390  -41.9310   -2.4730 O.2   308  TYR308     -0.2718
    109  CB        -0.7720  -39.5940   -0.8020 C.3   308  TYR308      0.0548
    110  CG        -0.0090  -39.5340    0.5370 C.ar  308  TYR308     -0.0200
    111  CD1       -0.7080  -39.3160    1.7450 C.ar  308  TYR308     -0.0009
    112  CD2        1.3730  -39.7930    0.5990 C.ar  308  TYR308     -0.0009
    113  CE1       -0.0580  -39.3510    2.9780 C.ar  308  TYR308      0.0417
    114  CE2        2.0410  -39.8270    1.8140 C.ar  308  TYR308      0.0417
    115  CZ         1.3400  -39.5120    2.9890 C.ar  308  TYR308      0.1957
    116  OH         2.0060  -39.4770    4.1810 O.3   308  TYR308     -0.2866
    117  N         -2.2470  -40.0370   -3.2080 N.am  309  MET309     -0.1979
    118  CA        -3.0060  -40.1920   -4.4450 C.3   309  MET309      0.1605
    119  C         -2.2150  -41.2070   -5.2900 C.2   309  MET309      0.2287
    120  O         -2.7630  -42.1770   -5.7380 O.2   309  MET309     -0.2864
    121  CB        -3.2240  -38.9080   -5.1980 C.3   309  MET309      0.0413
    122  CG        -3.9170  -39.2420   -6.5270 C.3   309  MET309      0.0598
    123  SD        -4.1060  -37.7920   -7.5290 S.3   309  MET309     -0.1393
    124  CE        -2.4450  -37.4570   -8.0470 C.3   309  MET309      0.0692
    125  N          0.5800  -44.2500   -5.4680 N.3   311  ASP311     -0.1239
    126  CA         1.0820  -45.2550   -4.5480 C.3   311  ASP311      0.1674
    127  C          2.5490  -45.5750   -4.7310 C.2   311  ASP311      0.2266
    128  O          3.0670  -46.4750   -4.0130 O.2   311  ASP311     -0.2867
    129  CB         0.3120  -46.5140   -4.7160 C.3   311  ASP311      0.1410
    130  CG        -1.1250  -46.3710   -4.1810 C.2   311  ASP311      0.3668
    131  OD1       -1.3400  -45.8630   -3.0720 O.co2 311  ASP311     -0.2456
    132  OD2       -1.9900  -46.8670   -4.8660 O.co2 311  ASP311     -0.2456
    133  N         -0.0480  -43.8220  -15.9640 N.3   398  TYR398     -0.1227
    134  CA        -0.3950  -43.9850  -14.5480 C.3   398  TYR398      0.1736
    135  C         -1.5040  -43.0240  -14.1480 C.2   398  TYR398      0.2595
    136  O         -2.6240  -43.3320  -14.4030 O.2   398  TYR398     -0.2718
    137  CB         0.8250  -43.9070  -13.6140 C.3   398  TYR398      0.0548
    138  CG         0.5510  -44.2620  -12.1520 C.ar  398  TYR398     -0.0200
    139  CD1        0.0330  -45.5120  -11.7880 C.ar  398  TYR398     -0.0009
    140  CD2        0.7450  -43.3590  -11.1750 C.ar  398  TYR398     -0.0009
    141  CE1       -0.2190  -45.8240  -10.4850 C.ar  398  TYR398      0.0417
    142  CE2        0.4750  -43.6460   -9.8790 C.ar  398  TYR398      0.0417
    143  CZ        -0.0140  -44.8580   -9.5240 C.ar  398  TYR398      0.1957
    144  OH        -0.1630  -45.0780   -8.2230 O.3   398  TYR398     -0.2866
    145  N         -1.2320  -41.8550  -13.6180 N.am  399  ILE399     -0.1980
    146  CA        -2.2680  -40.8710  -13.2890 C.3   399  ILE399      0.1595
    147  C         -2.0950  -39.6400  -14.1080 C.2   399  ILE399      0.2287
    148  O         -2.9970  -39.1730  -14.7310 O.2   399  ILE399     -0.2864
    149  CB        -2.2140  -40.5090  -11.7700 C.3   399  ILE399      0.0276
    150  CG1       -2.6300  -41.7730  -10.9200 C.3   399  ILE399      0.0022
    151  CG2       -3.1750  -39.3790  -11.4700 C.3   399  ILE399      0.0022
    152  CD1       -2.2670  -41.6740   -9.4260 C.3   399  ILE399      0.0001
    153  N        -10.1790  -33.9380   -2.0160 N.3   406  ARG406     -0.1245
    154  CA       -11.1520  -34.8910   -1.4280 C.3   406  ARG406      0.1563
    155  C        -11.6830  -34.3270   -0.1720 C.2   406  ARG406      0.2260
    156  O        -10.9370  -33.8390    0.6790 O.2   406  ARG406     -0.2867
    157  CB       -10.6500  -36.2760   -1.0710 C.3   406  ARG406      0.0307
    158  CG        -9.8340  -36.9520   -2.1050 C.3   406  ARG406      0.0489
    159  CD        -9.4810  -38.3850   -1.6490 C.3   406  ARG406      0.2205
    160  NE        -8.5570  -38.8810   -2.6260 N.pl3 406  ARG406     -0.0865
    161  CZ        -7.8570  -40.0340   -2.5190 C.cat 406  ARG406      0.5346
    162  NH1       -8.0560  -40.9310   -1.5240 N.pl3 406  ARG406      0.1354
    163  NH2       -6.9630  -40.2890   -3.4390 N.pl3 406  ARG406      0.1354
@<TRIPOS>BOND
     1    15    14    2
     2    14    13    1
     3   133   134    1
     4    16    13    1
     5    16    17    1
     6    13    12    1
     7    51    52    2
     8    51    50    1
     9    57    56    1
    10    55    56    1
    11    55    54    1
    12    53    50    1
    13    53    54    1
    14   148   147    2
    15    18    17    1
    16    18    19    1
    17   134   135    1
    18   134   137    1
    19   136   135    2
    20    20    19    1
    21   135   145   am
    22    50    49    1
    23   147   146    1
    24    27    25    1
    25   145   146    1
    26   137   138    1
    27    21    22    1
    28   146   149    1
    29    22    25    1
    30    22    23    1
    31    25    26    1
    32     4     3    2
    33   138   139   ar
    34   138   140   ar
    35    80    79    2
    36   139   141   ar
    37   149   151    1
    38   149   150    1
    39    23    24    2
    40    29    28    1
    41    29    30    1
    42    79    78    1
    43     3     2    1
    44   140   142   ar
    45   150   152    1
    46     5     2    1
    47     5     6    1
    48   141   143   ar
    49    48    46   am
    50    32    30   am
    51    32    33    1
    52    38    37    2
    53    30    31    2
    54     2     1    1
    55    76    74   ar
    56    78    81    1
    57    78    77    1
    58   142   143   ar
    59    72    71    2
    60    39    37   am
    61     7     6    1
    62     7     8    1
    63    37    36    1
    64   143   144    1
    65    10     9    1
    66    33    36    1
    67    33    34    1
    68    46    47    2
    69    46    45    1
    70    74    75   ar
    71    74    73    1
    72    40    34   am
    73    40    41    1
    74    71    70    1
    75     8     9    2
    76    73    70    1
    77     9    11    1
    78    45    44    1
    79    85    84    2
    80    34    35    2
    81   124   123    1
    82    82    83    1
    83    41    44    1
    84    41    42    1
    85    70    69    1
    86    84    83    1
    87   123   122    1
    88    83    86    1
    89    42    43    2
    90   102   100   ar
    91   102   104   ar
    92   122   121    1
    93   100    99   ar
    94   104   103   ar
    95   120   119    2
    96    86    87    1
    97   125   126    1
    98    88    87   ar
    99    88    90   ar
   100   119   118    1
   101   121   118    1
   102    87    89   ar
   103    90    92   ar
   104   132   130   ar
   105    68    66    1
   106   127   126    1
   107   127   128    2
   108   129   126    1
   109   129   130    1
   110    99    98    1
   111    99   101   ar
   112    89    91   ar
   113    92    93    1
   114    92    91   ar
   115    65    66    2
   116    65    64    1
   117   118   117    1
   118   103   101   ar
   119   130   131   ar
   120    98    95    1
   121    66    67    1
   122    95    94    1
   123    95    96    1
   124    64    63    1
   125   163   161    1
   126    63    62    1
   127   117   107   am
   128    97    96    2
   129    62    59    1
   130   160   161    2
   131   160   159    1
   132   161   162    1
   133   108   107    2
   134   107   106    1
   135   158   159    1
   136   158   157    1
   137   153   154    1
   138   154   157    1
   139   154   155    1
   140    59    60    1
   141    59    58    1
   142   105   106    1
   143   106   109    1
   144   109   110    1
   145    60    61    2
   146   155   156    2
   147   110   112   ar
   148   110   111   ar
   149   112   114   ar
   150   111   113   ar
   151   114   115   ar
   152   113   115   ar
   153   115   116    1
