@<TRIPOS>MOLECULE
tmp/5dl7A02.pdb
 118 116 0 0 0
SMALL
GASTEIGER

@<TRIPOS>ATOM
      1  N         -9.9050  -20.2560  -40.8810 N.3   258  TYR258     -0.1227
      2  CA       -10.4280  -19.1040  -41.6120 C.3   258  TYR258      0.1736
      3  C        -11.5800  -18.5440  -40.7420 C.2   258  TYR258      0.2595
      4  O        -12.5450  -19.2510  -40.4370 O.2   258  TYR258     -0.2718
      5  CB       -10.9810  -19.5110  -43.0020 C.3   258  TYR258      0.0548
      6  CG       -11.5090  -18.4080  -43.7610 C.ar  258  TYR258     -0.0200
      7  CD1      -10.6400  -17.4610  -44.3660 C.ar  258  TYR258     -0.0009
      8  CD2      -12.8460  -18.2260  -43.8470 C.ar  258  TYR258     -0.0009
      9  CE1      -11.1740  -16.4020  -45.1020 C.ar  258  TYR258      0.0417
     10  CE2      -13.3630  -17.1920  -44.5520 C.ar  258  TYR258      0.0417
     11  CZ       -12.5030  -16.2790  -45.1470 C.ar  258  TYR258      0.1957
     12  OH       -13.1090  -15.2880  -45.7690 O.3   258  TYR258     -0.2866
     13  N        -11.4740  -17.3020  -40.3020 N.am  259  GLN259     -0.1979
     14  CA       -12.5550  -16.5800  -39.6280 C.3   259  GLN259      0.1601
     15  C        -13.1540  -17.4930  -38.4260 C.2   259  GLN259      0.2287
     16  O        -14.4030  -17.6000  -38.2290 O.2   259  GLN259     -0.2864
     17  CB       -13.6560  -16.2730  -40.5980 C.3   259  GLN259      0.0394
     18  CG       -13.2430  -15.2640  -41.6390 C.3   259  GLN259      0.0908
     19  CD       -14.3650  -14.6360  -42.3550 C.2   259  GLN259      0.2608
     20  OE1      -15.5170  -14.9250  -42.1120 O.2   259  GLN259     -0.2717
     21  NE2      -14.0390  -13.7010  -43.2640 N.am  259  GLN259     -0.0878
     22  N        -13.2100  -20.5320  -37.9120 N.3   261  HIS261     -0.1241
     23  CA       -13.4140  -21.9100  -38.3270 C.3   261  HIS261      0.1621
     24  C        -12.1180  -22.6610  -38.5450 C.2   261  HIS261      0.2264
     25  O        -11.2350  -22.0800  -39.1380 O.2   261  HIS261     -0.2867
     26  CB       -14.2410  -22.0840  -39.6540 C.3   261  HIS261      0.0745
     27  CG       -15.5080  -21.3420  -39.6900 C.ar  261  HIS261      0.0817
     28  ND1      -16.6920  -21.8580  -39.2310 N.ar  261  HIS261     -0.2268
     29  CD2      -15.7990  -20.0770  -40.1200 C.ar  261  HIS261      0.1154
     30  CE1      -17.6410  -20.9570  -39.3580 C.ar  261  HIS261      0.1986
     31  NE2      -17.1350  -19.8400  -39.8770 N.ar  261  HIS261     -0.2212
     32  N        -11.1280  -26.4660  -40.3730 N.3   263  VAL263     -0.1245
     33  CA       -11.4600  -27.7810  -40.9360 C.3   263  VAL263      0.1561
     34  C        -10.2130  -28.5590  -41.0560 C.2   263  VAL263      0.2260
     35  O         -9.2430  -28.1070  -41.7150 O.2   263  VAL263     -0.2867
     36  CB       -12.2400  -27.7300  -42.2750 C.3   263  VAL263      0.0252
     37  CG1      -12.4680  -29.1590  -42.8210 C.3   263  VAL263      0.0019
     38  CG2      -13.5580  -27.0850  -42.0650 C.3   263  VAL263      0.0019
     39  N        -11.6810  -36.6880  -39.9480 N.3   305  ILE305     -0.1231
     40  CA       -12.0660  -35.3090  -40.3760 C.3   305  ILE305      0.1692
     41  C        -12.5770  -34.6030  -39.1250 C.2   305  ILE305      0.2592
     42  O        -13.1500  -35.2020  -38.2430 O.2   305  ILE305     -0.2718
     43  CB       -13.0760  -35.3280  -41.4610 C.3   305  ILE305      0.0266
     44  CG1      -13.3600  -33.8900  -41.9640 C.3   305  ILE305      0.0019
     45  CG2      -14.3880  -36.0340  -41.0830 C.3   305  ILE305      0.0020
     46  CD1      -14.1620  -33.8550  -43.2460 C.3   305  ILE305      0.0001
     47  N        -12.3250  -33.2900  -38.9970 N.am  306  ARG306     -0.1966
     48  CA       -12.6210  -32.5150  -37.8200 C.3   306  ARG306      0.1729
     49  C        -13.0390  -31.1650  -38.1950 C.2   306  ARG306      0.2616
     50  O        -12.5170  -30.5800  -39.1330 O.2   306  ARG306     -0.2715
     51  CB       -11.3180  -32.4150  -37.0170 C.3   306  ARG306      0.0348
     52  CG       -11.4410  -31.7230  -35.7330 C.3   306  ARG306      0.0492
     53  CD        -9.9860  -31.5340  -35.2210 C.3   306  ARG306      0.2205
     54  NE        -9.9540  -30.6040  -34.0110 N.pl3 306  ARG306     -0.0865
     55  CZ        -9.5750  -30.9630  -32.7400 C.cat 306  ARG306      0.5346
     56  NH1       -9.1290  -32.2020  -32.4440 N.pl3 306  ARG306      0.1354
     57  NH2       -9.5880  -30.0820  -31.7620 N.pl3 306  ARG306      0.1354
     58  N        -13.9960  -30.6540  -37.4600 N.am  307  TYR307     -0.1974
     59  CA       -14.5300  -29.2870  -37.6060 C.3   307  TYR307      0.1639
     60  C        -14.5800  -28.6270  -36.2760 C.2   307  TYR307      0.2290
     61  O        -15.0150  -29.1780  -35.3200 O.2   307  TYR307     -0.2864
     62  CB       -15.9440  -29.2710  -38.2290 C.3   307  TYR307      0.0560
     63  CG       -16.4810  -27.8570  -38.2390 C.ar  307  TYR307     -0.0198
     64  CD1      -15.9970  -26.8650  -39.0610 C.ar  307  TYR307     -0.0009
     65  CD2      -17.3950  -27.4410  -37.2980 C.ar  307  TYR307     -0.0009
     66  CE1      -16.4730  -25.5330  -39.0030 C.ar  307  TYR307      0.0417
     67  CE2      -17.8420  -26.1590  -37.2280 C.ar  307  TYR307      0.0417
     68  CZ       -17.3930  -25.1980  -38.0950 C.ar  307  TYR307      0.1957
     69  OH       -17.9140  -23.9100  -37.9060 O.3   307  TYR307     -0.2866
     70  N        -16.4060  -31.0640  -33.4540 N.3   328  THR328     -0.1203
     71  CA       -16.8680  -32.4670  -33.8670 C.3   328  THR328      0.1994
     72  C        -15.8470  -33.0950  -34.7970 C.2   328  THR328      0.2618
     73  O        -15.2020  -32.4700  -35.5740 O.2   328  THR328     -0.2717
     74  CB       -18.2950  -32.4920  -34.5160 C.3   328  THR328      0.1784
     75  OG1      -18.7960  -33.7860  -34.8000 O.3   328  THR328     -0.2211
     76  CG2      -18.3830  -31.6530  -35.8210 C.3   328  THR328      0.0376
     77  N        -15.7150  -34.4260  -34.7140 N.am  329  ARG329     -0.1965
     78  CA       -14.7640  -35.1630  -35.4540 C.3   329  ARG329      0.1729
     79  C        -15.1540  -36.5790  -35.6290 C.2   329  ARG329      0.2616
     80  O        -16.0000  -37.0570  -34.8050 O.2   329  ARG329     -0.2715
     81  CB       -13.4350  -35.0790  -34.7510 C.3   329  ARG329      0.0348
     82  CG       -13.3820  -35.6450  -33.3710 C.3   329  ARG329      0.0492
     83  CD       -11.9320  -35.4740  -32.8010 C.3   329  ARG329      0.2205
     84  NE       -11.8940  -35.9310  -31.4110 N.pl3 329  ARG329     -0.0865
     85  CZ       -10.7860  -36.0570  -30.7240 C.cat 329  ARG329      0.5346
     86  NH1       -9.5590  -35.6650  -31.1880 N.pl3 329  ARG329      0.1354
     87  NH2      -10.9030  -36.4470  -29.4310 N.pl3 329  ARG329      0.1354
     88  N        -14.7390  -37.2110  -36.6880 N.am  330  TYR330     -0.1974
     89  CA       -15.0570  -38.5960  -36.9610 C.3   330  TYR330      0.1639
     90  C        -13.6890  -39.2520  -37.3140 C.2   330  TYR330      0.2290
     91  O        -12.9440  -38.7070  -38.1280 O.2   330  TYR330     -0.2864
     92  CB       -15.9740  -38.7030  -38.1160 C.3   330  TYR330      0.0560
     93  CG       -16.2190  -40.1590  -38.5720 C.ar  330  TYR330     -0.0198
     94  CD1      -17.0470  -41.0580  -37.8290 C.ar  330  TYR330     -0.0009
     95  CD2      -15.6370  -40.6750  -39.7620 C.ar  330  TYR330     -0.0009
     96  CE1      -17.2560  -42.3770  -38.2610 C.ar  330  TYR330      0.0417
     97  CE2      -15.8750  -41.9880  -40.1870 C.ar  330  TYR330      0.0417
     98  CZ       -16.6330  -42.8300  -39.4380 C.ar  330  TYR330      0.1957
     99  OH       -16.8570  -44.1050  -39.8540 O.3   330  TYR330     -0.2866
    100  N        -17.5910  -41.2020  -33.7200 N.3   351  LEU351     -0.1245
    101  CA       -18.1570  -39.8340  -33.9720 C.3   351  LEU351      0.1561
    102  C        -18.1730  -39.1220  -32.6320 C.2   351  LEU351      0.2260
    103  O        -18.8330  -39.5880  -31.7260 O.2   351  LEU351     -0.2867
    104  CB       -19.5490  -39.8470  -34.6390 C.3   351  LEU351      0.0270
    105  CG       -20.1710  -38.4540  -34.9120 C.3   351  LEU351      0.0019
    106  CD1      -19.2190  -37.6770  -35.9330 C.3   351  LEU351      0.0001
    107  CD2      -21.5290  -38.7590  -35.4820 C.3   351  LEU351      0.0001
    108  N        -18.4350  -35.2850  -30.3780 N.3   353  PHE353     -0.1241
    109  CA       -18.8760  -33.8860  -30.1410 C.3   353  PHE353      0.1605
    110  C        -18.2840  -33.3420  -28.8710 C.2   353  PHE353      0.2264
    111  O        -18.2030  -34.0610  -27.9170 O.2   353  PHE353     -0.2867
    112  CB       -20.3880  -33.7550  -30.0370 C.3   353  PHE353      0.0534
    113  CG       -21.0490  -34.1720  -31.2520 C.ar  353  PHE353     -0.0203
    114  CD1      -21.1790  -33.2480  -32.2920 C.ar  353  PHE353     -0.0042
    115  CD2      -21.4990  -35.4890  -31.4590 C.ar  353  PHE353     -0.0042
    116  CE1      -21.7850  -33.5500  -33.5400 C.ar  353  PHE353     -0.0003
    117  CE2      -22.1430  -35.8260  -32.6910 C.ar  353  PHE353     -0.0003
    118  CZ       -22.2300  -34.8590  -33.7420 C.ar  353  PHE353     -0.0000
@<TRIPOS>BOND
     1    12    11    1
     2    11     9   ar
     3    11    10   ar
     4     9     7   ar
     5    10     8   ar
     6     7     6   ar
     7     8     6   ar
     8     6     5    1
     9    21    19   am
    10    46    44    1
    11     5     2    1
    12    37    36    1
    13    19    20    2
    14    19    18    1
    15    36    38    1
    16    36    33    1
    17    44    43    1
    18    35    34    2
    19    18    17    1
    20     2     1    1
    21     2     3    1
    22    43    45    1
    23    43    40    1
    24    34    33    1
    25    33    32    1
    26     3     4    2
    27     3    13   am
    28    17    14    1
    29    40    39    1
    30    40    41    1
    31    13    14    1
    32    97    95   ar
    33    97    98   ar
    34    29    31   ar
    35    29    27   ar
    36    31    30   ar
    37    99    98    1
    38    95    93   ar
    39    27    26    1
    40    27    28   ar
    41    26    23    1
    42    14    15    1
    43    98    96   ar
    44    30    28   ar
    45    25    24    2
    46    50    49    2
    47    41    47   am
    48    41    42    2
    49    64    66   ar
    50    64    63   ar
    51    66    68   ar
    52    47    48    1
    53    93    92    1
    54    93    94   ar
    55    24    23    1
    56    15    16    2
    57    23    22    1
    58    96    94   ar
    59    63    62    1
    60    63    65   ar
    61    62    59    1
    62    49    48    1
    63    49    58   am
    64    91    90    2
    65    92    89    1
    66    68    69    1
    67    68    67   ar
    68    48    51    1
    69    59    58    1
    70    59    60    1
    71    90    89    1
    72    65    67   ar
    73    51    52    1
    74    89    88    1
    75    88    79   am
    76    60    61    2
    77   106   105    1
    78    76    74    1
    79    52    53    1
    80    79    78    1
    81    79    80    2
    82    73    72    2
    83   107   105    1
    84    78    81    1
    85    78    77    1
    86    53    54    1
    87   105   104    1
    88    75    74    1
    89    72    77   am
    90    72    71    1
    91    81    82    1
    92   104   101    1
    93    74    71    1
    94    54    55    2
    95   101   100    1
    96   101   102    1
    97    71    70    1
    98   118   116   ar
    99   118   117   ar
   100   116   114   ar
   101    82    83    1
   102    83    84    1
   103    55    56    1
   104    55    57    1
   105   117   115   ar
   106   102   103    2
   107   114   113   ar
   108   115   113   ar
   109    84    85    2
   110   113   112    1
   111    86    85    1
   112    85    87    1
   113   108   109    1
   114   109   112    1
   115   109   110    1
   116   110   111    2
