@<TRIPOS>MOLECULE
tmp/5dl7A01.pdb
 104 101 0 0 0
SMALL
GASTEIGER

@<TRIPOS>ATOM
      1  N        -13.9960  -30.6540  -37.4600 N.3   307  TYR307     -0.1241
      2  CA       -14.5300  -29.2870  -37.6060 C.3   307  TYR307      0.1605
      3  C        -14.5800  -28.6270  -36.2760 C.2   307  TYR307      0.2264
      4  O        -15.0150  -29.1780  -35.3200 O.2   307  TYR307     -0.2867
      5  CB       -15.9440  -29.2710  -38.2290 C.3   307  TYR307      0.0534
      6  CG       -16.4810  -27.8570  -38.2390 C.ar  307  TYR307     -0.0201
      7  CD1      -15.9970  -26.8650  -39.0610 C.ar  307  TYR307     -0.0009
      8  CD2      -17.3950  -27.4410  -37.2980 C.ar  307  TYR307     -0.0009
      9  CE1      -16.4730  -25.5330  -39.0030 C.ar  307  TYR307      0.0417
     10  CE2      -17.8420  -26.1590  -37.2280 C.ar  307  TYR307      0.0417
     11  CZ       -17.3930  -25.1980  -38.0950 C.ar  307  TYR307      0.1957
     12  OH       -17.9140  -23.9100  -37.9060 O.3   307  TYR307     -0.2866
     13  N        -15.1230  -24.5850  -34.2900 N.3   309  TYR309     -0.1241
     14  CA       -15.4420  -23.0990  -34.2960 C.3   309  TYR309      0.1605
     15  C        -15.1670  -22.5230  -32.9450 C.2   309  TYR309      0.2264
     16  O        -15.4850  -23.0740  -31.8530 O.2   309  TYR309     -0.2867
     17  CB       -16.9430  -22.8750  -34.7070 C.3   309  TYR309      0.0534
     18  CG       -17.1880  -21.4010  -34.9650 C.ar  309  TYR309     -0.0201
     19  CD1      -16.6920  -20.8420  -36.1410 C.ar  309  TYR309     -0.0009
     20  CD2      -17.9460  -20.6450  -34.1130 C.ar  309  TYR309     -0.0009
     21  CE1      -16.9110  -19.4830  -36.3930 C.ar  309  TYR309      0.0417
     22  CE2      -18.2410  -19.2940  -34.3710 C.ar  309  TYR309      0.0417
     23  CZ       -17.6620  -18.7460  -35.5120 C.ar  309  TYR309      0.1957
     24  OH       -17.8660  -17.4030  -35.9030 O.3   309  TYR309     -0.2866
     25  N        -16.0530  -19.2910  -30.9140 N.3   311  PHE311     -0.1241
     26  CA       -17.1440  -18.3090  -30.8770 C.3   311  PHE311      0.1605
     27  C        -16.7870  -16.9110  -30.2970 C.2   311  PHE311      0.2264
     28  O        -17.6740  -16.0740  -29.9650 O.2   311  PHE311     -0.2867
     29  CB       -18.3200  -18.8590  -30.0410 C.3   311  PHE311      0.0534
     30  CG       -19.1290  -19.9330  -30.6370 C.ar  311  PHE311     -0.0203
     31  CD1      -18.7320  -21.2540  -30.5070 C.ar  311  PHE311     -0.0042
     32  CD2      -20.2410  -19.6630  -31.4720 C.ar  311  PHE311     -0.0042
     33  CE1      -19.4760  -22.2700  -31.0480 C.ar  311  PHE311     -0.0003
     34  CE2      -20.9980  -20.7850  -32.0240 C.ar  311  PHE311     -0.0003
     35  CZ       -20.6220  -22.0360  -31.7910 C.ar  311  PHE311     -0.0000
     36  N        -16.1090  -14.1100  -31.5250 N.3   313  ASN313     -0.1225
     37  CA       -16.7230  -12.9470  -32.1420 C.3   313  ASN313      0.1785
     38  C        -18.1660  -13.1060  -32.3990 C.2   313  ASN313      0.2597
     39  O        -18.7810  -12.2690  -33.1080 O.2   313  ASN313     -0.2718
     40  CB       -16.0850  -12.6270  -33.4750 C.3   313  ASN313      0.1169
     41  CG       -14.6430  -12.2310  -33.3370 C.2   313  ASN313      0.2627
     42  OD1      -14.2500  -11.4140  -32.4810 O.2   313  ASN313     -0.2716
     43  ND2      -13.8220  -12.8090  -34.1560 N.am  313  ASN313     -0.0877
     44  N        -18.8250  -14.0550  -31.7240 N.am  314  ALA314     -0.1966
     45  CA       -20.2080  -14.4090  -32.0150 C.3   314  ALA314      0.1728
     46  C        -21.0660  -13.8860  -30.8380 C.2   314  ALA314      0.2616
     47  O        -20.5010  -13.6330  -29.7280 O.2   314  ALA314     -0.2715
     48  CB       -20.3530  -15.8850  -32.2120 C.3   314  ALA314      0.0334
     49  N        -22.4130  -13.7920  -31.0070 N.am  315  ARG315     -0.1963
     50  CA       -23.2960  -13.2880  -29.9530 C.3   315  ARG315      0.1729
     51  C        -24.6750  -13.9450  -30.2130 C.2   315  ARG315      0.2616
     52  O        -24.9400  -14.4680  -31.3470 O.2   315  ARG315     -0.2715
     53  CB       -23.3610  -11.8400  -29.8860 C.3   315  ARG315      0.0348
     54  CG       -23.9100  -11.3300  -31.1730 C.3   315  ARG315      0.0492
     55  CD       -23.6080   -9.8710  -31.1020 C.3   315  ARG315      0.2205
     56  NE       -24.1870   -9.2560  -32.1670 N.pl3 315  ARG315     -0.0865
     57  CZ       -25.3140   -8.5800  -32.0560 C.cat 315  ARG315      0.5346
     58  NH1      -26.0280   -8.7230  -30.9260 N.pl3 315  ARG315      0.1354
     59  NH2      -25.7960   -7.9130  -33.1390 N.pl3 315  ARG315      0.1354
     60  N        -25.4930  -14.0260  -29.1890 N.am  316  ILE316     -0.1977
     61  CA       -26.9720  -14.3680  -29.3310 C.3   316  ILE316      0.1596
     62  C        -27.6360  -13.1600  -28.6790 C.2   316  ILE316      0.2287
     63  O        -27.6190  -13.0670  -27.4080 O.2   316  ILE316     -0.2864
     64  CB       -27.3220  -15.6820  -28.7370 C.3   316  ILE316      0.0276
     65  CG1      -26.6900  -16.7910  -29.5960 C.3   316  ILE316      0.0022
     66  CG2      -28.8590  -15.8300  -28.6380 C.3   316  ILE316      0.0022
     67  CD1      -26.7980  -18.1860  -28.9990 C.3   316  ILE316      0.0001
     68  N        -20.8260  -14.8090  -26.9130 N.3   321  LEU321     -0.1245
     69  CA       -20.4520  -16.1450  -26.8520 C.3   321  LEU321      0.1561
     70  C        -18.9450  -16.3470  -26.7250 C.2   321  LEU321      0.2260
     71  O        -18.4420  -17.4720  -26.8500 O.2   321  LEU321     -0.2867
     72  CB       -20.9990  -17.0030  -27.9980 C.3   321  LEU321      0.0270
     73  CG       -22.5650  -16.9490  -28.1380 C.3   321  LEU321      0.0019
     74  CD1      -22.9550  -17.7540  -29.3580 C.3   321  LEU321      0.0001
     75  CD2      -23.1700  -17.6870  -26.9520 C.3   321  LEU321      0.0001
     76  N        -16.7220  -25.1330  -30.0490 N.3   326  PHE326     -0.1241
     77  CA       -17.3630  -26.3730  -30.5110 C.3   326  PHE326      0.1605
     78  C        -16.3740  -27.1170  -31.3640 C.2   326  PHE326      0.2264
     79  O        -15.6970  -26.5580  -32.1930 O.2   326  PHE326     -0.2867
     80  CB       -18.6230  -26.0430  -31.3340 C.3   326  PHE326      0.0534
     81  CG       -19.2190  -27.2240  -32.0270 C.ar  326  PHE326     -0.0203
     82  CD1      -19.9720  -28.1330  -31.3100 C.ar  326  PHE326     -0.0042
     83  CD2      -19.0360  -27.4220  -33.3390 C.ar  326  PHE326     -0.0042
     84  CE1      -20.5720  -29.2630  -31.9250 C.ar  326  PHE326     -0.0003
     85  CE2      -19.6410  -28.5150  -33.9550 C.ar  326  PHE326     -0.0003
     86  CZ       -20.3910  -29.4080  -33.2320 C.ar  326  PHE326     -0.0000
     87  N        -16.4060  -31.0640  -33.4540 N.3   328  THR328     -0.1218
     88  CA       -16.8680  -32.4670  -33.8670 C.3   328  THR328      0.1862
     89  C        -15.8470  -33.0950  -34.7970 C.2   328  THR328      0.2287
     90  O        -15.2020  -32.4700  -35.5740 O.2   328  THR328     -0.2866
     91  CB       -18.2950  -32.4920  -34.5160 C.3   328  THR328      0.1770
     92  OG1      -18.7960  -33.7860  -34.8000 O.3   328  THR328     -0.2211
     93  CG2      -18.3830  -31.6530  -35.8210 C.3   328  THR328      0.0375
     94  N        -18.4350  -35.2850  -30.3780 N.3   353  PHE353     -0.1241
     95  CA       -18.8760  -33.8860  -30.1410 C.3   353  PHE353      0.1605
     96  C        -18.2840  -33.3420  -28.8710 C.2   353  PHE353      0.2264
     97  O        -18.2030  -34.0610  -27.9170 O.2   353  PHE353     -0.2867
     98  CB       -20.3880  -33.7550  -30.0370 C.3   353  PHE353      0.0534
     99  CG       -21.0490  -34.1720  -31.2520 C.ar  353  PHE353     -0.0203
    100  CD1      -21.1790  -33.2480  -32.2920 C.ar  353  PHE353     -0.0042
    101  CD2      -21.4990  -35.4890  -31.4590 C.ar  353  PHE353     -0.0042
    102  CE1      -21.7850  -33.5500  -33.5400 C.ar  353  PHE353     -0.0003
    103  CE2      -22.1430  -35.8260  -32.6910 C.ar  353  PHE353     -0.0003
    104  CZ       -22.2300  -34.8590  -33.7420 C.ar  353  PHE353     -0.0000
@<TRIPOS>BOND
     1     7     9   ar
     2     7     6   ar
     3     9    11   ar
     4     6     5    1
     5     6     8   ar
     6     5     2    1
     7    11    12    1
     8    11    10   ar
     9     2     1    1
    10     2     3    1
    11     8    10   ar
    12    21    19   ar
    13    21    23   ar
    14     3     4    2
    15    19    18   ar
    16    24    23    1
    17    93    91    1
    18    90    89    2
    19    23    22   ar
    20    18    17    1
    21    18    20   ar
    22    92    91    1
    23    89    88    1
    24    17    14    1
    25    91    88    1
    26    22    20   ar
    27    14    13    1
    28    14    15    1
    29    43    41   am
    30    85    83   ar
    31    85    86   ar
    32    88    87    1
    33   104   102   ar
    34   104   103   ar
    35   102   100   ar
    36    40    41    1
    37    40    37    1
    38    83    81   ar
    39    41    42    2
    40    86    84   ar
    41    59    57    1
    42    39    38    2
    43    15    16    2
    44   103   101   ar
    45    38    37    1
    46    38    44   am
    47   100    99   ar
    48    48    45    1
    49    79    78    2
    50    56    57    2
    51    56    55    1
    52    37    36    1
    53    57    58    1
    54    81    80    1
    55    81    82   ar
    56    34    35   ar
    57    34    32   ar
    58    45    44    1
    59    45    46    1
    60    84    82   ar
    61    35    33   ar
    62    32    30   ar
    63   101    99   ar
    64    78    77    1
    65    52    51    2
    66    80    77    1
    67    99    98    1
    68    54    55    1
    69    54    53    1
    70    33    31   ar
    71    49    46   am
    72    49    50    1
    73    25    26    1
    74    26    27    1
    75    26    29    1
    76    46    47    2
    77    30    31   ar
    78    30    29    1
    79    77    76    1
    80    94    95    1
    81    27    28    2
    82    51    50    1
    83    51    60   am
    84    95    98    1
    85    95    96    1
    86    50    53    1
    87    65    67    1
    88    65    64    1
    89    74    73    1
    90    61    60    1
    91    61    64    1
    92    61    62    1
    93    96    97    2
    94    64    66    1
    95    62    63    2
    96    73    72    1
    97    73    75    1
    98    72    69    1
    99    68    69    1
   100    69    70    1
   101    71    70    2
