@<TRIPOS>MOLECULE
tmp/5dl7A03.pdb
 81 77 0 0 0
SMALL
GASTEIGER

@<TRIPOS>ATOM
      1  N          6.1830  -33.4420   -4.5740 N.3    94  ILE94      -0.1231
      2  CA         7.1140  -32.3300   -4.2850 C.3    94  ILE94       0.1692
      3  C          8.3310  -32.4450   -5.2250 C.2    94  ILE94       0.2593
      4  O          8.7760  -33.5490   -5.4970 O.2    94  ILE94      -0.2718
      5  CB         7.7200  -32.5140   -2.9180 C.3    94  ILE94       0.0266
      6  CG1        6.6190  -32.8500   -1.9070 C.3    94  ILE94       0.0019
      7  CG2        8.5060  -31.3210   -2.5560 C.3    94  ILE94       0.0020
      8  CD1        5.9920  -31.6440   -1.2850 C.3    94  ILE94       0.0001
      9  N          8.9290  -31.3080   -5.6310 N.am   95  THR95      -0.1939
     10  CA        10.0690  -31.3220   -6.5460 C.3    95  THR95       0.2028
     11  C         11.0510  -30.2880   -6.0830 C.2    95  THR95       0.2642
     12  O         10.6570  -29.1880   -5.6660 O.2    95  THR95      -0.2714
     13  CB         9.6860  -30.8800   -7.9810 C.3    95  THR95       0.1808
     14  OG1        8.4370  -31.3950   -8.3700 O.3    95  THR95      -0.2208
     15  CG2       10.7440  -31.3290   -9.0070 C.3    95  THR95       0.0379
     16  N         12.3090  -30.6100   -5.9520 N.am   96  GLY96      -0.1954
     17  CA        13.2760  -29.6270   -5.6600 C.3    96  GLY96       0.1869
     18  C         13.9130  -29.2790   -7.0400 C.2    96  GLY96       0.2309
     19  O         14.0070  -30.1000   -7.9250 O.2    96  GLY96      -0.2863
     20  N         14.3270  -32.6270   -9.2180 N.3   107  VAL107     -0.1231
     21  CA        14.4580  -33.9180   -8.6300 C.3   107  VAL107      0.1692
     22  C         13.1890  -34.1340   -7.7990 C.2   107  VAL107      0.2593
     23  O         12.8590  -33.2870   -6.9400 O.2   107  VAL107     -0.2718
     24  CB        15.7110  -33.9710   -7.7300 C.3   107  VAL107      0.0266
     25  CG1       15.7000  -35.3590   -7.0470 C.3   107  VAL107      0.0020
     26  CG2       16.9700  -33.7690   -8.5680 C.3   107  VAL107      0.0020
     27  N         12.5290  -35.2310   -8.0250 N.am  108  GLY108     -0.1942
     28  CA        11.3290  -35.5830   -7.2370 C.3   108  GLY108      0.2014
     29  C         10.2100  -35.9710   -8.0790 C.2   108  GLY108      0.2635
     30  O         10.3200  -36.7840   -9.0000 O.2   108  GLY108     -0.2714
     31  N          9.0400  -35.3990   -7.7810 N.am  109  ASP109     -0.2024
     32  CA         7.8160  -35.7030   -8.4410 C.3   109  ASP109      0.1395
     33  C          7.7370  -34.8210   -9.7340 C.3   109  ASP109      0.2041
     34  O          8.1380  -33.6740   -9.5960 O.3   109  ASP109     -0.2185
     35  CB         6.6270  -35.4310   -7.5790 C.3   109  ASP109      0.1383
     36  CG         6.5150  -36.6100   -6.2470 C.2   109  ASP109      0.3667
     37  OD1        6.2130  -37.9590   -6.4840 O.co2 109  ASP109     -0.2456
     38  OD2        6.8060  -36.1600   -5.0580 O.co2 109  ASP109     -0.2456
     39  N          8.4710  -40.2400  -10.6580 N.3   130  ARG130     -0.1231
     40  CA         9.4920  -39.8520   -9.7470 C.3   130  ARG130      0.1694
     41  C         10.8220  -40.0830  -10.3270 C.2   130  ARG130      0.2593
     42  O         11.0160  -41.1010  -10.9200 O.2   130  ARG130     -0.2718
     43  CB         9.4060  -40.7490   -8.4520 C.3   130  ARG130      0.0321
     44  CG         9.3700  -39.9080   -7.3160 C.3   130  ARG130      0.0489
     45  CD         8.9980  -40.7360   -6.0240 C.3   130  ARG130      0.2205
     46  NE         7.8650  -40.1080   -5.3360 N.pl3 130  ARG130     -0.0865
     47  CZ         7.3940  -40.6280   -4.1920 C.cat 130  ARG130      0.5346
     48  NH1        7.8450  -41.8380   -3.8250 N.pl3 130  ARG130      0.1354
     49  NH2        6.4340  -40.0170   -3.5300 N.pl3 130  ARG130      0.1354
     50  N         11.6460  -39.0460  -10.3160 N.am  131  GLY131     -0.1942
     51  CA        13.0200  -39.1250  -10.8770 C.3   131  GLY131      0.2014
     52  C         13.6490  -37.7780  -10.9870 C.2   131  GLY131      0.2638
     53  O         13.4900  -36.8960  -10.1020 O.2   131  GLY131     -0.2714
     54  N         14.3650  -37.6000  -12.1180 N.am  132  ILE132     -0.1977
     55  CA        15.1650  -36.4000  -12.3900 C.3   132  ILE132      0.1596
     56  C         14.7820  -35.9620  -13.8180 C.2   132  ILE132      0.2287
     57  O         14.5030  -36.7200  -14.7620 O.2   132  ILE132     -0.2864
     58  CB        16.6260  -36.7600  -12.3610 C.3   132  ILE132      0.0276
     59  CG1       16.9830  -37.1550  -10.9100 C.3   132  ILE132      0.0022
     60  CG2       17.4400  -35.5760  -12.7770 C.3   132  ILE132      0.0022
     61  CD1       18.1850  -38.1060  -10.9810 C.3   132  ILE132      0.0001
     62  N         14.9070  -39.1280  -16.3470 N.3   148  TYR148     -0.1241
     63  CA        15.2730  -40.4920  -15.8720 C.3   148  TYR148      0.1605
     64  C         14.3350  -40.7630  -14.6770 C.2   148  TYR148      0.2264
     65  O         14.3980  -40.0340  -13.6980 O.2   148  TYR148     -0.2867
     66  CB        16.7400  -40.5010  -15.4320 C.3   148  TYR148      0.0534
     67  CG        17.0820  -41.8510  -14.8090 C.ar  148  TYR148     -0.0201
     68  CD1       17.1820  -43.0090  -15.5690 C.ar  148  TYR148     -0.0009
     69  CD2       16.7160  -42.0300  -13.4060 C.ar  148  TYR148     -0.0009
     70  CE1       17.4590  -44.2090  -14.9180 C.ar  148  TYR148      0.0417
     71  CE2       16.7330  -43.2630  -12.6960 C.ar  148  TYR148      0.0417
     72  CZ        17.1310  -44.3650  -13.4170 C.ar  148  TYR148      0.1957
     73  OH        17.2040  -45.4920  -12.4950 O.3   148  TYR148     -0.2866
     74  N         11.9980  -43.7000  -12.2740 N.3   150  ASP150     -0.1295
     75  CA        11.9230  -45.1180  -11.9020 C.3   150  ASP150      0.1359
     76  C         10.5980  -45.4880  -11.2590 C.3   150  ASP150      0.2015
     77  O         10.5530  -46.5830  -10.8430 O.3   150  ASP150     -0.2188
     78  CB        13.0580  -45.5010  -10.9590 C.3   150  ASP150      0.1357
     79  CG        13.1040  -44.7160   -9.6810 C.2   150  ASP150      0.3664
     80  OD1       12.3230  -43.7940   -9.3820 O.co2 150  ASP150     -0.2456
     81  OD2       14.1710  -44.8990   -9.0190 O.co2 150  ASP150     -0.2456
@<TRIPOS>BOND
     1    62    63    1
     2    63    66    1
     3    63    64    1
     4    68    70   ar
     5    68    67   ar
     6    66    67    1
     7    70    72   ar
     8    67    69   ar
     9    57    56    2
    10    64    65    2
    11    56    55    1
    12    72    71   ar
    13    72    73    1
    14    69    71   ar
    15    60    58    1
    16    55    58    1
    17    55    54    1
    18    58    59    1
    19    74    75    1
    20    54    52   am
    21    75    76    1
    22    75    78    1
    23    76    77    1
    24    52    51    1
    25    52    53    2
    26    61    59    1
    27    78    79    1
    28    42    41    2
    29    51    50    1
    30    39    40    1
    31    41    50   am
    32    41    40    1
    33    40    43    1
    34    33    34    1
    35    33    32    1
    36    79    80   ar
    37    79    81   ar
    38    20    21    1
    39    15    13    1
    40    30    29    2
    41    21    22    1
    42    21    24    1
    43    26    24    1
    44    43    44    1
    45    32    31    1
    46    32    35    1
    47    14    13    1
    48    29    31   am
    49    29    28    1
    50    27    22   am
    51    27    28    1
    52    13    10    1
    53    19    18    2
    54    22    23    2
    55    24    25    1
    56    35    36    1
    57    44    45    1
    58    18    17    1
    59    10    11    1
    60    10     9    1
    61    37    36   ar
    62    36    38   ar
    63    11    16   am
    64    11    12    2
    65    45    46    1
    66    16    17    1
    67     9     3   am
    68     4     3    2
    69    46    47    2
    70     3     2    1
    71     1     2    1
    72     2     5    1
    73    47    48    1
    74    47    49    1
    75     5     7    1
    76     5     6    1
    77     6     8    1
