@<TRIPOS>MOLECULE
tmp/5dl7A00.pdb
 125 121 0 0 0
SMALL
GASTEIGER

@<TRIPOS>ATOM
      1  N         -9.9050  -20.2560  -40.8810 N.3   258  TYR258     -0.1227
      2  CA       -10.4280  -19.1040  -41.6120 C.3   258  TYR258      0.1736
      3  C        -11.5800  -18.5440  -40.7420 C.2   258  TYR258      0.2595
      4  O        -12.5450  -19.2510  -40.4370 O.2   258  TYR258     -0.2718
      5  CB       -10.9810  -19.5110  -43.0020 C.3   258  TYR258      0.0548
      6  CG       -11.5090  -18.4080  -43.7610 C.ar  258  TYR258     -0.0200
      7  CD1      -10.6400  -17.4610  -44.3660 C.ar  258  TYR258     -0.0009
      8  CD2      -12.8460  -18.2260  -43.8470 C.ar  258  TYR258     -0.0009
      9  CE1      -11.1740  -16.4020  -45.1020 C.ar  258  TYR258      0.0417
     10  CE2      -13.3630  -17.1920  -44.5520 C.ar  258  TYR258      0.0417
     11  CZ       -12.5030  -16.2790  -45.1470 C.ar  258  TYR258      0.1957
     12  OH       -13.1090  -15.2880  -45.7690 O.3   258  TYR258     -0.2866
     13  N        -11.4740  -17.3020  -40.3020 N.am  259  GLN259     -0.1965
     14  CA       -12.5550  -16.5800  -39.6280 C.3   259  GLN259      0.1733
     15  C        -13.1540  -17.4930  -38.4260 C.2   259  GLN259      0.2616
     16  O        -14.4030  -17.6000  -38.2290 O.2   259  GLN259     -0.2715
     17  CB       -13.6560  -16.2730  -40.5980 C.3   259  GLN259      0.0408
     18  CG       -13.2430  -15.2640  -41.6390 C.3   259  GLN259      0.0908
     19  CD       -14.3650  -14.6360  -42.3550 C.2   259  GLN259      0.2608
     20  OE1      -15.5170  -14.9250  -42.1120 O.2   259  GLN259     -0.2717
     21  NE2      -14.0390  -13.7010  -43.2640 N.am  259  GLN259     -0.0878
     22  N        -12.2770  -18.0320  -37.6670 N.am  260  ASN260     -0.1958
     23  CA       -12.5290  -18.7720  -36.3900 C.3   260  ASN260      0.1819
     24  C        -13.1160  -20.1630  -36.6370 C.2   260  ASN260      0.2621
     25  O        -13.2740  -20.9150  -35.7200 O.2   260  ASN260     -0.2715
     26  CB       -13.4800  -17.9060  -35.6130 C.3   260  ASN260      0.1195
     27  CG       -12.7480  -16.6730  -35.0560 C.2   260  ASN260      0.2630
     28  OD1      -11.6400  -16.8110  -34.6590 O.2   260  ASN260     -0.2716
     29  ND2      -13.4280  -15.7300  -34.7980 N.am  260  ASN260     -0.0877
     30  N        -13.2100  -20.5320  -37.9120 N.am  261  HIS261     -0.1973
     31  CA       -13.4140  -21.9100  -38.3270 C.3   261  HIS261      0.1656
     32  C        -12.1180  -22.6610  -38.5450 C.2   261  HIS261      0.2291
     33  O        -11.2350  -22.0800  -39.1380 O.2   261  HIS261     -0.2864
     34  CB       -14.2410  -22.0840  -39.6540 C.3   261  HIS261      0.0771
     35  CG       -15.5080  -21.3420  -39.6900 C.ar  261  HIS261      0.0820
     36  ND1      -16.6920  -21.8580  -39.2310 N.ar  261  HIS261     -0.2267
     37  CD2      -15.7990  -20.0770  -40.1200 C.ar  261  HIS261      0.1154
     38  CE1      -17.6410  -20.9570  -39.3580 C.ar  261  HIS261      0.1986
     39  NE2      -17.1350  -19.8400  -39.8770 N.ar  261  HIS261     -0.2212
     40  N        -13.9960  -30.6540  -37.4600 N.3   307  TYR307     -0.1241
     41  CA       -14.5300  -29.2870  -37.6060 C.3   307  TYR307      0.1605
     42  C        -14.5800  -28.6270  -36.2760 C.2   307  TYR307      0.2264
     43  O        -15.0150  -29.1780  -35.3200 O.2   307  TYR307     -0.2867
     44  CB       -15.9440  -29.2710  -38.2290 C.3   307  TYR307      0.0534
     45  CG       -16.4810  -27.8570  -38.2390 C.ar  307  TYR307     -0.0201
     46  CD1      -15.9970  -26.8650  -39.0610 C.ar  307  TYR307     -0.0009
     47  CD2      -17.3950  -27.4410  -37.2980 C.ar  307  TYR307     -0.0009
     48  CE1      -16.4730  -25.5330  -39.0030 C.ar  307  TYR307      0.0417
     49  CE2      -17.8420  -26.1590  -37.2280 C.ar  307  TYR307      0.0417
     50  CZ       -17.3930  -25.1980  -38.0950 C.ar  307  TYR307      0.1957
     51  OH       -17.9140  -23.9100  -37.9060 O.3   307  TYR307     -0.2866
     52  N        -15.1230  -24.5850  -34.2900 N.3   309  TYR309     -0.1241
     53  CA       -15.4420  -23.0990  -34.2960 C.3   309  TYR309      0.1605
     54  C        -15.1670  -22.5230  -32.9450 C.2   309  TYR309      0.2264
     55  O        -15.4850  -23.0740  -31.8530 O.2   309  TYR309     -0.2867
     56  CB       -16.9430  -22.8750  -34.7070 C.3   309  TYR309      0.0534
     57  CG       -17.1880  -21.4010  -34.9650 C.ar  309  TYR309     -0.0201
     58  CD1      -16.6920  -20.8420  -36.1410 C.ar  309  TYR309     -0.0009
     59  CD2      -17.9460  -20.6450  -34.1130 C.ar  309  TYR309     -0.0009
     60  CE1      -16.9110  -19.4830  -36.3930 C.ar  309  TYR309      0.0417
     61  CE2      -18.2410  -19.2940  -34.3710 C.ar  309  TYR309      0.0417
     62  CZ       -17.6620  -18.7460  -35.5120 C.ar  309  TYR309      0.1957
     63  OH       -17.8660  -17.4030  -35.9030 O.3   309  TYR309     -0.2866
     64  N        -16.0530  -19.2910  -30.9140 N.3   311  PHE311     -0.1241
     65  CA       -17.1440  -18.3090  -30.8770 C.3   311  PHE311      0.1605
     66  C        -16.7870  -16.9110  -30.2970 C.2   311  PHE311      0.2264
     67  O        -17.6740  -16.0740  -29.9650 O.2   311  PHE311     -0.2867
     68  CB       -18.3200  -18.8590  -30.0410 C.3   311  PHE311      0.0534
     69  CG       -19.1290  -19.9330  -30.6370 C.ar  311  PHE311     -0.0203
     70  CD1      -18.7320  -21.2540  -30.5070 C.ar  311  PHE311     -0.0042
     71  CD2      -20.2410  -19.6630  -31.4720 C.ar  311  PHE311     -0.0042
     72  CE1      -19.4760  -22.2700  -31.0480 C.ar  311  PHE311     -0.0003
     73  CE2      -20.9980  -20.7850  -32.0240 C.ar  311  PHE311     -0.0003
     74  CZ       -20.6220  -22.0360  -31.7910 C.ar  311  PHE311     -0.0000
     75  N        -16.1090  -14.1100  -31.5250 N.3   313  ASN313     -0.1240
     76  CA       -16.7230  -12.9470  -32.1420 C.3   313  ASN313      0.1653
     77  C        -18.1660  -13.1060  -32.3990 C.2   313  ASN313      0.2266
     78  O        -18.7810  -12.2690  -33.1080 O.2   313  ASN313     -0.2867
     79  CB       -16.0850  -12.6270  -33.4750 C.3   313  ASN313      0.1155
     80  CG       -14.6430  -12.2310  -33.3370 C.2   313  ASN313      0.2627
     81  OD1      -14.2500  -11.4140  -32.4810 O.2   313  ASN313     -0.2716
     82  ND2      -13.8220  -12.8090  -34.1560 N.am  313  ASN313     -0.0877
     83  N        -25.4930  -14.0260  -29.1890 N.3   316  ILE316     -0.1245
     84  CA       -26.9720  -14.3680  -29.3310 C.3   316  ILE316      0.1561
     85  C        -27.6360  -13.1600  -28.6790 C.2   316  ILE316      0.2260
     86  O        -27.6190  -13.0670  -27.4080 O.2   316  ILE316     -0.2867
     87  CB       -27.3220  -15.6820  -28.7370 C.3   316  ILE316      0.0252
     88  CG1      -26.6900  -16.7910  -29.5960 C.3   316  ILE316      0.0019
     89  CG2      -28.8590  -15.8300  -28.6380 C.3   316  ILE316      0.0019
     90  CD1      -26.7980  -18.1860  -28.9990 C.3   316  ILE316      0.0001
     91  N        -20.8260  -14.8090  -26.9130 N.3   321  LEU321     -0.1245
     92  CA       -20.4520  -16.1450  -26.8520 C.3   321  LEU321      0.1561
     93  C        -18.9450  -16.3470  -26.7250 C.2   321  LEU321      0.2260
     94  O        -18.4420  -17.4720  -26.8500 O.2   321  LEU321     -0.2867
     95  CB       -20.9990  -17.0030  -27.9980 C.3   321  LEU321      0.0270
     96  CG       -22.5650  -16.9490  -28.1380 C.3   321  LEU321      0.0019
     97  CD1      -22.9550  -17.7540  -29.3580 C.3   321  LEU321      0.0001
     98  CD2      -23.1700  -17.6870  -26.9520 C.3   321  LEU321      0.0001
     99  N        -16.8880  -19.6790  -25.7490 N.3   324  LEU324     -0.1245
    100  CA       -17.4590  -20.9580  -26.3010 C.3   324  LEU324      0.1561
    101  C        -16.6550  -21.4500  -27.4460 C.2   324  LEU324      0.2260
    102  O        -16.1750  -20.6770  -28.2640 O.2   324  LEU324     -0.2867
    103  CB       -18.9340  -20.6860  -26.7570 C.3   324  LEU324      0.0270
    104  CG       -19.7360  -21.9380  -27.1220 C.3   324  LEU324      0.0019
    105  CD1      -20.0500  -22.6920  -25.8140 C.3   324  LEU324      0.0001
    106  CD2      -21.0870  -21.4400  -27.7120 C.3   324  LEU324      0.0001
    107  N        -16.7220  -25.1330  -30.0490 N.3   326  PHE326     -0.1241
    108  CA       -17.3630  -26.3730  -30.5110 C.3   326  PHE326      0.1605
    109  C        -16.3740  -27.1170  -31.3640 C.2   326  PHE326      0.2264
    110  O        -15.6970  -26.5580  -32.1930 O.2   326  PHE326     -0.2867
    111  CB       -18.6230  -26.0430  -31.3340 C.3   326  PHE326      0.0534
    112  CG       -19.2190  -27.2240  -32.0270 C.ar  326  PHE326     -0.0203
    113  CD1      -19.9720  -28.1330  -31.3100 C.ar  326  PHE326     -0.0042
    114  CD2      -19.0360  -27.4220  -33.3390 C.ar  326  PHE326     -0.0042
    115  CE1      -20.5720  -29.2630  -31.9250 C.ar  326  PHE326     -0.0003
    116  CE2      -19.6410  -28.5150  -33.9550 C.ar  326  PHE326     -0.0003
    117  CZ       -20.3910  -29.4080  -33.2320 C.ar  326  PHE326     -0.0000
    118  N        -18.2600  -29.6280  -26.7220 N.3   355  LEU355     -0.1245
    119  CA       -18.7100  -28.2360  -26.4340 C.3   355  LEU355      0.1561
    120  C        -18.1660  -27.7720  -25.1430 C.2   355  LEU355      0.2260
    121  O        -18.3590  -28.4360  -24.1490 O.2   355  LEU355     -0.2867
    122  CB       -20.2030  -28.1790  -26.4110 C.3   355  LEU355      0.0270
    123  CG       -20.7870  -26.7680  -26.5180 C.3   355  LEU355      0.0019
    124  CD1      -20.4590  -26.0550  -27.7740 C.3   355  LEU355      0.0001
    125  CD2      -22.2640  -26.9070  -26.2820 C.3   355  LEU355      0.0001
@<TRIPOS>BOND
     1    12    11    1
     2    11     9   ar
     3    11    10   ar
     4     9     7   ar
     5    10     8   ar
     6     7     6   ar
     7     8     6   ar
     8     6     5    1
     9    21    19   am
    10     5     2    1
    11    19    20    2
    12    19    18    1
    13    18    17    1
    14     2     1    1
    15     2     3    1
    16     3     4    2
    17     3    13   am
    18    17    14    1
    19    13    14    1
    20    37    39   ar
    21    37    35   ar
    22    39    38   ar
    23    35    34    1
    24    35    36   ar
    25    34    31    1
    26    14    15    1
    27    38    36   ar
    28    33    32    2
    29    46    48   ar
    30    46    45   ar
    31    48    50   ar
    32    32    31    1
    33    15    16    2
    34    15    22   am
    35    31    30    1
    36    45    44    1
    37    45    47   ar
    38    44    41    1
    39    50    51    1
    40    50    49   ar
    41    30    24   am
    42    22    23    1
    43    41    40    1
    44    41    42    1
    45    47    49   ar
    46    24    23    1
    47    24    25    2
    48    60    58   ar
    49    60    62   ar
    50    23    26    1
    51    42    43    2
    52    58    57   ar
    53    63    62    1
    54    26    27    1
    55    62    61   ar
    56    27    29   am
    57    27    28    2
    58    57    56    1
    59    57    59   ar
    60    56    53    1
    61    61    59   ar
    62    53    52    1
    63    53    54    1
    64    82    80   am
    65   116   114   ar
    66   116   117   ar
    67    79    80    1
    68    79    76    1
    69   114   112   ar
    70    80    81    2
    71   117   115   ar
    72    78    77    2
    73    54    55    2
    74    77    76    1
    75   110   109    2
    76    76    75    1
    77   112   111    1
    78   112   113   ar
    79    73    74   ar
    80    73    71   ar
    81   115   113   ar
    82    74    72   ar
    83    71    69   ar
    84   109   108    1
    85   111   108    1
    86    72    70   ar
    87    64    65    1
    88    65    66    1
    89    65    68    1
    90    69    70   ar
    91    69    68    1
    92   108   107    1
    93    66    67    2
    94    88    90    1
    95    88    87    1
    96    97    96    1
    97    84    83    1
    98    84    87    1
    99    84    85    1
   100    87    89    1
   101    85    86    2
   102   102   101    2
   103    96    95    1
   104    96    98    1
   105    95    92    1
   106   124   123    1
   107   106   104    1
   108   101   100    1
   109   104   103    1
   110   104   105    1
   111    91    92    1
   112    92    93    1
   113    94    93    2
   114   103   100    1
   115   118   119    1
   116   123   122    1
   117   123   125    1
   118   119   122    1
   119   119   120    1
   120   100    99    1
   121   120   121    2
