@<TRIPOS>MOLECULE
tmp/5dlbA00.pdb
 98 90 0 0 0
SMALL
GASTEIGER

@<TRIPOS>ATOM
      1  N         42.5980   33.4760  -10.5880 N.3   147  MET147     -0.1245
      2  CA        42.4120   32.0550  -10.7690 C.3   147  MET147      0.1570
      3  C         42.0340   31.8400  -12.2420 C.2   147  MET147      0.2261
      4  O         41.2200   32.5380  -12.7360 O.2   147  MET147     -0.2867
      5  CB        41.2670   31.5370   -9.9120 C.3   147  MET147      0.0387
      6  CG        41.0820   30.0070   -9.9710 C.3   147  MET147      0.0595
      7  SD        39.8670   29.5090   -8.7400 S.3   147  MET147     -0.1393
      8  CE        40.6960   30.3730   -7.4300 C.3   147  MET147      0.0692
      9  N         40.1170   26.4610  -11.7750 N.3   152  GLY152     -0.1225
     10  CA        38.8350   26.4200  -11.0790 C.3   152  GLY152      0.1811
     11  C         38.1380   25.1080  -11.3820 C.2   152  GLY152      0.2280
     12  O         37.4990   24.4690  -10.5290 O.2   152  GLY152     -0.2866
     13  N         39.7580   22.3370   -9.3390 N.3   155  ALA155     -0.1231
     14  CA        39.2760   22.4980   -7.9520 C.3   155  ALA155      0.1694
     15  C         37.8860   21.9140   -7.7970 C.2   155  ALA155      0.2592
     16  O         37.6370   21.2110   -6.7580 O.2   155  ALA155     -0.2718
     17  CB        39.3000   23.9600   -7.5180 C.3   155  ALA155      0.0304
     18  N         36.9790   22.2550   -8.7240 N.am  156  ASP156     -0.1974
     19  CA        35.6220   21.7440   -8.6870 C.3   156  ASP156      0.1709
     20  C         35.6100   20.2450   -8.7340 C.2   156  ASP156      0.2293
     21  O         34.8480   19.6650   -7.9720 O.2   156  ASP156     -0.2864
     22  CB        34.6660   22.2160   -9.7490 C.3   156  ASP156      0.1436
     23  CG        34.4090   23.6960   -9.7540 C.2   156  ASP156      0.3671
     24  OD1       34.5210   24.4320   -8.7760 O.co2 156  ASP156     -0.2456
     25  OD2       34.0200   24.1460  -10.8750 O.co2 156  ASP156     -0.2456
     26  N         36.5560   18.9630   -5.3020 N.3   159  LEU159     -0.1245
     27  CA        35.3810   19.2250   -4.4090 C.3   159  LEU159      0.1561
     28  C         34.3010   18.1900   -4.6920 C.2   159  LEU159      0.2260
     29  O         33.8440   17.5160   -3.7780 O.2   159  LEU159     -0.2867
     30  CB        34.8650   20.6200   -4.6030 C.3   159  LEU159      0.0270
     31  CG        35.8360   21.6890   -4.1420 C.3   159  LEU159      0.0019
     32  CD1       35.3230   23.0080   -4.6020 C.3   159  LEU159      0.0001
     33  CD2       35.9650   21.6750   -2.5950 C.3   159  LEU159      0.0001
     34  N         36.9470   21.9330    1.1610 N.3   165  LEU165     -0.1245
     35  CA        37.3280   23.2340    0.7390 C.3   165  LEU165      0.1561
     36  C         38.6950   23.6360    1.2900 C.2   165  LEU165      0.2260
     37  O         39.5100   24.2680    0.5820 O.2   165  LEU165     -0.2867
     38  CB        36.2890   24.2300    1.0380 C.3   165  LEU165      0.0270
     39  CG        36.4490   25.6470    0.4760 C.3   165  LEU165      0.0019
     40  CD1       36.6670   25.5880   -1.0090 C.3   165  LEU165      0.0001
     41  CD2       35.2690   26.5250    0.7680 C.3   165  LEU165      0.0001
     42  N         41.3800   22.0370   -0.9230 N.3   168  VAL168     -0.1231
     43  CA        41.3390   22.7410   -2.2160 C.3   168  VAL168      0.1692
     44  C         41.9060   24.1810   -2.1310 C.2   168  VAL168      0.2591
     45  O         42.6520   24.5970   -2.9930 O.2   168  VAL168     -0.2718
     46  CB        39.9370   22.6680   -2.7670 C.3   168  VAL168      0.0266
     47  CG1       39.8520   23.3600   -4.1170 C.3   168  VAL168      0.0020
     48  CG2       39.5350   21.2040   -2.9260 C.3   168  VAL168      0.0020
     49  N         41.6530   24.9330   -1.0800 N.am  169  LEU169     -0.1980
     50  CA        42.3720   26.1940   -0.8630 C.3   169  LEU169      0.1596
     51  C         43.8960   25.9820   -0.6740 C.2   169  LEU169      0.2287
     52  O         44.6710   26.7810   -1.2110 O.2   169  LEU169     -0.2864
     53  CB        41.7600   27.0700    0.2650 C.3   169  LEU169      0.0297
     54  CG        40.2790   27.5060    0.1050 C.3   169  LEU169      0.0022
     55  CD1       39.8180   28.4290    1.2540 C.3   169  LEU169      0.0001
     56  CD2       39.9190   27.9820   -1.3210 C.3   169  LEU169      0.0001
     57  N         45.2530   25.3690   -4.3120 N.3   172  LEU172     -0.1245
     58  CA        45.3950   26.6900   -4.9210 C.3   172  LEU172      0.1561
     59  C         46.4050   27.6140   -4.2410 C.2   172  LEU172      0.2260
     60  O         46.7150   28.6620   -4.7730 O.2   172  LEU172     -0.2867
     61  CB        44.0790   27.4180   -4.9190 C.3   172  LEU172      0.0270
     62  CG        42.7580   26.7950   -5.3450 C.3   172  LEU172      0.0019
     63  CD1       41.6250   27.7970   -5.1540 C.3   172  LEU172      0.0001
     64  CD2       42.9380   26.4030   -6.7600 C.3   172  LEU172      0.0001
     65  N         32.8240   31.4460   -1.6840 N.3   186  PHE186     -0.1241
     66  CA        32.3410   30.1660   -2.1260 C.3   186  PHE186      0.1605
     67  C         31.4230   29.4480   -1.1270 C.2   186  PHE186      0.2264
     68  O         31.4560   28.2140   -0.9800 O.2   186  PHE186     -0.2867
     69  CB        33.5750   29.3830   -2.5180 C.3   186  PHE186      0.0534
     70  CG        34.2790   29.9690   -3.7200 C.ar  186  PHE186     -0.0203
     71  CD1       33.5790   30.0660   -4.9200 C.ar  186  PHE186     -0.0042
     72  CD2       35.6090   30.4310   -3.6660 C.ar  186  PHE186     -0.0042
     73  CE1       34.1910   30.5990   -6.0620 C.ar  186  PHE186     -0.0003
     74  CE2       36.2370   30.9610   -4.8070 C.ar  186  PHE186     -0.0003
     75  CZ        35.5000   31.0660   -5.9990 C.ar  186  PHE186     -0.0000
     76  N         25.1040   34.5540    0.2300 N.3   190  ARG190     -0.1197
     77  CA        25.7530   35.4970   -0.5920 C.3   190  ARG190      0.1779
     78  C         24.7390   35.9770   -1.6200 C.2   190  ARG190      0.2305
     79  O         23.6830   35.3210   -1.8410 O.2   190  ARG190     -0.2863
     80  CB        26.9920   34.9440   -1.2530 C.2   190  ARG190     -0.0007
     81  CG        26.7830   33.9160   -2.3290 C.2   190  ARG190      0.0176
     82  CD        28.0290   33.4560   -3.0420 C.3   190  ARG190      0.2464
     83  NE        27.5270   32.5490   -4.1100 N.pl3 190  ARG190     -0.0815
     84  CZ        28.2810   31.9230   -5.0010 C.cat 190  ARG190      0.5349
     85  NH1       29.6120   32.0470   -5.0060 N.pl3 190  ARG190      0.1354
     86  NH2       27.6620   31.1420   -5.9160 N.pl3 190  ARG190      0.1354
     87  N         24.9630   38.2590   -5.5410 N.3   192  TYR192     -0.1241
     88  CA        25.9010   38.7600   -6.5040 C.3   192  TYR192      0.1605
     89  C         25.1550   39.2740   -7.7110 C.2   192  TYR192      0.2264
     90  O         23.9430   39.0750   -7.8260 O.2   192  TYR192     -0.2867
     91  CB        26.9220   37.7490   -6.9510 C.3   192  TYR192      0.0534
     92  CG        26.4550   36.5400   -7.6850 C.ar  192  TYR192     -0.0201
     93  CD1       26.1640   35.3890   -6.9950 C.ar  192  TYR192     -0.0009
     94  CD2       26.3620   36.5340   -9.0720 C.ar  192  TYR192     -0.0009
     95  CE1       25.7440   34.2460   -7.6310 C.ar  192  TYR192      0.0417
     96  CE2       25.9420   35.4070   -9.7090 C.ar  192  TYR192      0.0417
     97  CZ        25.6290   34.2610   -8.9880 C.ar  192  TYR192      0.1957
     98  OH        25.2020   33.1840   -9.7600 O.3   192  TYR192     -0.2866
@<TRIPOS>BOND
     1     4     3    2
     2     3     2    1
     3     9    10    1
     4    11    10    1
     5    11    12    2
     6    25    23   ar
     7     2     1    1
     8     2     5    1
     9     6     5    1
    10     6     7    1
    11    98    97    1
    12    23    22    1
    13    23    24   ar
    14    22    19    1
    15    96    94   ar
    16    96    97   ar
    17    13    14    1
    18    94    92   ar
    19    97    95   ar
    20     7     8    1
    21    20    19    1
    22    20    21    2
    23    18    19    1
    24    18    15   am
    25    14    15    1
    26    14    17    1
    27    90    89    2
    28    15    16    2
    29    89    88    1
    30    92    93   ar
    31    92    91    1
    32    95    93   ar
    33    91    88    1
    34    64    62    1
    35    88    87    1
    36    73    75   ar
    37    73    71   ar
    38    75    74   ar
    39    86    84    1
    40    62    63    1
    41    62    61    1
    42    26    27    1
    43    85    84    1
    44    84    83    2
    45    58    61    1
    46    58    57    1
    47    58    59    1
    48    71    70   ar
    49    74    72   ar
    50    60    59    2
    51    28    27    1
    52    28    29    2
    53    30    27    1
    54    30    31    1
    55    32    31    1
    56    31    33    1
    57    47    46    1
    58    83    82    1
    59    70    72   ar
    60    70    69    1
    61    82    81    1
    62    45    44    2
    63    48    46    1
    64    46    43    1
    65    69    66    1
    66    81    80    2
    67    43    44    1
    68    43    42    1
    69    44    49   am
    70    66    65    1
    71    66    67    1
    72    79    78    2
    73    78    77    1
    74    56    54    1
    75    80    77    1
    76    52    51    2
    77    67    68    2
    78    49    50    1
    79    40    39    1
    80    50    51    1
    81    50    53    1
    82    77    76    1
    83    54    53    1
    84    54    55    1
    85    39    41    1
    86    39    38    1
    87    37    36    2
    88    35    38    1
    89    35    34    1
    90    35    36    1
