@<TRIPOS>MOLECULE
tmp/5dldA00.pdb
 226 217 0 0 0
SMALL
GASTEIGER

@<TRIPOS>ATOM
      1  N         19.5520   -7.9000    5.5220 N.3    12  ARG12      -0.1231
      2  CA        20.7700   -7.2750    6.0420 C.3    12  ARG12       0.1679
      3  C         20.6120   -5.8220    6.5620 C.2    12  ARG12       0.2434
      4  O         20.9560   -5.5520    7.7090 O.2    12  ARG12      -0.2733
      5  CB        21.9180   -7.3680    5.0190 C.3    12  ARG12       0.0321
      6  CG        23.0980   -6.4580    5.3500 C.3    12  ARG12       0.0489
      7  CD        24.2770   -6.6990    4.4260 C.3    12  ARG12       0.2205
      8  NE        24.0530   -6.1530    3.0950 N.pl3  12  ARG12      -0.0865
      9  CZ        24.8270   -6.4140    2.0480 C.cat  12  ARG12       0.5346
     10  NH1       25.8530   -7.2640    2.1650 N.pl3  12  ARG12       0.1354
     11  NH2       24.5610   -5.8460    0.8810 N.pl3  12  ARG12       0.1354
     12  N         20.0950   -4.8870    5.7370 N.am   13  PRO13      -0.2729
     13  CA        20.0760   -3.5010    6.2250 C.3    13  PRO13       0.1401
     14  C         19.1230   -3.3050    7.3990 C.2    13  PRO13       0.2269
     15  O         19.4370   -2.5320    8.3100 O.2    13  PRO13      -0.2865
     16  CB        19.5870   -2.7020    4.9990 C.3    13  PRO13       0.0296
     17  CG        18.8480   -3.7080    4.1600 C.3    13  PRO13       0.0237
     18  CD        19.6500   -4.9770    4.3400 C.3    13  PRO13       0.0939
     19  N         20.9020   -4.7190   10.6590 N.3    16  ILE16      -0.1231
     20  CA        21.9160   -3.8000   11.1640 C.3    16  ILE16       0.1692
     21  C         21.2730   -2.6210   11.8900 C.2    16  ILE16       0.2591
     22  O         21.6920   -2.2430   12.9960 O.2    16  ILE16      -0.2718
     23  CB        22.8560   -3.3280   10.0310 C.3    16  ILE16       0.0266
     24  CG1       23.7100   -4.4990    9.5290 C.3    16  ILE16       0.0019
     25  CG2       23.7430   -2.1260   10.4730 C.3    16  ILE16       0.0020
     26  CD1       24.3960   -4.2150    8.1960 C.3    16  ILE16       0.0001
     27  N         20.2640   -2.0310   11.2600 N.am   17  LYS17      -0.1980
     28  CA        19.6080   -0.8630   11.8300 C.3    17  LYS17       0.1596
     29  C         18.7320   -1.2010   13.0460 C.2    17  LYS17       0.2287
     30  O         18.5490   -0.3620   13.9370 O.2    17  LYS17      -0.2864
     31  CB        18.8360   -0.0990   10.7500 C.3    17  LYS17       0.0298
     32  CG        19.7470    0.7590    9.8780 C.3    17  LYS17       0.0038
     33  CD        19.0880    1.2090    8.5760 C.3    17  LYS17       0.0206
     34  CE        19.9410    2.2650    7.8800 C.3    17  LYS17       0.1093
     35  NZ        19.3260    2.7610    6.6090 N.3    17  LYS17      -0.1314
     36  N         16.1230  -12.6780    3.7230 N.3    41  HIS41      -0.1241
     37  CA        17.5220  -13.0450    3.5010 C.3    41  HIS41       0.1621
     38  C         17.8910  -14.2070    4.4130 C.2    41  HIS41       0.2264
     39  O         17.2490  -14.4090    5.4430 O.2    41  HIS41      -0.2867
     40  CB        18.4280  -11.8690    3.8490 C.3    41  HIS41       0.0745
     41  CG        18.4430  -10.7950    2.8140 C.ar   41  HIS41       0.0817
     42  ND1       19.2440   -9.6740    2.9180 N.ar   41  HIS41      -0.2268
     43  CD2       17.7660  -10.6730    1.6460 C.ar   41  HIS41       0.1154
     44  CE1       19.0580   -8.9100    1.8540 C.ar   41  HIS41       0.1986
     45  NE2       18.1740   -9.4990    1.0630 N.ar   41  HIS41      -0.2212
     46  N         22.9210  -13.2960    4.4380 N.3    44  MET44      -0.1245
     47  CA        23.1640  -11.8780    4.6890 C.3    44  MET44       0.1570
     48  C         22.4460  -11.3620    5.9380 C.2    44  MET44       0.2261
     49  O         22.8450  -10.3620    6.5180 O.2    44  MET44      -0.2867
     50  CB        22.8340  -11.0540    3.4460 C.3    44  MET44       0.0387
     51  CG        23.8360  -11.3140    2.3310 C.3    44  MET44       0.0595
     52  SD        23.4000  -10.5700    0.7570 S.3    44  MET44      -0.1393
     53  CE        22.6960   -9.0170    1.2520 C.3    44  MET44       0.0692
     54  N         12.0690   -0.1550    4.4700 N.3    97  ASP97      -0.1225
     55  CA        11.3250   -0.1320    3.2110 C.3    97  ASP97       0.1805
     56  C         11.4360   -1.3950    2.3650 C.2    97  ASP97       0.2598
     57  O         11.3500   -1.3390    1.1330 O.2    97  ASP97      -0.2718
     58  CB        11.7160    1.1080    2.3900 C.3    97  ASP97       0.1424
     59  CG        13.2180    1.2120    2.1570 C.2    97  ASP97       0.3668
     60  OD1       13.9060    0.1610    2.1440 O.co2  97  ASP97      -0.2456
     61  OD2       13.7020    2.3580    1.9680 O.co2  97  ASP97      -0.2456
     62  N         11.6200   -2.5370    3.0170 N.am   98  THR98      -0.1953
     63  CA        11.6810   -3.7960    2.2800 C.3    98  THR98       0.1897
     64  C         10.2980   -4.3990    2.1160 C.2    98  THR98       0.2313
     65  O          9.3150   -3.9110    2.6830 O.2    98  THR98      -0.2863
     66  CB        12.5790   -4.8230    2.9830 C.3    98  THR98       0.1794
     67  OG1       11.9520   -5.2510    4.2030 O.3    98  THR98      -0.2208
     68  CG2       13.9710   -4.2150    3.2760 C.3    98  THR98       0.0378
     69  N         10.7740   -0.1060   -3.1970 N.3   133  GLU133     -0.1245
     70  CA        10.9880    0.4380   -1.8530 C.3   133  GLU133      0.1567
     71  C         10.1870    1.7130   -1.5460 C.2   133  GLU133      0.2260
     72  O          9.7310    1.8920   -0.4150 O.2   133  GLU133     -0.2867
     73  CB        12.4760    0.6660   -1.5790 C.3   133  GLU133      0.0388
     74  CG        13.3090   -0.6140   -1.4230 C.3   133  GLU133      0.1160
     75  CD        13.8300   -1.1890   -2.7340 C.2   133  GLU133      0.3649
     76  OE1       13.4280   -0.7050   -3.8290 O.co2 133  GLU133     -0.2457
     77  OE2       14.6630   -2.1290   -2.6620 O.co2 133  GLU133     -0.2457
     78  N         21.0970    3.7780   12.3490 N.3   175  VAL175     -0.1245
     79  CA        22.3090    3.3240   11.6690 C.3   175  VAL175      0.1561
     80  C         23.5520    3.9470   12.3010 C.2   175  VAL175      0.2260
     81  O         24.6120    3.3250   12.3280 O.2   175  VAL175     -0.2867
     82  CB        22.2610    3.5550   10.1430 C.3   175  VAL175      0.0252
     83  CG1       22.4730    5.0280    9.7830 C.3   175  VAL175      0.0019
     84  CG2       23.2760    2.6600    9.4410 C.3   175  VAL175      0.0019
     85  N         29.5330   -1.1900   -4.0380 N.3   213  THR213     -0.1218
     86  CA        28.4070   -2.1360   -3.9750 C.3   213  THR213      0.1862
     87  C         27.3210   -1.7120   -4.9710 C.2   213  THR213      0.2287
     88  O         27.2500   -0.5470   -5.3870 O.2   213  THR213     -0.2866
     89  CB        27.7680   -2.2890   -2.5550 C.3   213  THR213      0.1770
     90  OG1       26.9240   -1.1660   -2.2560 O.3   213  THR213     -0.2211
     91  CG2       28.8330   -2.4580   -1.4530 C.3   213  THR213      0.0375
     92  N         23.0580   -2.9580   -6.0310 N.3   215  HIS215     -0.1226
     93  CA        21.9650   -3.9350   -6.0930 C.3   215  HIS215      0.1752
     94  C         20.5580   -3.3520   -6.2880 C.2   215  HIS215      0.2595
     95  O         19.5870   -4.0950   -6.1670 O.2   215  HIS215     -0.2718
     96  CB        21.9750   -4.8480   -4.8480 C.3   215  HIS215      0.0759
     97  CG        21.5550   -4.1540   -3.5910 C.ar  215  HIS215      0.0818
     98  ND1       22.4250   -3.3980   -2.8300 N.ar  215  HIS215     -0.2268
     99  CD2       20.3550   -4.0970   -2.9610 C.ar  215  HIS215      0.1154
    100  CE1       21.7760   -2.8990   -1.7930 C.ar  215  HIS215      0.1986
    101  NE2       20.5190   -3.3100   -1.8470 N.ar  215  HIS215     -0.2212
    102  N         20.4150   -2.0590   -6.5860 N.am  216  ARG216     -0.1980
    103  CA        19.0490   -1.5130   -6.7550 C.3   216  ARG216      0.1597
    104  C         18.2830   -2.2570   -7.8560 C.2   216  ARG216      0.2287
    105  O         18.7990   -2.4560   -8.9610 O.2   216  ARG216     -0.2864
    106  CB        19.0460   -0.0010   -7.0330 C.3   216  ARG216      0.0334
    107  CG        19.5170    0.8630   -5.8660 C.3   216  ARG216      0.0492
    108  CD        18.4000    1.3190   -4.9220 C.3   216  ARG216      0.2205
    109  NE        17.7460    0.2310   -4.1940 N.pl3 216  ARG216     -0.0865
    110  CZ        18.2370   -0.3430   -3.0960 C.cat 216  ARG216      0.5346
    111  NH1       17.5540   -1.3170   -2.4930 N.pl3 216  ARG216      0.1354
    112  NH2       19.4120    0.0500   -2.6000 N.pl3 216  ARG216      0.1354
    113  N         32.3580   -6.0350   -2.6350 N.3   246  PRO246     -0.2102
    114  CA        31.6140   -7.1190   -1.9910 C.3   246  PRO246      0.1504
    115  C         30.2950   -7.3110   -2.7280 C.2   246  PRO246      0.2576
    116  O         29.4380   -6.4060   -2.7470 O.2   246  PRO246     -0.2718
    117  CB        31.3950   -6.5970   -0.5670 C.3   246  PRO246      0.0282
    118  CG        32.5030   -5.5640   -0.3690 C.3   246  PRO246      0.0208
    119  CD        32.5990   -4.9040   -1.7220 C.3   246  PRO246      0.0893
    120  N         30.1550   -8.4790   -3.3450 N.am  247  LEU247     -0.1966
    121  CA        29.0110   -8.7810   -4.1850 C.3   247  LEU247      0.1728
    122  C         27.7590   -8.8950   -3.3270 C.2   247  LEU247      0.2616
    123  O         27.8330   -9.0700   -2.1110 O.2   247  LEU247     -0.2715
    124  CB        29.2440  -10.0930   -4.9390 C.3   247  LEU247      0.0311
    125  CG        30.3860  -10.0520   -5.9510 C.3   247  LEU247      0.0022
    126  CD1       30.4380  -11.3330   -6.7470 C.3   247  LEU247      0.0001
    127  CD2       30.2320   -8.8400   -6.8690 C.3   247  LEU247      0.0001
    128  N         26.6080   -8.7610   -3.9670 N.am  248  HIS248     -0.1973
    129  CA        25.3230   -9.0330   -3.3380 C.3   248  HIS248      0.1656
    130  C         24.9000  -10.4170   -3.8230 C.2   248  HIS248      0.2291
    131  O         25.2700  -10.8100   -4.9190 O.2   248  HIS248     -0.2864
    132  CB        24.3230   -7.9670   -3.7880 C.3   248  HIS248      0.0771
    133  CG        23.0440   -7.9660   -3.0140 C.ar  248  HIS248      0.0820
    134  ND1       22.0810   -8.9430   -3.1650 N.ar  248  HIS248     -0.2267
    135  CD2       22.5480   -7.0830   -2.1150 C.ar  248  HIS248      0.1154
    136  CE1       21.0570   -8.6720   -2.3750 C.ar  248  HIS248      0.1986
    137  NE2       21.3190   -7.5530   -1.7230 N.ar  248  HIS248     -0.2212
    138  N         29.7150  -10.9730    0.1520 N.3   272  PRO272     -0.2102
    139  CA        29.1730   -9.9530    1.0560 C.3   272  PRO272      0.1504
    140  C         29.8650  -10.0530    2.4110 C.2   272  PRO272      0.2575
    141  O         30.0820  -11.1590    2.9210 O.2   272  PRO272     -0.2718
    142  CB        27.6880  -10.3210    1.1670 C.3   272  PRO272      0.0282
    143  CG        27.5770  -11.7350    0.6380 C.3   272  PRO272      0.0208
    144  CD        28.6690  -11.8580   -0.3860 C.3   272  PRO272      0.0893
    145  N         30.2460   -8.9030    2.9600 N.am  273  GLN273     -0.1980
    146  CA        31.0370   -8.8590    4.1770 C.3   273  GLN273      0.1601
    147  C         30.1910   -8.6190    5.4130 C.2   273  GLN273      0.2287
    148  O         29.2680   -7.8020    5.3950 O.2   273  GLN273     -0.2864
    149  CB        32.0740   -7.7510    4.0520 C.3   273  GLN273      0.0394
    150  CG        33.1140   -8.0370    2.9790 C.3   273  GLN273      0.0908
    151  CD        33.9290   -9.2630    3.3250 C.2   273  GLN273      0.2608
    152  OE1       34.5870   -9.3060    4.3650 O.2   273  GLN273     -0.2717
    153  NE2       33.8740  -10.2760    2.4660 N.am  273  GLN273     -0.0878
    154  N         29.2320   -6.9400    8.8900 N.3   275  TYR275     -0.1241
    155  CA        29.2730   -5.4930    9.1000 C.3   275  TYR275      0.1605
    156  C         30.5650   -4.9720    9.7300 C.2   275  TYR275      0.2264
    157  O         31.0450   -3.8980    9.3630 O.2   275  TYR275     -0.2867
    158  CB        28.0590   -5.0700    9.9280 C.3   275  TYR275      0.0534
    159  CG        27.8200   -3.5830   10.0460 C.ar  275  TYR275     -0.0201
    160  CD1       27.7170   -2.7710    8.9130 C.ar  275  TYR275     -0.0009
    161  CD2       27.6430   -2.9950   11.2980 C.ar  275  TYR275     -0.0009
    162  CE1       27.4610   -1.3990    9.0350 C.ar  275  TYR275      0.0417
    163  CE2       27.3920   -1.6470   11.4270 C.ar  275  TYR275      0.0417
    164  CZ        27.2960   -0.8540   10.2950 C.ar  275  TYR275      0.1957
    165  OH        27.0310    0.4880   10.4480 O.3   275  TYR275     -0.2866
    166  N         32.9540   -4.8060    7.0250 N.3   278  PHE278     -0.1241
    167  CA        32.5590   -3.8140    6.0370 C.3   278  PHE278      0.1605
    168  C         32.8230   -2.3770    6.5170 C.2   278  PHE278      0.2264
    169  O         33.2210   -1.5190    5.7280 O.2   278  PHE278     -0.2867
    170  CB        31.1050   -3.9930    5.5870 C.3   278  PHE278      0.0534
    171  CG        30.7700   -3.1880    4.3700 C.ar  278  PHE278     -0.0203
    172  CD1       31.1970   -3.5970    3.1120 C.ar  278  PHE278     -0.0042
    173  CD2       30.0560   -2.0060    4.4810 C.ar  278  PHE278     -0.0042
    174  CE1       30.8990   -2.8400    1.9790 C.ar  278  PHE278     -0.0003
    175  CE2       29.7580   -1.2460    3.3560 C.ar  278  PHE278     -0.0003
    176  CZ        30.1830   -1.6630    2.1020 C.ar  278  PHE278     -0.0000
    177  N         35.0390    0.4480    4.7020 N.3   282  MET282     -0.1245
    178  CA        34.5940    1.8240    4.4650 C.3   282  MET282      0.1570
    179  C         35.6180    2.8160    5.0170 C.2   282  MET282      0.2261
    180  O         35.9440    3.8140    4.3740 O.2   282  MET282     -0.2867
    181  CB        33.2150    2.0820    5.0880 C.3   282  MET282      0.0387
    182  CG        32.0510    1.4930    4.2890 C.3   282  MET282      0.0595
    183  SD        30.4480    2.1110    4.8600 S.3   282  MET282     -0.1393
    184  CE        30.3110    1.3620    6.4820 C.3   282  MET282      0.0692
    185  N         23.5690    1.7730   -2.4630 N.3   292  SER292     -0.1202
    186  CA        23.0260    1.3670   -1.1710 C.3   292  SER292      0.2020
    187  C         22.4290    2.5480   -0.4170 C.2   292  SER292      0.2619
    188  O         23.0200    3.6360   -0.3870 O.2   292  SER292     -0.2717
    189  CB        24.1510    0.7840   -0.3170 C.3   292  SER292      0.2103
    190  OG        23.7480    0.6040    1.0380 O.3   292  SER292     -0.2182
    191  N         21.2890    2.3200    0.2330 N.am  293  GLY293     -0.1942
    192  CA        20.6880    3.3310    1.0890 C.3   293  GLY293      0.2014
    193  C         21.5040    3.5640    2.3470 C.2   293  GLY293      0.2639
    194  O         21.8530    4.7020    2.6810 O.2   293  GLY293     -0.2714
    195  N         21.8290    2.4890    3.0490 N.am  294  GLY294     -0.1939
    196  CA        22.5770    2.6120    4.2830 C.3   294  GLY294      0.2014
    197  C         23.9730    3.1780    4.1070 C.2   294  GLY294      0.2638
    198  O         24.4330    3.9570    4.9440 O.2   294  GLY294     -0.2714
    199  N         24.6550    2.7940    3.0300 N.am  295  ILE295     -0.1977
    200  CA        25.9860    3.3460    2.7910 C.3   295  ILE295      0.1596
    201  C         25.9180    4.8450    2.4830 C.2   295  ILE295      0.2287
    202  O         26.8530    5.5920    2.7890 O.2   295  ILE295     -0.2864
    203  CB        26.7810    2.5470    1.7380 C.3   295  ILE295      0.0276
    204  CG1       26.9120    1.0860    2.1660 C.3   295  ILE295      0.0022
    205  CG2       28.1870    3.1280    1.5570 C.3   295  ILE295      0.0022
    206  CD1       27.4740    0.1960    1.0580 C.3   295  ILE295      0.0001
    207  N         26.1050    6.0700    5.9850 N.3   298  GLU298     -0.1245
    208  CA        27.3530    5.7670    6.6900 C.3   298  GLU298      0.1567
    209  C         28.5940    6.4330    6.0960 C.2   298  GLU298      0.2260
    210  O         29.4380    6.9540    6.8350 O.2   298  GLU298     -0.2867
    211  CB        27.5810    4.2560    6.7170 C.3   298  GLU298      0.0388
    212  CG        26.5670    3.5150    7.5700 C.3   298  GLU298      0.1160
    213  CD        26.4640    2.0470    7.1910 C.2   298  GLU298      0.3649
    214  OE1       26.8310    1.7060    6.0430 O.co2 298  GLU298     -0.2457
    215  OE2       25.9950    1.2440    8.0260 O.co2 298  GLU298     -0.2457
    216  N         17.8060   10.4420    0.2160 N.3   315  ARG315     -0.1245
    217  CA        18.7260   11.0030    1.2050 C.3   315  ARG315      0.1563
    218  C         19.3850   12.2590    0.6320 C.2   315  ARG315      0.2260
    219  O         20.5200   12.2140    0.1560 O.2   315  ARG315     -0.2867
    220  CB        19.8120    9.9890    1.5750 C.3   315  ARG315      0.0307
    221  CG        19.3960    8.9540    2.6050 C.3   315  ARG315      0.0489
    222  CD        19.1890    7.5850    2.0020 C.3   315  ARG315      0.2205
    223  NE        18.9130    6.6050    3.0420 N.pl3 315  ARG315     -0.0865
    224  CZ        18.2290    5.4810    2.8520 C.cat 315  ARG315      0.5346
    225  NH1       17.7470    5.1850    1.6460 N.pl3 315  ARG315      0.1354
    226  NH2       18.0400    4.6500    3.8670 N.pl3 315  ARG315      0.1354
@<TRIPOS>BOND
     1   105   104    2
     2   104   103    1
     3   106   103    1
     4   106   107    1
     5   127   125    1
     6   103   102    1
     7   126   125    1
     8   102    94   am
     9    94    95    2
    10    94    93    1
    11    93    92    1
    12    93    96    1
    13   125   124    1
    14   107   108    1
    15    88    87    2
    16    87    86    1
    17   124   121    1
    18   108   109    1
    19   131   130    2
    20    96    97    1
    21   109   110    2
    22   121   120    1
    23   121   122    1
    24    85    86    1
    25    86    89    1
    26   128   129    1
    27   128   122   am
    28    76    75   ar
    29   130   129    1
    30   132   129    1
    31   132   133    1
    32    97    99   ar
    33    97    98   ar
    34   120   115   am
    35   122   123    2
    36    69    70    1
    37   134   133   ar
    38   134   136   ar
    39   110   112    1
    40   110   111    1
    41   133   135   ar
    42    99   101   ar
    43    98   100   ar
    44   116   115    2
    45    75    77   ar
    46    75    74    1
    47   115   114    1
    48   113   114    1
    49   113   119    1
    50    89    90    1
    51    89    91    1
    52   185   186    1
    53   136   137   ar
    54   135   137   ar
    55   114   117    1
    56    70    73    1
    57    70    71    1
    58   101   100   ar
    59   119   118    1
    60    73    74    1
    61    71    72    2
    62   186   187    1
    63   186   189    1
    64   117   118    1
    65   187   188    2
    66   187   191   am
    67   144   138    1
    68   144   143    1
    69   189   190    1
    70   138   139    1
    71   219   218    2
    72   216   217    1
    73   191   192    1
    74   218   217    1
    75   143   142    1
    76    52    53    1
    77    52    51    1
    78    11     9    1
    79   139   142    1
    80   139   140    1
    81   206   204    1
    82    45    43   ar
    83    45    44   ar
    84   192   193    1
    85    57    56    2
    86   217   220    1
    87   205   203    1
    88   220   221    1
    89    43    41   ar
    90   225   224    1
    91   203   204    1
    92   203   200    1
    93    44    42   ar
    94    61    59   ar
    95   174   176   ar
    96   174   172   ar
    97   222   221    1
    98   222   223    1
    99     9    10    1
   100     9     8    2
   101   176   175   ar
   102    64    63    1
   103    64    65    2
   104    60    59   ar
   105    59    58    1
   106    63    66    1
   107    63    62    1
   108    51    50    1
   109   193   194    2
   110   193   195   am
   111    56    62   am
   112    56    55    1
   113    58    55    1
   114   140   141    2
   115   140   145   am
   116   153   151   am
   117   201   202    2
   118   201   200    1
   119   200   199    1
   120    41    42   ar
   121    41    40    1
   122   224   223    2
   123   224   226    1
   124   145   146    1
   125   150   151    1
   126   150   149    1
   127    66    68    1
   128    66    67    1
   129   199   197   am
   130   195   196    1
   131     8     7    1
   132   172   171   ar
   133    55    54    1
   134   151   152    2
   135   175   173   ar
   136    50    47    1
   137    37    36    1
   138    37    40    1
   139    37    38    1
   140   149   146    1
   141   197   196    1
   142   197   198    2
   143    17    18    1
   144    17    16    1
   145   146   147    1
   146   182   183    1
   147   182   181    1
   148    18    12    1
   149   171   173   ar
   150   171   170    1
   151   180   179    2
   152    38    39    2
   153     7     6    1
   154    46    47    1
   155   178   177    1
   156   178   179    1
   157   178   181    1
   158    47    48    1
   159   183   184    1
   160    16    13    1
   161     5     6    1
   162     5     2    1
   163   148   147    2
   164     1     2    1
   165   170   167    1
   166   169   168    2
   167    12    13    1
   168    12     3   am
   169    48    49    2
   170   207   208    1
   171   167   168    1
   172   167   166    1
   173     2     3    1
   174   214   213   ar
   175   209   208    1
   176   209   210    2
   177    13    14    1
   178     3     4    2
   179    35    34    1
   180   208   211    1
   181   211   212    1
   182   213   212    1
   183   213   215   ar
   184    14    15    2
   185    34    33    1
   186    26    24    1
   187    33    32    1
   188   154   155    1
   189   160   162   ar
   190   160   159   ar
   191   162   164   ar
   192   155   156    1
   193   155   158    1
   194   157   156    2
   195    84    82    1
   196    24    23    1
   197    83    82    1
   198    32    31    1
   199   158   159    1
   200    23    25    1
   201    23    20    1
   202   159   161   ar
   203    82    79    1
   204   164   165    1
   205   164   163   ar
   206    19    20    1
   207    31    28    1
   208    20    21    1
   209    27    28    1
   210    27    21   am
   211   161   163   ar
   212    79    80    1
   213    79    78    1
   214    28    29    1
   215    21    22    2
   216    80    81    2
   217    29    30    2
