@<TRIPOS>MOLECULE
tmp/5dlgA00.pdb
 172 165 0 0 0
SMALL
GASTEIGER

@<TRIPOS>ATOM
      1  N         19.7290  -34.4950   10.3450 N.3    16  ASP16      -0.1225
      2  CA        19.7060  -35.7880   10.9850 C.3    16  ASP16       0.1805
      3  C         18.3510  -36.0590   11.6410 C.2    16  ASP16       0.2598
      4  O         17.8620  -35.2440   12.4070 O.2    16  ASP16      -0.2718
      5  CB        20.8260  -35.8600   12.0130 C.3    16  ASP16       0.1424
      6  CG        20.9960  -37.2380   12.5810 C.2    16  ASP16       0.3668
      7  OD1       20.2080  -37.5950   13.4770 O.co2  16  ASP16      -0.2456
      8  OD2       21.9070  -37.9720   12.1240 O.co2  16  ASP16      -0.2456
      9  N         17.7500  -37.2080   11.3410 N.am   17  MET17      -0.1965
     10  CA        16.4330  -37.5830   11.8940 C.3    17  MET17       0.1736
     11  C         16.4780  -37.8430   13.3960 C.2    17  MET17       0.2616
     12  O         17.3690  -38.5070   13.8800 O.2    17  MET17      -0.2715
     13  CB        15.8810  -38.8290   11.1910 C.3    17  MET17       0.0427
     14  CG        15.9630  -38.7760    9.6770 C.3    17  MET17       0.0599
     15  SD        15.1270  -37.3420    8.9750 S.3    17  MET17      -0.1393
     16  CE        13.4550  -37.6400    9.4730 C.3    17  MET17       0.0692
     17  N         15.5210  -37.2940   14.1250 N.am   18  ASP18      -0.1957
     18  CA        15.4420  -37.5340   15.5600 C.3    18  ASP18       0.1840
     19  C         15.0520  -38.9830   15.8380 C.2    18  ASP18       0.2622
     20  O         14.0780  -39.4770   15.2570 O.2    18  ASP18      -0.2715
     21  CB        14.4390  -36.5800   16.2000 C.3    18  ASP18       0.1450
     22  CG        14.8350  -35.1230   16.0440 C.2    18  ASP18       0.3671
     23  OD1       16.0410  -34.8530   15.8980 O.co2  18  ASP18      -0.2456
     24  OD2       13.9400  -34.2490   16.0760 O.co2  18  ASP18      -0.2456
     25  N         15.8020  -39.6440   16.7260 N.am   19  CYS19      -0.1954
     26  CA        15.6080  -41.0670   17.0830 C.3    19  CYS19       0.1843
     27  C         14.9190  -41.8860   15.9720 C.2    19  CYS19       0.2625
     28  O         13.8310  -42.4120   16.1570 O.2    19  CYS19      -0.2714
     29  CB        14.8240  -41.1870   18.4050 C.3    19  CYS19       0.0997
     30  SG        13.2450  -40.2870   18.5110 S.3    19  CYS19      -0.0797
     31  N         15.5670  -41.9580   14.8140 N.am   20  PHE20      -0.1960
     32  CA        14.9290  -42.3790   13.5670 C.3    20  PHE20       0.1771
     33  C         14.1630  -43.7280   13.6110 C.2    20  PHE20       0.2619
     34  O         12.9700  -43.7760   13.2720 O.2    20  PHE20      -0.2715
     35  CB        15.9770  -42.4180   12.4520 C.3    20  PHE20       0.0574
     36  CG        15.3860  -42.6410   11.0860 C.ar   20  PHE20      -0.0200
     37  CD1       14.2320  -41.9680   10.7050 C.ar   20  PHE20      -0.0042
     38  CD2       15.9750  -43.5170   10.1860 C.ar   20  PHE20      -0.0042
     39  CE1       13.6620  -42.1710    9.4720 C.ar   20  PHE20      -0.0003
     40  CE2       15.4050  -43.7270    8.9310 C.ar   20  PHE20      -0.0003
     41  CZ        14.2490  -43.0530    8.5760 C.ar   20  PHE20      -0.0000
     42  N         14.8110  -44.8140   14.0340 N.am   21  PHE21      -0.1974
     43  CA        14.1130  -46.1110   14.0350 C.3    21  PHE21       0.1639
     44  C         12.8500  -46.0610   14.9230 C.2    21  PHE21       0.2290
     45  O         11.8290  -46.6450   14.5750 O.2    21  PHE21      -0.2864
     46  CB        15.0380  -47.2540   14.4770 C.3    21  PHE21       0.0560
     47  CG        16.0670  -47.6590   13.4390 C.ar   21  PHE21      -0.0200
     48  CD1       16.4730  -46.7800   12.4450 C.ar   21  PHE21      -0.0042
     49  CD2       16.6260  -48.9290   13.4620 C.ar   21  PHE21      -0.0042
     50  CE1       17.4350  -47.1440   11.4820 C.ar   21  PHE21      -0.0003
     51  CE2       17.5820  -49.3040   12.5030 C.ar   21  PHE21      -0.0003
     52  CZ        17.9870  -48.3930   11.5030 C.ar   21  PHE21      -0.0000
     53  N         16.8240  -55.2930   18.8610 N.3    41  GLN41      -0.1245
     54  CA        16.9540  -56.4630   17.9990 C.3    41  GLN41       0.1566
     55  C         17.2840  -57.6870   18.8610 C.2    41  GLN41       0.2260
     56  O         18.1370  -57.6140   19.7570 O.2    41  GLN41      -0.2867
     57  CB        18.0110  -56.2380   16.8940 C.3    41  GLN41       0.0367
     58  CG        19.2340  -55.4510   17.3060 C.3    41  GLN41       0.0905
     59  CD        20.1950  -55.1550   16.1480 C.2    41  GLN41       0.2608
     60  OE1       19.7830  -54.9670   14.9970 O.2    41  GLN41      -0.2717
     61  NE2       21.4880  -55.1070   16.4590 N.am   41  GLN41      -0.0878
     62  N         18.9230  -50.0890   19.9600 N.3    51  ILE51      -0.1231
     63  CA        19.6360  -49.3500   18.9210 C.3    51  ILE51       0.1692
     64  C         19.0340  -47.9670   18.6660 C.2    51  ILE51       0.2592
     65  O         19.6730  -47.1260   18.0340 O.2    51  ILE51      -0.2718
     66  CB        19.6750  -50.1280   17.5830 C.3    51  ILE51       0.0266
     67  CG1       18.2690  -50.4160   17.0710 C.3    51  ILE51       0.0019
     68  CG2       20.4620  -51.4360   17.7380 C.3    51  ILE51       0.0020
     69  CD1       18.2720  -51.2110   15.7840 C.3    51  ILE51       0.0001
     70  N         17.8180  -47.7240   19.1530 N.am   52  ALA52      -0.1966
     71  CA        17.2350  -46.3880   19.0830 C.3    52  ALA52       0.1728
     72  C         16.3840  -46.0790   20.3230 C.2    52  ALA52       0.2616
     73  O         15.6610  -46.9490   20.8050 O.2    52  ALA52      -0.2715
     74  CB        16.3980  -46.2250   17.7900 C.3    52  ALA52       0.0334
     75  N         16.4730  -44.8430   20.8280 N.am   53  VAL53      -0.1977
     76  CA        15.7790  -44.4570   22.0550 C.3    53  VAL53       0.1596
     77  C         15.0160  -43.1530   21.8810 C.2    53  VAL53       0.2287
     78  O         15.5850  -42.1590   21.4450 O.2    53  VAL53      -0.2864
     79  CB        16.7690  -44.2670   23.2350 C.3    53  VAL53       0.0276
     80  CG1       16.0340  -44.1990   24.5310 C.3    53  VAL53       0.0022
     81  CG2       17.7840  -45.3640   23.2700 C.3    53  VAL53       0.0022
     82  N         13.3520  -39.6290   23.0480 N.3    55  TYR55      -0.1241
     83  CA        13.8800  -38.6690   24.0130 C.3    55  TYR55       0.1605
     84  C         13.1630  -38.7420   25.3750 C.2    55  TYR55       0.2264
     85  O         13.7690  -38.4370   26.3930 O.2    55  TYR55      -0.2867
     86  CB        13.8290  -37.2590   23.4290 C.3    55  TYR55       0.0534
     87  CG        14.9010  -37.0370   22.3750 C.ar   55  TYR55      -0.0201
     88  CD1       14.7690  -37.5600   21.1010 C.ar   55  TYR55      -0.0009
     89  CD2       16.0440  -36.3140   22.6660 C.ar   55  TYR55      -0.0009
     90  CE1       15.7410  -37.3590   20.1450 C.ar   55  TYR55       0.0417
     91  CE2       17.0200  -36.1000   21.7220 C.ar   55  TYR55       0.0417
     92  CZ        16.8760  -36.6300   20.4570 C.ar   55  TYR55       0.1957
     93  OH        17.8690  -36.4220   19.5040 O.3    55  TYR55      -0.2866
     94  N         15.1160  -41.4460   26.9550 N.3    58  ARG58      -0.1245
     95  CA        16.4480  -40.9170   27.2360 C.3    58  ARG58       0.1563
     96  C         16.5020  -40.1720   28.5820 C.2    58  ARG58       0.2260
     97  O         17.5440  -40.1390   29.2290 O.2    58  ARG58      -0.2867
     98  CB        16.9080  -39.9830   26.1150 C.3    58  ARG58       0.0307
     99  CG        17.1070  -40.6400   24.7670 C.3    58  ARG58       0.0489
    100  CD        17.6820  -39.6540   23.7220 C.3    58  ARG58       0.2205
    101  NE        17.6360  -40.2080   22.3700 N.pl3  58  ARG58      -0.0865
    102  CZ        18.3330  -39.7610   21.3260 C.cat  58  ARG58       0.5346
    103  NH1       19.1550  -38.7300   21.4530 N.pl3  58  ARG58       0.1354
    104  NH2       18.1990  -40.3540   20.1450 N.pl3  58  ARG58       0.1354
    105  N         21.3780  -46.1290   23.6650 N.3    64  ARG64      -0.1245
    106  CA        21.8820  -47.0770   22.6930 C.3    64  ARG64       0.1563
    107  C         22.8320  -48.0670   23.3670 C.2    64  ARG64       0.2260
    108  O         23.5190  -47.7090   24.3350 O.2    64  ARG64      -0.2867
    109  CB        22.5930  -46.3280   21.5610 C.3    64  ARG64       0.0307
    110  CG        23.1860  -47.2270   20.5330 C.3    64  ARG64       0.0489
    111  CD        23.7200  -46.4840   19.3210 C.3    64  ARG64       0.2205
    112  NE        24.3740  -47.4550   18.4450 N.pl3  64  ARG64      -0.0865
    113  CZ        25.6710  -47.7460   18.4920 C.cat  64  ARG64       0.5346
    114  NH1       26.4600  -47.0950   19.3470 N.pl3  64  ARG64       0.1354
    115  NH2       26.1800  -48.6710   17.6740 N.pl3  64  ARG64       0.1354
    116  N         16.6910  -54.8850    8.0970 N.3    92  LEU92      -0.1245
    117  CA        16.4970  -53.4570    8.3120 C.3    92  LEU92       0.1561
    118  C         15.7140  -52.8040    7.1890 C.2    92  LEU92       0.2260
    119  O         15.7150  -51.5810    7.0510 O.2    92  LEU92      -0.2867
    120  CB        17.8470  -52.7530    8.4860 C.3    92  LEU92       0.0270
    121  CG        18.6990  -53.2590    9.6600 C.3    92  LEU92       0.0019
    122  CD1       19.9850  -52.4550    9.7570 C.3    92  LEU92       0.0001
    123  CD2       17.9300  -53.1840   10.9490 C.3    92  LEU92       0.0001
    124  N         24.4340  -41.4920    6.2140 N.3   116  SER116     -0.1202
    125  CA        24.0550  -42.6580    6.9980 C.3   116  SER116      0.2020
    126  C         22.6450  -43.0080    6.5800 C.2   116  SER116      0.2619
    127  O         22.0870  -42.3220    5.7380 O.2   116  SER116     -0.2717
    128  CB        24.1390  -42.3760    8.5080 C.3   116  SER116      0.2103
    129  OG        23.1180  -41.4780    8.9230 O.3   116  SER116     -0.2182
    130  N         22.0550  -44.0450    7.1670 N.am  117  ILE117     -0.1965
    131  CA        20.6570  -44.3470    6.8920 C.3   117  ILE117      0.1727
    132  C         19.7320  -43.1740    7.2570 C.2   117  ILE117      0.2616
    133  O         18.6440  -43.0550    6.7130 O.2   117  ILE117     -0.2715
    134  CB        20.1980  -45.6040    7.6490 C.3   117  ILE117      0.0290
    135  CG1       18.8730  -46.1360    7.0770 C.3   117  ILE117      0.0022
    136  CG2       20.1280  -45.3510    9.1670 C.3   117  ILE117      0.0023
    137  CD1       18.6840  -47.6310    7.3770 C.3   117  ILE117      0.0001
    138  N         20.2070  -42.2760    8.1220 N.am  118  ASP118     -0.1957
    139  CA        19.3840  -41.2900    8.8270 C.3   118  ASP118      0.1840
    140  C         19.7340  -39.8360    8.4660 C.2   118  ASP118      0.2621
    141  O         18.9030  -38.9470    8.6280 O.2   118  ASP118     -0.2715
    142  CB        19.5270  -41.5930   10.3420 C.3   118  ASP118      0.1450
    143  CG        19.3190  -40.4000   11.2800 C.2   118  ASP118      0.3671
    144  OD1       19.4900  -39.2080   10.9600 O.co2 118  ASP118     -0.2456
    145  OD2       18.9370  -40.6550   12.4270 O.co2 118  ASP118     -0.2456
    146  N         20.9500  -39.5740    7.9950 N.am  119  GLU119     -0.1977
    147  CA        21.3540  -38.1920    7.7490 C.3   119  GLU119      0.1602
    148  C         21.9720  -37.9830    6.3800 C.2   119  GLU119      0.2287
    149  O         22.4830  -38.9230    5.7700 O.2   119  GLU119     -0.2864
    150  CB        22.3410  -37.7140    8.8250 C.3   119  GLU119      0.0415
    151  CG        23.6860  -38.3910    8.7720 C.3   119  GLU119      0.1163
    152  CD        24.2180  -38.7190   10.1590 C.2   119  GLU119      0.3649
    153  OE1       25.2290  -38.1210   10.5790 O.co2 119  GLU119     -0.2457
    154  OE2       23.6270  -39.5810   10.8290 O.co2 119  GLU119     -0.2457
    155  N         27.5900  -30.6920   11.1400 N.3   222  LYS222     -0.1245
    156  CA        27.3360  -31.9110   11.9060 C.3   222  LYS222      0.1561
    157  C         27.3360  -31.6380   13.4060 C.2   222  LYS222      0.2260
    158  O         26.4280  -32.0510   14.1030 O.2   222  LYS222     -0.2867
    159  CB        28.3660  -32.9830   11.5630 C.3   222  LYS222      0.0271
    160  CG        28.3140  -34.2450   12.4420 C.3   222  LYS222      0.0035
    161  CD        27.0270  -35.0400   12.2340 C.3   222  LYS222      0.0206
    162  CE        27.0140  -36.3110   13.0910 C.3   222  LYS222      0.1093
    163  NZ        25.7470  -37.0930   12.9140 N.3   222  LYS222     -0.1314
    164  N         19.2160  -30.7060   19.4360 N.3   229  LYS229     -0.1245
    165  CA        18.2900  -31.8110   19.2800 C.3   229  LYS229      0.1561
    166  C         17.4100  -31.8860   20.5190 C.2   229  LYS229      0.2260
    167  O         17.8670  -31.5640   21.6120 O.2   229  LYS229     -0.2867
    168  CB        19.0460  -33.1320   19.0590 C.3   229  LYS229      0.0271
    169  CG        19.5250  -33.3260   17.6350 C.3   229  LYS229      0.0035
    170  CD        20.0710  -34.7350   17.3450 C.3   229  LYS229      0.0206
    171  CE        20.1150  -35.0020   15.8240 C.3   229  LYS229      0.1093
    172  NZ        18.9100  -35.7900   15.3340 N.3   229  LYS229     -0.1314
@<TRIPOS>BOND
     1   127   126    2
     2   149   148    2
     3   124   125    1
     4   148   147    1
     5   126   125    1
     6   126   130   am
     7   133   132    2
     8   131   130    1
     9   131   132    1
    10   131   134    1
    11   125   128    1
    12   119   118    2
    13   135   137    1
    14   135   134    1
    15   118   117    1
    16   132   138   am
    17   134   136    1
    18   147   146    1
    19   147   150    1
    20   146   140   am
    21   116   117    1
    22   138   139    1
    23   117   120    1
    24   140   141    2
    25   140   139    1
    26   120   121    1
    27   128   129    1
    28    41    40   ar
    29    41    39   ar
    30   151   150    1
    31   151   152    1
    32   139   142    1
    33    40    38   ar
    34    15    16    1
    35    15    14    1
    36    39    37   ar
    37   121   122    1
    38   121   123    1
    39    14    13    1
    40   152   153   ar
    41   152   154   ar
    42    38    36   ar
    43   142   143    1
    44     1     2    1
    45    37    36   ar
    46   144   143   ar
    47     2     3    1
    48     2     5    1
    49    36    35    1
    50   155   156    1
    51    13    10    1
    52   143   145   ar
    53     9     3   am
    54     9    10    1
    55    50    52   ar
    56    50    48   ar
    57    52    51   ar
    58   159   156    1
    59   159   160    1
    60     3     4    2
    61    10    11    1
    62   156   157    1
    63     5     6    1
    64     8     6   ar
    65   161   160    1
    66   161   162    1
    67    48    47   ar
    68    35    32    1
    69    51    49   ar
    70     6     7   ar
    71   163   162    1
    72    34    33    2
    73    11    12    2
    74    11    17   am
    75   157   158    2
    76    47    49   ar
    77    47    46    1
    78    32    33    1
    79    32    31    1
    80    33    42   am
    81    42    43    1
    82    43    46    1
    83    43    44    1
    84    17    18    1
    85    45    44    2
    86    31    27   am
    87    60    59    2
    88    20    19    2
    89   172   171    1
    90    18    19    1
    91    18    21    1
    92    69    67    1
    93   171   170    1
    94    19    25   am
    95    23    22   ar
    96    27    28    2
    97    27    26    1
    98    22    24   ar
    99    22    21    1
   100    59    61   am
   101    59    58    1
   102    25    26    1
   103    57    58    1
   104    57    54    1
   105    67    66    1
   106    26    29    1
   107   170   169    1
   108    66    68    1
   109    66    63    1
   110   169   168    1
   111   115   113    1
   112    74    71    1
   113    54    53    1
   114    54    55    1
   115    65    64    2
   116    29    30    1
   117   112   113    2
   118   112   111    1
   119   113   114    1
   120    64    63    1
   121    64    70   am
   122    55    56    2
   123    63    62    1
   124   168   165    1
   125    71    70    1
   126    71    72    1
   127   165   164    1
   128   165   166    1
   129   111   110    1
   130    93    92    1
   131    90    92   ar
   132    90    88   ar
   133   104   102    1
   134    72    73    2
   135    72    75   am
   136    92    91   ar
   137   166   167    2
   138   110   109    1
   139    75    76    1
   140    88    87   ar
   141   102   103    1
   142   102   101    2
   143    78    77    2
   144   109   106    1
   145    91    89   ar
   146    77    76    1
   147    76    79    1
   148   101   100    1
   149    87    89   ar
   150    87    86    1
   151   106   107    1
   152   106   105    1
   153    82    83    1
   154    79    81    1
   155    79    80    1
   156   107   108    2
   157    86    83    1
   158   100    99    1
   159    83    84    1
   160    99    98    1
   161    84    85    2
   162    98    95    1
   163    94    95    1
   164    95    96    1
   165    96    97    2
