@<TRIPOS>MOLECULE
tmp/5dlmC00.pdb
 160 157 0 0 0
SMALL
GASTEIGER

@<TRIPOS>ATOM
      1  N         29.7500   15.3190    6.3130 N.3    30  THR30      -0.1203
      2  CA        30.2520   14.6790    7.5540 C.3    30  THR30       0.1994
      3  C         29.2210   14.8450    8.7600 C.2    30  THR30       0.2618
      4  O         29.3210   14.1450    9.7240 O.2    30  THR30      -0.2717
      5  CB        31.7880   14.9680    7.8780 C.3    30  THR30       0.1784
      6  OG1       32.0300   16.3330    8.2530 O.3    30  THR30      -0.2211
      7  CG2       32.7100   14.6660    6.6920 C.3    30  THR30       0.0376
      8  N         28.1880   15.6930    8.6250 N.am   31  TYR31      -0.1961
      9  CA        27.1220   15.8970    9.6240 C.3    31  TYR31       0.1771
     10  C         25.6940   15.5140    9.1990 C.2    31  TYR31       0.2619
     11  O         25.3480   15.3690    8.0440 O.2    31  TYR31      -0.2715
     12  CB        27.1280   17.3500   10.0490 C.3    31  TYR31       0.0574
     13  CG        28.3570   17.7570   10.7390 C.ar   31  TYR31      -0.0198
     14  CD1       28.3870   17.8640   12.1140 C.ar   31  TYR31      -0.0009
     15  CD2       29.5080   18.0440   10.0280 C.ar   31  TYR31      -0.0009
     16  CE1       29.5350   18.2580   12.7740 C.ar   31  TYR31       0.0417
     17  CE2       30.6630   18.4020   10.6500 C.ar   31  TYR31       0.0417
     18  CZ        30.6700   18.5120   12.0150 C.ar   31  TYR31       0.1957
     19  OH        31.8090   18.8870   12.6390 O.3    31  TYR31      -0.2866
     20  N         24.8770   15.3160   10.2070 N.am   32  ALA32      -0.1977
     21  CA        23.4240   15.2430   10.0600 C.3    32  ALA32       0.1597
     22  C         22.8930   16.6700   10.0020 C.2    32  ALA32       0.2287
     23  O         23.3680   17.5260   10.7580 O.2    32  ALA32      -0.2864
     24  CB        22.7790   14.4720   11.2540 C.3    32  ALA32       0.0319
     25  N         19.1430   18.9400    9.8020 N.3    34  SER34      -0.1217
     26  CA        17.7080   18.8180   10.1480 C.3    34  SER34       0.1889
     27  C         17.0410   20.2060   10.0240 C.2    34  SER34       0.2288
     28  O         17.7120   21.2320    9.9710 O.2    34  SER34      -0.2866
     29  CB        17.4900   18.2050   11.5690 C.3    34  SER34       0.2089
     30  OG        18.3160   17.0390   11.8300 O.3    34  SER34      -0.2183
     31  N         13.9870   22.1880   12.1440 N.3    36  VAL36      -0.1245
     32  CA        13.0820   22.3320   13.2840 C.3    36  VAL36       0.1561
     33  C         12.4500   23.7120   13.1480 C.2    36  VAL36       0.2260
     34  O         13.1370   24.7220   12.8470 O.2    36  VAL36      -0.2867
     35  CB        13.8680   22.3130   14.6240 C.3    36  VAL36       0.0252
     36  CG1       12.9820   22.5480   15.8450 C.3    36  VAL36       0.0019
     37  CG2       14.6200   21.0310   14.7430 C.3    36  VAL36       0.0019
     38  N         10.1060   19.1980   15.4930 N.3    46  TRP46      -0.1241
     39  CA        11.0210   18.5810   14.5470 C.3    46  TRP46       0.1605
     40  C         10.2170   18.2660   13.2700 C.2    46  TRP46       0.2264
     41  O          9.1220   17.7240   13.3440 O.2    46  TRP46      -0.2867
     42  CB        11.6150   17.2810   15.0950 C.3    46  TRP46       0.0550
     43  CG        12.2910   16.4390   14.0910 C.ar   46  TRP46       0.0003
     44  CD1       13.4780   16.6960   13.4880 C.ar   46  TRP46       0.0946
     45  CD2       11.8400   15.1770   13.5820 C.ar   46  TRP46       0.0152
     46  NE1       13.8070   15.6630   12.6240 N.ar   46  TRP46      -0.2442
     47  CE2       12.8320   14.7090   12.6840 C.ar   46  TRP46       0.0810
     48  CE3       10.7210   14.3790   13.8230 C.ar   46  TRP46       0.0012
     49  CZ2       12.7000   13.5390   12.0030 C.ar   46  TRP46       0.0191
     50  CZ3       10.6190   13.2490   13.2050 C.ar   46  TRP46       0.0001
     51  CH2       11.5820   12.8220   12.2630 C.ar   46  TRP46       0.0015
     52  N         14.9570   15.2360    9.1660 N.3    49  SER49      -0.1217
     53  CA        16.4070   15.0040    9.3050 C.3    49  SER49       0.1889
     54  C         16.9680   14.2380    8.1470 C.2    49  SER49       0.2288
     55  O         16.3090   13.3910    7.5930 O.2    49  SER49      -0.2866
     56  CB        16.7510   14.2330   10.5750 C.3    49  SER49       0.2089
     57  OG        16.5030   15.0250   11.6930 O.3    49  SER49      -0.2183
     58  N         20.5930   12.0970    7.8010 N.3    51  SER51      -0.1202
     59  CA        21.8430   11.7060    8.4300 C.3    51  SER51       0.2020
     60  C         23.0420   11.9540    7.4800 C.2    51  SER51       0.2619
     61  O         22.8830   12.2280    6.3100 O.2    51  SER51      -0.2717
     62  CB        21.8350   10.2390    8.8390 C.3    51  SER51       0.2103
     63  OG        21.5790    9.4040    7.7150 O.3    51  SER51      -0.2182
     64  N         24.2320   11.9530    8.0420 N.am   52  SER52      -0.1937
     65  CA        25.4380   12.0710    7.3030 C.3    52  SER52       0.2055
     66  C         25.4660   11.1130    6.1330 C.2    52  SER52       0.2643
     67  O         25.7990   11.4940    4.9860 O.2    52  SER52      -0.2714
     68  CB        26.5600   11.7340    8.2710 C.3    52  SER52       0.2130
     69  OG        27.8140   11.8960    7.7220 O.3    52  SER52      -0.2179
     70  N         25.0760    9.8710    6.4240 N.am   53  GLY53      -0.1954
     71  CA        24.9180    8.8540    5.4140 C.3    53  GLY53       0.1869
     72  C         23.7810    9.0510    4.4240 C.2    53  GLY53       0.2309
     73  O         23.7170    8.3050    3.4740 O.2    53  GLY53      -0.2863
     74  N         20.2280    8.9820    5.0690 N.3    55  SER55      -0.1217
     75  CA        18.8810    8.5110    5.4360 C.3    55  SER55       0.1889
     76  C         17.9870    9.7170    5.7740 C.2    55  SER55       0.2288
     77  O         18.4420   10.7120    6.3850 O.2    55  SER55      -0.2866
     78  CB        18.8880    7.4590    6.5900 C.3    55  SER55       0.2089
     79  OG        19.7600    6.3730    6.3170 O.3    55  SER55      -0.2183
     80  N         14.2960   11.1970    7.3180 N.3    57  TYR57      -0.1241
     81  CA        13.3740   10.9480    8.4370 C.3    57  TYR57       0.1605
     82  C         12.4190   12.1390    8.6330 C.2    57  TYR57       0.2264
     83  O         12.8530   13.3100    8.5080 O.2    57  TYR57      -0.2867
     84  CB        14.1500   10.7880    9.7090 C.3    57  TYR57       0.0534
     85  CG        15.1060    9.6760    9.7270 C.ar   57  TYR57      -0.0201
     86  CD1       14.7070    8.3720   10.0610 C.ar   57  TYR57      -0.0009
     87  CD2       16.4390    9.9010    9.4320 C.ar   57  TYR57      -0.0009
     88  CE1       15.6400    7.3330   10.1040 C.ar   57  TYR57       0.0417
     89  CE2       17.3840    8.8630    9.4820 C.ar   57  TYR57       0.0417
     90  CZ        16.9910    7.5980    9.8430 C.ar   57  TYR57       0.1957
     91  OH        17.9670    6.5940    9.8410 O.3    57  TYR57      -0.2866
     92  N         19.6080   22.8310   11.3220 N.3    95  VAL95      -0.1231
     93  CA        20.3930   22.3640   12.4800 C.3    95  VAL95       0.1692
     94  C         21.4340   21.3420   12.0510 C.2    95  VAL95       0.2592
     95  O         21.0650   20.3600   11.3790 O.2    95  VAL95      -0.2718
     96  CB        19.4870   21.6350   13.4820 C.3    95  VAL95       0.0266
     97  CG1       20.3110   21.1690   14.6790 C.3    95  VAL95       0.0020
     98  CG2       18.3160   22.5190   13.8950 C.3    95  VAL95       0.0020
     99  N         22.7110   21.6230   12.3460 N.am   96  ARG96      -0.1966
    100  CA        23.7930   20.6840   12.2140 C.3    96  ARG96       0.1729
    101  C         23.9720   19.8800   13.4910 C.2    96  ARG96       0.2617
    102  O         24.1840   20.4270   14.5460 O.2    96  ARG96      -0.2715
    103  CB        25.1000   21.4210   11.9680 C.3    96  ARG96       0.0348
    104  CG        26.2350   20.4480   11.6840 C.3    96  ARG96       0.0492
    105  CD        27.5560   21.1390   11.5240 C.3    96  ARG96       0.2205
    106  NE        28.1300   21.4560   12.8130 N.pl3  96  ARG96      -0.0865
    107  CZ        29.3090   22.0510   12.9760 C.cat  96  ARG96       0.5346
    108  NH1       30.0630   22.4270   11.9360 N.pl3  96  ARG96       0.1354
    109  NH2       29.7680   22.2440   14.1990 N.pl3  96  ARG96       0.1354
    110  N         24.0150   18.5680   13.3570 N.am   97  GLY97      -0.1940
    111  CA        24.2670   17.6700   14.4630 C.3    97  GLY97       0.2014
    112  C         25.4050   16.6830   14.1870 C.2    97  GLY97       0.2639
    113  O         25.5390   16.1220   13.1060 O.2    97  GLY97      -0.2714
    114  N         26.2320   16.5240   15.2060 N.am   98  GLY98      -0.1939
    115  CA        27.2640   15.5500   15.2160 C.3    98  GLY98       0.2014
    116  C         28.2040   15.6920   16.3710 C.2    98  GLY98       0.2639
    117  O         28.5270   16.8130   16.8240 O.2    98  GLY98      -0.2714
    118  N         28.6850   14.5480   16.8350 N.am   99  TYR99      -0.1959
    119  CA        29.8200   14.4880   17.7420 C.3    99  TYR99       0.1771
    120  C         29.4910   15.1250   19.0790 C.2    99  TYR99       0.2620
    121  O         30.3490   15.7040   19.6910 O.2    99  TYR99      -0.2715
    122  CB        31.0810   15.1450   17.0620 C.3    99  TYR99       0.0574
    123  CG        31.4470   14.5390   15.7140 C.ar   99  TYR99      -0.0198
    124  CD1       31.7680   13.1560   15.6120 C.ar   99  TYR99      -0.0009
    125  CD2       31.4270   15.2920   14.5570 C.ar   99  TYR99      -0.0009
    126  CE1       32.0540   12.5960   14.3880 C.ar   99  TYR99       0.0417
    127  CE2       31.7370   14.7160   13.3200 C.ar   99  TYR99       0.0417
    128  CZ        32.0420   13.3810   13.2420 C.ar   99  TYR99       0.1957
    129  OH        32.3690   12.8160   12.0130 O.3    99  TYR99      -0.2866
    130  N         28.2210   15.0560   19.4940 N.am  100  GLY100     -0.1940
    131  CA        27.7810   15.6870   20.7410 C.3   100  GLY100      0.2014
    132  C         27.6240   17.2000   20.6250 C.2   100  GLY100      0.2640
    133  O         27.9030   17.9260   21.5920 O.2   100  GLY100     -0.2714
    134  N         27.2240   17.6860   19.4450 N.am  101  THR101     -0.1936
    135  CA        27.1200   19.0980   19.2110 C.3   101  THR101      0.2028
    136  C         25.9310   19.3540   18.3340 C.2   101  THR101      0.2642
    137  O         25.6250   18.5530   17.5120 O.2   101  THR101     -0.2714
    138  CB        28.3930   19.7230   18.4580 C.3   101  THR101      0.1808
    139  OG1       28.3490   19.4320   17.0700 O.3   101  THR101     -0.2208
    140  CG2       29.8140   19.2810   19.0830 C.3   101  THR101      0.0379
    141  N         25.3650   20.5440   18.4520 N.am  102  SER102     -0.1949
    142  CA        24.1910   20.9930   17.6460 C.3   102  SER102      0.1924
    143  C         24.4720   22.4390   17.4180 C.2   102  SER102      0.2314
    144  O         24.9770   23.1250   18.3360 O.2   102  SER102     -0.2863
    145  CB        22.8460   20.8450   18.4170 C.3   102  SER102      0.2116
    146  OG        21.7090   21.0040   17.5950 O.3   102  SER102     -0.2180
    147  N         22.4150   25.6680   15.3400 N.3   104  TRP104     -0.1241
    148  CA        21.2160   26.0350   14.6390 C.3   104  TRP104      0.1605
    149  C         21.4960   27.3980   13.9280 C.2   104  TRP104      0.2264
    150  O         22.0860   28.2730   14.5100 O.2   104  TRP104     -0.2867
    151  CB        20.0920   26.2420   15.6340 C.3   104  TRP104      0.0550
    152  CG        19.6630   25.0450   16.3940 C.ar  104  TRP104      0.0003
    153  CD1       20.4480   24.0660   16.9070 C.ar  104  TRP104      0.0946
    154  CD2       18.3240   24.7150   16.7430 C.ar  104  TRP104      0.0152
    155  NE1       19.7120   23.2030   17.6240 N.ar  104  TRP104     -0.2442
    156  CE2       18.3840   23.5260   17.4870 C.ar  104  TRP104      0.0810
    157  CE3       17.0750   25.2890   16.4750 C.ar  104  TRP104      0.0012
    158  CZ2       17.2490   22.9040   18.0030 C.ar  104  TRP104      0.0191
    159  CZ3       15.9150   24.6630   16.9870 C.ar  104  TRP104      0.0001
    160  CH2       16.0270   23.4710   17.7380 C.ar  104  TRP104      0.0015
@<TRIPOS>BOND
     1    73    72    2
     2    72    71    1
     3    67    66    2
     4    74    75    1
     5    71    70    1
     6    75    76    1
     7    75    78    1
     8    76    77    2
     9    66    70   am
    10    66    65    1
    11    61    60    2
    12     1     2    1
    13    79    78    1
    14     7     5    1
    15    65    64    1
    16    65    68    1
    17    80    81    1
    18    60    64   am
    19    60    59    1
    20     2     5    1
    21     2     3    1
    22    55    54    2
    23    63    62    1
    24    69    68    1
    25    58    59    1
    26     5     6    1
    27    11    10    2
    28    54    53    1
    29    59    62    1
    30    81    82    1
    31    81    84    1
    32    83    82    2
    33     8     3   am
    34     8     9    1
    35     3     4    2
    36    52    53    1
    37    10     9    1
    38    10    20   am
    39    53    56    1
    40    87    89   ar
    41    87    85   ar
    42    89    90   ar
    43     9    12    1
    44    84    85    1
    45    85    86   ar
    46    25    26    1
    47    91    90    1
    48    90    88   ar
    49    28    27    2
    50    22    21    1
    51    22    23    2
    52    27    26    1
    53    15    17   ar
    54    15    13   ar
    55    12    13    1
    56    21    20    1
    57    21    24    1
    58    86    88   ar
    59    26    29    1
    60    56    57    1
    61    17    18   ar
    62    13    14   ar
    63    92    93    1
    64    95    94    2
    65   105   104    1
    66   105   106    1
    67    29    30    1
    68   104   103    1
    69   108   107    1
    70   103   100    1
    71    49    51   ar
    72    49    47   ar
    73   129   128    1
    74    18    19    1
    75    18    16   ar
    76    94    99   am
    77    94    93    1
    78    14    16   ar
    79    31    32    1
    80   100    99    1
    81   100   101    1
    82    51    50   ar
    83    93    96    1
    84    46    47   ar
    85    46    44   ar
    86    47    45   ar
    87   106   107    2
    88    34    33    2
    89   107   109    1
    90   113   112    2
    91    33    32    1
    92    50    48   ar
    93   128   127   ar
    94   128   126   ar
    95    40    41    2
    96    40    39    1
    97    32    35    1
    98   127   125   ar
    99   110   101   am
   100   110   111    1
   101    96    98    1
   102    96    97    1
   103    44    43   ar
   104   101   102    2
   105    45    48   ar
   106    45    43   ar
   107   149   150    2
   108   149   148    1
   109    43    42    1
   110   112   111    1
   111   112   114   am
   112   126   124   ar
   113    39    42    1
   114    39    38    1
   115   125   123   ar
   116    35    37    1
   117    35    36    1
   118   148   147    1
   119   148   151    1
   120   114   115    1
   121   115   116    1
   122   124   123   ar
   123   151   152    1
   124   123   122    1
   125   116   117    2
   126   116   118   am
   127   152   154   ar
   128   152   153   ar
   129   157   154   ar
   130   157   159   ar
   131   154   156   ar
   132   118   119    1
   133   153   155   ar
   134   159   160   ar
   135   122   119    1
   136   139   138    1
   137   143   142    1
   138   143   144    2
   139   156   155   ar
   140   156   158   ar
   141   137   136    2
   142   146   145    1
   143   142   145    1
   144   142   141    1
   145   160   158   ar
   146   119   120    1
   147   136   141   am
   148   136   135    1
   149   138   140    1
   150   138   135    1
   151   120   130   am
   152   120   121    2
   153   135   134    1
   154   134   132   am
   155   130   131    1
   156   132   131    1
   157   132   133    2
