@<TRIPOS>MOLECULE
tmp/5dlmD00.pdb
 121 118 0 0 0
SMALL
GASTEIGER

@<TRIPOS>ATOM
      1  N         16.9460    4.2120   24.4410 N.3    31  HIS31      -0.1241
      2  CA        16.9310    3.5530   23.1330 C.3    31  HIS31       0.1621
      3  C         17.5790    2.1850   23.3690 C.2    31  HIS31       0.2264
      4  O         18.8200    2.0920   23.5590 O.2    31  HIS31      -0.2867
      5  CB        17.6000    4.3480   21.9750 C.3    31  HIS31       0.0745
      6  CG        17.5350    3.6170   20.6520 C.ar   31  HIS31       0.0817
      7  ND1       16.3340    3.2240   20.0800 N.ar   31  HIS31      -0.2268
      8  CD2       18.5070    3.1580   19.8220 C.ar   31  HIS31       0.1154
      9  CE1       16.5670    2.5780   18.9490 C.ar   31  HIS31       0.1986
     10  NE2       17.8760    2.5270   18.7680 N.ar   31  HIS31      -0.2212
     11  N         18.6970    9.6940   24.8340 N.3    37  TYR37      -0.1241
     12  CA        19.0440   10.8850   24.0930 C.3    37  TYR37       0.1605
     13  C         18.1200   12.0100   24.5550 C.2    37  TYR37       0.2264
     14  O         17.2010   12.4080   23.8240 O.2    37  TYR37      -0.2867
     15  CB        18.9530   10.6540   22.5860 C.3    37  TYR37       0.0534
     16  CG        20.0050    9.6860   22.1080 C.ar   37  TYR37      -0.0201
     17  CD1       21.2870   10.1210   21.8570 C.ar   37  TYR37      -0.0009
     18  CD2       19.7160    8.3280   21.9210 C.ar   37  TYR37      -0.0009
     19  CE1       22.2730    9.2570   21.4340 C.ar   37  TYR37       0.0417
     20  CE2       20.6940    7.4310   21.4480 C.ar   37  TYR37       0.0417
     21  CZ        21.9840    7.9070   21.2020 C.ar   37  TYR37       0.1957
     22  OH        23.0030    7.0340   20.7430 O.3    37  TYR37      -0.2866
     23  N         17.9870   15.9740   25.7080 N.3    39  GLU39      -0.1245
     24  CA        18.7620   17.1710   25.4850 C.3    39  GLU39       0.1567
     25  C         18.0280   18.3340   26.0810 C.2    39  GLU39       0.2260
     26  O         16.7630   18.3750   26.1780 O.2    39  GLU39      -0.2867
     27  CB        19.0080   17.4090   23.9950 C.3    39  GLU39       0.0388
     28  CG        19.8260   16.2570   23.4050 C.3    39  GLU39       0.1160
     29  CD        19.8780   16.1130   21.8450 C.2    39  GLU39       0.3649
     30  OE1       19.4560   17.0210   21.1020 O.co2  39  GLU39      -0.2457
     31  OE2       20.3540   15.0260   21.3970 O.co2  39  GLU39      -0.2457
     32  N         17.9280   22.6500   25.5150 N.3    41  TYR41      -0.1241
     33  CA        18.2420   23.7730   24.6880 C.3    41  TYR41       0.1605
     34  C         17.7830   25.0240   25.3920 C.2    41  TYR41       0.2264
     35  O         16.8440   24.9800   26.1640 O.2    41  TYR41      -0.2867
     36  CB        17.5260   23.6880   23.3400 C.3    41  TYR41       0.0534
     37  CG        18.0800   22.5720   22.4840 C.ar   41  TYR41      -0.0201
     38  CD1       19.1380   22.8000   21.6280 C.ar   41  TYR41      -0.0009
     39  CD2       17.4860   21.2470   22.5140 C.ar   41  TYR41      -0.0009
     40  CE1       19.6840   21.7680   20.8750 C.ar   41  TYR41       0.0417
     41  CE2       18.0370   20.2090   21.7830 C.ar   41  TYR41       0.0417
     42  CZ        19.1180   20.4930   20.9410 C.ar   41  TYR41       0.1957
     43  OH        19.6490   19.5180   20.1750 O.3    41  TYR41      -0.2866
     44  N         22.2240   24.4460   22.2640 N.3    51  LEU51      -0.1245
     45  CA        22.3610   23.2400   23.0880 C.3    51  LEU51       0.1561
     46  C         23.0260   23.5420   24.4030 C.2    51  LEU51       0.2260
     47  O         24.0730   24.2360   24.4630 O.2    51  LEU51      -0.2867
     48  CB        23.1990   22.1970   22.2900 C.3    51  LEU51       0.0270
     49  CG        23.3600   20.8770   23.0350 C.3    51  LEU51       0.0019
     50  CD1       22.0550   20.1100   23.0540 C.3    51  LEU51       0.0001
     51  CD2       24.4130   20.0640   22.3320 C.3    51  LEU51       0.0001
     52  N         23.3810   17.2650   26.4870 N.3    54  TYR54      -0.1227
     53  CA        23.0020   16.1290   25.6810 C.3    54  TYR54       0.1736
     54  C         23.1820   14.8510   26.4900 C.2    54  TYR54       0.2595
     55  O         23.8080   14.8340   27.4790 O.2    54  TYR54      -0.2718
     56  CB        23.7530   16.1260   24.3260 C.3    54  TYR54       0.0548
     57  CG        25.2740   15.9670   24.4280 C.ar   54  TYR54      -0.0200
     58  CD1       26.0780   17.0040   24.8230 C.ar   54  TYR54      -0.0009
     59  CD2       25.8760   14.7940   24.1000 C.ar   54  TYR54      -0.0009
     60  CE1       27.4580   16.8450   24.9750 C.ar   54  TYR54       0.0417
     61  CE2       27.2700   14.6420   24.2260 C.ar   54  TYR54       0.0417
     62  CZ        28.0520   15.6510   24.6750 C.ar   54  TYR54       0.1957
     63  OH        29.3940   15.4500   24.8720 O.3    54  TYR54      -0.2866
     64  N         22.5400   13.7850   26.0650 N.am   55  LYS55      -0.1980
     65  CA        22.4620   12.5340   26.7750 C.3    55  LYS55       0.1596
     66  C         22.3220   12.6630   28.2630 C.2    55  LYS55       0.2287
     67  O         23.1010   12.1370   29.0280 O.2    55  LYS55      -0.2864
     68  CB        23.6530   11.7120   26.4980 C.3    55  LYS55       0.0298
     69  CG        23.6990   11.2820   25.0720 C.3    55  LYS55       0.0038
     70  CD        25.0100   10.5560   24.8920 C.3    55  LYS55       0.0206
     71  CE        25.3050   10.3780   23.4470 C.3    55  LYS55       0.1093
     72  NZ        26.4380    9.3960   23.3720 N.3    55  LYS55      -0.1314
     73  N         14.1950   18.0130   25.1040 N.3    94  PHE94      -0.1241
     74  CA        14.0500   17.3270   23.8270 C.3    94  PHE94       0.1605
     75  C         14.4760   15.8800   23.9130 C.2    94  PHE94       0.2264
     76  O         15.4430   15.5420   24.5930 O.2    94  PHE94      -0.2867
     77  CB        14.8550   18.0780   22.7710 C.3    94  PHE94       0.0534
     78  CG        15.0520   17.3150   21.4830 C.ar   94  PHE94      -0.0203
     79  CD1       16.0720   16.4350   21.3550 C.ar   94  PHE94      -0.0042
     80  CD2       14.1870   17.4850   20.4390 C.ar   94  PHE94      -0.0042
     81  CE1       16.1970   15.6920   20.1910 C.ar   94  PHE94      -0.0003
     82  CE2       14.3340   16.7770   19.2560 C.ar   94  PHE94      -0.0003
     83  CZ        15.3530   15.9040   19.1200 C.ar   94  PHE94      -0.0000
     84  N         15.4610   12.5020   21.5000 N.3    96  GLY96      -0.1225
     85  CA        15.8040   11.9360   20.2510 C.3    96  GLY96       0.1811
     86  C         16.0450   10.4560   20.3130 C.2    96  GLY96       0.2280
     87  O         16.7270    9.9370   19.4920 O.2    96  GLY96      -0.2866
     88  N         11.4080    8.1050   17.2010 N.3    99  PHE99      -0.1241
     89  CA        10.7190    8.8990   16.1930 C.3    99  PHE99       0.1605
     90  C          9.2680    8.8290   16.4850 C.2    99  PHE99       0.2264
     91  O          8.7850    7.7890   16.7080 O.2    99  PHE99      -0.2867
     92  CB        10.9680    8.3620   14.7980 C.3    99  PHE99       0.0534
     93  CG        12.3700    8.6410   14.3030 C.ar   99  PHE99      -0.0203
     94  CD1       12.7640    9.9690   13.9970 C.ar   99  PHE99      -0.0042
     95  CD2       13.3210    7.6130   14.2020 C.ar   99  PHE99      -0.0042
     96  CE1       14.0470   10.2500   13.5660 C.ar   99  PHE99      -0.0003
     97  CE2       14.5900    7.8870   13.7810 C.ar   99  PHE99      -0.0003
     98  CZ        14.9700    9.2110   13.4980 C.ar   99  PHE99      -0.0000
     99  N         10.8340   12.6450   16.8860 N.3   101  TYR101     -0.1241
    100  CA        11.5320   13.4310   17.8980 C.3   101  TYR101      0.1605
    101  C         10.5330   14.4180   18.4620 C.2   101  TYR101      0.2264
    102  O          9.6840   14.9590   17.6950 O.2   101  TYR101     -0.2867
    103  CB        12.6610   14.2020   17.2450 C.3   101  TYR101      0.0534
    104  CG        13.8490   13.3870   16.7370 C.ar  101  TYR101     -0.0201
    105  CD1       14.0620   12.0520   17.1260 C.ar  101  TYR101     -0.0009
    106  CD2       14.7720   13.9780   15.8600 C.ar  101  TYR101     -0.0009
    107  CE1       15.1900   11.3510   16.6930 C.ar  101  TYR101      0.0417
    108  CE2       15.8840   13.2760   15.3820 C.ar  101  TYR101      0.0417
    109  CZ        16.1060   11.9700   15.8190 C.ar  101  TYR101      0.1957
    110  OH        17.2000   11.2970   15.3820 O.3   101  TYR101     -0.2866
    111  N          9.7280   17.8100   21.5650 N.3   103  PHE103     -0.1241
    112  CA        10.1710   18.7770   22.5000 C.3   103  PHE103      0.1605
    113  C          9.1280   18.9750   23.6210 C.2   103  PHE103      0.2264
    114  O          7.9010   18.8800   23.4050 O.2   103  PHE103     -0.2867
    115  CB        10.3210   20.1230   21.8140 C.3   103  PHE103      0.0534
    116  CG        11.4920   20.2080   20.8190 C.ar  103  PHE103     -0.0203
    117  CD1       11.3360   19.8370   19.4790 C.ar  103  PHE103     -0.0042
    118  CD2       12.7380   20.6660   21.2310 C.ar  103  PHE103     -0.0042
    119  CE1       12.3870   19.9780   18.5710 C.ar  103  PHE103     -0.0003
    120  CE2       13.7860   20.7970   20.3270 C.ar  103  PHE103     -0.0003
    121  CZ        13.6200   20.4310   19.0000 C.ar  103  PHE103     -0.0000
@<TRIPOS>BOND
     1    98    96   ar
     2    98    97   ar
     3    96    94   ar
     4    97    95   ar
     5    94    93   ar
     6    95    93   ar
     7    93    92    1
     8    92    89    1
     9   110   109    1
    10   108   109   ar
    11   108   106   ar
    12   109   107   ar
    13   106   104   ar
    14    89    90    1
    15    89    88    1
    16    90    91    2
    17   107   105   ar
    18   104   105   ar
    19   104   103    1
    20    99   100    1
    21   103   100    1
    22   102   101    2
    23   100   101    1
    24   119   121   ar
    25   119   117   ar
    26    10     9   ar
    27    10     8   ar
    28     9     7   ar
    29   121   120   ar
    30    83    82   ar
    31    83    81   ar
    32    82    80   ar
    33   117   116   ar
    34    87    86    2
    35     8     6   ar
    36     7     6   ar
    37    43    42    1
    38    81    79   ar
    39    85    86    1
    40    85    84    1
    41   120   118   ar
    42    80    78   ar
    43     6     5    1
    44    22    21    1
    45   116   118   ar
    46   116   115    1
    47    40    42   ar
    48    40    38   ar
    49    42    41   ar
    50    30    29   ar
    51    21    19   ar
    52    21    20   ar
    53    79    78   ar
    54    31    29   ar
    55    19    17   ar
    56    20    18   ar
    57    78    77    1
    58   111   112    1
    59    38    37   ar
    60    41    39   ar
    61   115   112    1
    62    29    28    1
    63    17    16   ar
    64    18    16   ar
    65     5     2    1
    66    16    15    1
    67    44    45    1
    68    48    49    1
    69    48    45    1
    70    51    49    1
    71    37    39   ar
    72    37    36    1
    73   112   113    1
    74    15    12    1
    75    77    74    1
    76    49    50    1
    77    45    46    1
    78     2     3    1
    79     2     1    1
    80    36    33    1
    81     3     4    2
    82    72    71    1
    83   114   113    2
    84    28    27    1
    85    71    70    1
    86    14    13    2
    87    74    75    1
    88    74    73    1
    89    75    76    2
    90    27    24    1
    91    12    13    1
    92    12    11    1
    93    59    61   ar
    94    59    57   ar
    95    61    62   ar
    96    56    57    1
    97    56    53    1
    98    46    47    2
    99    57    58   ar
   100    62    63    1
   101    62    60   ar
   102    33    34    1
   103    33    32    1
   104    58    60   ar
   105    70    69    1
   106    69    68    1
   107    34    35    2
   108    24    23    1
   109    24    25    1
   110    53    52    1
   111    53    54    1
   112    64    54   am
   113    64    65    1
   114    25    26    2
   115    54    55    2
   116    68    65    1
   117    65    66    1
   118    66    67    2
