@<TRIPOS>MOLECULE
tmp/5dlrB01.pdb
 186 175 0 0 0
SMALL
GASTEIGER

@<TRIPOS>ATOM
      1  N          0.7240   21.9240   11.7830 N.3    39  MET39      -0.1245
      2  CA         0.2920   20.7980   10.9650 C.3    39  MET39       0.1570
      3  C         -0.2670   19.6810   11.8340 C.2    39  MET39       0.2261
      4  O         -1.0650   18.8710   11.3710 O.2    39  MET39      -0.2867
      5  CB         1.4420   20.2750   10.1030 C.3    39  MET39       0.0387
      6  CG         1.8200   21.2030    8.9610 C.3    39  MET39       0.0595
      7  SD         0.4160   21.5320    7.8780 S.3    39  MET39      -0.1393
      8  CE         0.1270   19.9100    7.1810 C.3    39  MET39       0.0692
      9  N         -3.9260   20.8660   12.4920 N.3    42  LEU42      -0.1231
     10  CA        -4.7160   20.6520   11.2840 C.3    42  LEU42       0.1693
     11  C         -4.9740   19.1660   11.0490 C.2    42  LEU42       0.2592
     12  O         -6.0740   18.7750   10.6630 O.2    42  LEU42      -0.2718
     13  CB        -4.0170   21.2610   10.0650 C.3    42  LEU42       0.0284
     14  CG        -3.6410   22.7420   10.1540 C.3    42  LEU42       0.0019
     15  CD1       -3.0430   23.2300    8.8410 C.3    42  LEU42       0.0001
     16  CD2       -4.8440   23.5850   10.5440 C.3    42  LEU42       0.0001
     17  N         -3.9520   18.3490   11.2900 N.am   43  THR43      -0.1953
     18  CA        -4.0540   16.8990   11.1390 C.3    43  THR43       0.1897
     19  C         -5.0610   16.3190   12.1280 C.2    43  THR43       0.2313
     20  O         -5.9280   15.5280   11.7540 O.2    43  THR43      -0.2863
     21  CB        -2.6850   16.2220   11.3450 C.3    43  THR43       0.1794
     22  OG1       -1.7790   16.6540   10.3200 O.3    43  THR43      -0.2208
     23  CG2       -2.8110   14.7090   11.3010 C.3    43  THR43       0.0378
     24  N         -7.4080   18.0150   13.5220 N.3    45  LEU45      -0.1231
     25  CA        -8.6910   18.5600   13.0960 C.3    45  LEU45       0.1693
     26  C         -9.2800   17.7620   11.9340 C.2    45  LEU45       0.2591
     27  O        -10.4610   17.4150   11.9460 O.2    45  LEU45      -0.2718
     28  CB        -8.5490   20.0340   12.7100 C.3    45  LEU45       0.0284
     29  CG        -9.7940   20.7020   12.1220 C.3    45  LEU45       0.0019
     30  CD1      -10.9130   20.7750   13.1520 C.3    45  LEU45       0.0001
     31  CD2       -9.4610   22.0870   11.5840 C.3    45  LEU45       0.0001
     32  N         -8.4500   17.4630   10.9400 N.am   46  ALA46      -0.1980
     33  CA        -8.8980   16.7090    9.7750 C.3    46  ALA46       0.1597
     34  C         -9.3920   15.3200   10.1670 C.2    46  ALA46       0.2287
     35  O        -10.4020   14.8400    9.6530 O.2    46  ALA46      -0.2864
     36  CB        -7.7830   16.6080    8.7450 C.3    46  ALA46       0.0319
     37  N        -12.8220   15.5620   11.7120 N.3    49  GLU49      -0.1245
     38  CA       -13.7810   15.9290   10.6720 C.3    49  GLU49       0.1567
     39  C        -14.1430   14.7420    9.7860 C.2    49  GLU49       0.2260
     40  O        -15.2840   14.6180    9.3330 O.2    49  GLU49      -0.2867
     41  CB       -13.2250   17.0490    9.7950 C.3    49  GLU49       0.0388
     42  CG       -13.3320   18.4390   10.3860 C.3    49  GLU49       0.1160
     43  CD       -12.8640   19.4950    9.4090 C.2    49  GLU49       0.3649
     44  OE1      -13.7180   20.1210    8.7460 O.co2  49  GLU49      -0.2457
     45  OE2      -11.6380   19.6850    9.2920 O.co2  49  GLU49      -0.2457
     46  N        -11.8140   12.8780   -0.0790 N.3    79  TRP79      -0.1227
     47  CA       -11.8210   13.3650    1.3090 C.3    79  TRP79       0.1737
     48  C        -11.1660   14.7340    1.5140 C.2    79  TRP79       0.2595
     49  O        -11.6910   15.5740    2.2470 O.2    79  TRP79      -0.2718
     50  CB       -11.2220   12.3320    2.2740 C.3    79  TRP79       0.0564
     51  CG        -9.7400   12.1310    2.1400 C.ar   79  TRP79       0.0003
     52  CD1       -9.1040   11.2310    1.3360 C.ar   79  TRP79       0.0946
     53  CD2       -8.7070   12.8390    2.8440 C.ar   79  TRP79       0.0152
     54  NE1       -7.7420   11.3360    1.4910 N.ar   79  TRP79      -0.2442
     55  CE2       -7.4740   12.3130    2.4090 C.ar   79  TRP79       0.0810
     56  CE3       -8.7090   13.8620    3.7950 C.ar   79  TRP79       0.0012
     57  CZ2       -6.2530   12.7820    2.8930 C.ar   79  TRP79       0.0191
     58  CZ3       -7.4940   14.3250    4.2740 C.ar   79  TRP79       0.0001
     59  CH2       -6.2840   13.7850    3.8220 C.ar   79  TRP79       0.0015
     60  N        -10.0250   14.9570    0.8700 N.am   80  LEU80      -0.1980
     61  CA        -9.3150   16.2230    1.0110 C.3    80  LEU80       0.1596
     62  C         -9.9970   17.3340    0.2150 C.2    80  LEU80       0.2287
     63  O        -10.0370   18.4810    0.6580 O.2    80  LEU80      -0.2864
     64  CB        -7.8500   16.0750    0.5980 C.3    80  LEU80       0.0297
     65  CG        -6.9500   17.2860    0.8530 C.3    80  LEU80       0.0022
     66  CD1       -7.0480   17.7390    2.3010 C.3    80  LEU80       0.0001
     67  CD2       -5.5050   16.9640    0.4920 C.3    80  LEU80       0.0001
     68  N        -12.8340   18.3660    2.5060 N.3    83  LEU83      -0.1231
     69  CA       -12.3620   19.1620    3.6340 C.3    83  LEU83       0.1693
     70  C        -11.9880   20.5620    3.1590 C.2    83  LEU83       0.2591
     71  O        -12.3090   21.5570    3.8110 O.2    83  LEU83      -0.2718
     72  CB       -11.1620   18.4990    4.3160 C.3    83  LEU83       0.0284
     73  CG       -11.4330   17.2500    5.1570 C.3    83  LEU83       0.0019
     74  CD1      -10.1470   16.7050    5.7380 C.3    83  LEU83       0.0001
     75  CD2      -12.4310   17.5540    6.2610 C.3    83  LEU83       0.0001
     76  N        -11.3220   20.6300    2.0120 N.am   84  MET84      -0.1979
     77  CA       -10.8570   21.9030    1.4730 C.3    84  MET84       0.1605
     78  C        -11.9860   22.8380    1.0480 C.2    84  MET84       0.2287
     79  O        -11.9250   24.0360    1.3200 O.2    84  MET84      -0.2864
     80  CB        -9.8850   21.6800    0.3140 C.3    84  MET84       0.0413
     81  CG        -8.4860   21.2690    0.7520 C.3    84  MET84       0.0598
     82  SD        -7.3740   21.1020   -0.6540 S.3    84  MET84      -0.1393
     83  CE        -5.7820   21.0830    0.1670 C.3    84  MET84       0.0692
     84  N        -13.3940   24.2170    4.1160 N.3    87  LEU87      -0.1245
     85  CA       -12.4860   25.2460    4.6150 C.3    87  LEU87       0.1561
     86  C        -12.6640   26.5580    3.8620 C.2    87  LEU87       0.2260
     87  O        -12.7470   27.6260    4.4630 O.2    87  LEU87      -0.2867
     88  CB       -11.0380   24.7750    4.4790 C.3    87  LEU87       0.0270
     89  CG        -9.9430   25.8160    4.7260 C.3    87  LEU87       0.0019
     90  CD1      -10.0360   26.3640    6.1390 C.3    87  LEU87       0.0001
     91  CD2       -8.5690   25.2130    4.4690 C.3    87  LEU87       0.0001
     92  N        -16.0880   28.1530    4.7750 N.3    90  ARG90      -0.1245
     93  CA       -16.0340   28.7600    6.1040 C.3    90  ARG90       0.1563
     94  C        -15.2310   30.0570    6.1090 C.2    90  ARG90       0.2260
     95  O        -15.4760   30.9420    6.9290 O.2    90  ARG90      -0.2867
     96  CB       -15.4190   27.7920    7.1220 C.3    90  ARG90       0.0307
     97  CG       -16.2410   26.5450    7.3940 C.3    90  ARG90       0.0489
     98  CD       -15.7640   25.8210    8.6530 C.3    90  ARG90       0.2205
     99  NE       -14.3410   25.4820    8.6200 N.pl3  90  ARG90      -0.0865
    100  CZ       -13.8440   24.3910    8.0450 C.cat  90  ARG90       0.5346
    101  NH1      -14.6490   23.5330    7.4300 N.pl3  90  ARG90       0.1354
    102  NH2      -12.5380   24.1610    8.0760 N.pl3  90  ARG90       0.1354
    103  N         -9.7620   27.5680    9.5590 N.3   100  PHE100     -0.1241
    104  CA        -9.7060   26.1240    9.7490 C.3   100  PHE100      0.1605
    105  C        -10.6930   25.7100   10.8380 C.2   100  PHE100      0.2264
    106  O        -11.3050   24.6440   10.7700 O.2   100  PHE100     -0.2867
    107  CB        -8.2830   25.6770   10.0960 C.3   100  PHE100      0.0534
    108  CG        -7.3780   25.5420    8.8990 C.ar  100  PHE100     -0.0203
    109  CD1       -7.3190   24.3510    8.1920 C.ar  100  PHE100     -0.0042
    110  CD2       -6.5860   26.6020    8.4830 C.ar  100  PHE100     -0.0042
    111  CE1       -6.4860   24.2170    7.0920 C.ar  100  PHE100     -0.0003
    112  CE2       -5.7520   26.4750    7.3810 C.ar  100  PHE100     -0.0003
    113  CZ        -5.7030   25.2800    6.6860 C.ar  100  PHE100     -0.0000
    114  N          3.7840   24.9490    1.1640 N.3   115  MET115     -0.1245
    115  CA         2.6470   25.1420    2.0490 C.3   115  MET115      0.1570
    116  C          1.9290   26.4460    1.7150 C.2   115  MET115      0.2261
    117  O          0.7150   26.4590    1.5080 O.2   115  MET115     -0.2867
    118  CB         3.1080   25.1540    3.5040 C.3   115  MET115      0.0387
    119  CG         1.9720   25.1730    4.5050 C.3   115  MET115      0.0595
    120  SD         0.9160   23.7220    4.3500 S.3   115  MET115     -0.1393
    121  CE        -0.4850   24.2240    5.3480 C.3   115  MET115      0.0692
    122  N         -0.2500   26.3360   -1.3840 N.3   118  ILE118     -0.1231
    123  CA        -1.5840   25.7870   -1.1890 C.3   118  ILE118      0.1692
    124  C         -2.4840   26.7720   -0.4480 C.2   118  ILE118      0.2592
    125  O         -3.6560   26.9220   -0.7870 O.2   118  ILE118     -0.2718
    126  CB        -1.5080   24.4380   -0.4500 C.3   118  ILE118      0.0266
    127  CG1       -0.6790   23.4490   -1.2760 C.3   118  ILE118      0.0019
    128  CG2       -2.8940   23.8860   -0.1860 C.3   118  ILE118      0.0020
    129  CD1       -0.2220   22.2300   -0.5110 C.3   118  ILE118      0.0001
    130  N         -1.9240   27.4480    0.5510 N.am  119  PHE119     -0.1976
    131  CA        -2.6350   28.4970    1.2810 C.3   119  PHE119      0.1639
    132  C         -3.1640   29.5510    0.3180 C.2   119  PHE119      0.2290
    133  O         -4.3410   29.9130    0.3600 O.2   119  PHE119     -0.2864
    134  CB        -1.7000   29.1610    2.2910 C.3   119  PHE119      0.0560
    135  CG        -2.0030   28.8210    3.7190 C.ar  119  PHE119     -0.0200
    136  CD1       -2.2010   27.5050    4.1060 C.ar  119  PHE119     -0.0042
    137  CD2       -2.0670   29.8200    4.6810 C.ar  119  PHE119     -0.0042
    138  CE1       -2.4750   27.1890    5.4260 C.ar  119  PHE119     -0.0003
    139  CE2       -2.3360   29.5170    6.0010 C.ar  119  PHE119     -0.0003
    140  CZ        -2.5410   28.1970    6.3770 C.ar  119  PHE119     -0.0000
    141  N         -6.0150   28.2510   -1.7020 N.3   122  LEU122     -0.1245
    142  CA        -7.2090   28.1810   -0.8660 C.3   122  LEU122      0.1561
    143  C         -7.7760   29.5790   -0.6190 C.2   122  LEU122      0.2260
    144  O         -8.9930   29.7630   -0.5840 O.2   122  LEU122     -0.2867
    145  CB        -6.9000   27.4870    0.4630 C.3   122  LEU122      0.0270
    146  CG        -6.5510   25.9970    0.4080 C.3   122  LEU122      0.0019
    147  CD1       -5.8030   25.5750    1.6600 C.3   122  LEU122      0.0001
    148  CD2       -7.8050   25.1520    0.2270 C.3   122  LEU122      0.0001
    149  N         -2.0350   19.0010   -2.1470 N.3   211  GLY211     -0.1225
    150  CA        -2.0910   18.7780   -0.7130 C.3   211  GLY211      0.1811
    151  C         -1.7170   17.3550   -0.3460 C.2   211  GLY211      0.2280
    152  O         -1.0150   17.1240    0.6390 O.2   211  GLY211     -0.2866
    153  N          1.9650   16.9280   -0.4430 N.3   214  HIS214     -0.1226
    154  CA         2.5750   17.5290    0.7390 C.3   214  HIS214      0.1752
    155  C          2.4040   16.6210    1.9540 C.2   214  HIS214      0.2595
    156  O          3.3210   16.4680    2.7610 O.2   214  HIS214     -0.2718
    157  CB         1.9770   18.9080    1.0260 C.3   214  HIS214      0.0759
    158  CG         2.5440   19.5670    2.2450 C.ar  214  HIS214      0.0818
    159  ND1        3.7470   20.2390    2.2360 N.ar  214  HIS214     -0.2268
    160  CD2        2.0810   19.6440    3.5150 C.ar  214  HIS214      0.1154
    161  CE1        3.9970   20.7090    3.4460 C.ar  214  HIS214      0.1986
    162  NE2        3.0010   20.3610    4.2410 N.ar  214  HIS214     -0.2212
    163  N          1.2230   16.0200    2.0760 N.am  215  LEU215     -0.1980
    164  CA         0.9370   15.1080    3.1800 C.3   215  LEU215      0.1596
    165  C          1.7960   13.8510    3.0970 C.2   215  LEU215      0.2287
    166  O          2.2450   13.3320    4.1200 O.2   215  LEU215     -0.2864
    167  CB        -0.5470   14.7280    3.2110 C.3   215  LEU215      0.0297
    168  CG        -1.5580   15.8100    3.6020 C.3   215  LEU215      0.0022
    169  CD1       -2.9660   15.2370    3.6400 C.3   215  LEU215      0.0001
    170  CD2       -1.2130   16.4290    4.9360 C.3   215  LEU215      0.0001
    171  N          0.5960   11.2810   11.5080 N.3   226  LEU226     -0.1245
    172  CA        -0.7040   11.1630   10.8700 C.3   226  LEU226      0.1561
    173  C         -1.5250   10.1470   11.6460 C.2   226  LEU226      0.2260
    174  O         -0.9880    9.1480   12.1240 O.2   226  LEU226     -0.2867
    175  CB        -0.5570   10.7030    9.4210 C.3   226  LEU226      0.0270
    176  CG         0.1020   11.6770    8.4480 C.3   226  LEU226      0.0019
    177  CD1        0.1560   11.0680    7.0610 C.3   226  LEU226      0.0001
    178  CD2       -0.6430   13.0000    8.4240 C.3   226  LEU226      0.0001
    179  N         -6.1550    8.7380    8.5770 N.3   230  LEU230     -0.1245
    180  CA        -5.5230    9.5900    7.5750 C.3   230  LEU230      0.1561
    181  C         -4.4510    8.8500    6.7870 C.2   230  LEU230      0.2260
    182  O         -4.3090    9.0520    5.5820 O.2   230  LEU230     -0.2867
    183  CB        -4.9300   10.8400    8.2270 C.3   230  LEU230      0.0270
    184  CG        -5.9080   11.9940    8.4370 C.3   230  LEU230      0.0019
    185  CD1       -5.2710   13.0910    9.2730 C.3   230  LEU230      0.0001
    186  CD2       -6.3520   12.5400    7.0970 C.3   230  LEU230      0.0001
@<TRIPOS>BOND
     1   149   150    1
     2   141   142    1
     3   122   123    1
     4   127   129    1
     5   127   126    1
     6   123   126    1
     7   123   124    1
     8   142   143    1
     9   142   145    1
    10   125   124    2
    11   150   151    1
    12    82    83    1
    13    82    81    1
    14   143   144    2
    15   126   128    1
    16   124   130   am
    17   153   154    1
    18   151   152    2
    19    46    47    1
    20    62    63    2
    21    62    61    1
    22   148   146    1
    23    80    81    1
    24    80    77    1
    25   132   133    2
    26   132   131    1
    27   146   145    1
    28   146   147    1
    29    67    65    1
    30   130   131    1
    31    64    65    1
    32    64    61    1
    33   154   157    1
    34   154   155    1
    35    65    66    1
    36    60    61    1
    37    60    48   am
    38   157   158    1
    39    78    79    2
    40    78    77    1
    41   114   115    1
    42   131   134    1
    43    47    48    1
    44    47    50    1
    45    52    54   ar
    46    52    51   ar
    47    77    76    1
    48    54    55   ar
    49   117   116    2
    50    48    49    2
    51   116   115    1
    52   155   163   am
    53   155   156    2
    54    76    70   am
    55   115   118    1
    56   163   164    1
    57    51    50    1
    58    51    53   ar
    59   159   158   ar
    60   159   161   ar
    61   158   160   ar
    62   134   135    1
    63    55    53   ar
    64    55    57   ar
    65    68    69    1
    66    53    56   ar
    67    57    59   ar
    68   165   164    1
    69   165   166    2
    70    70    69    1
    71    70    71    2
    72   164   167    1
    73   167   168    1
    74   161   162   ar
    75   118   119    1
    76   160   162   ar
    77   168   169    1
    78   168   170    1
    79    69    72    1
    80   135   136   ar
    81   135   137   ar
    82    56    58   ar
    83    59    58   ar
    84    86    87    2
    85    86    85    1
    86   136   138   ar
    87    84    85    1
    88    72    73    1
    89   120   119    1
    90   120   121    1
    91    91    89    1
    92    88    85    1
    93    88    89    1
    94   137   139   ar
    95    89    90    1
    96    92    93    1
    97    73    74    1
    98    73    75    1
    99   138   140   ar
   100   182   181    2
   101   139   140   ar
   102    93    94    1
   103    93    96    1
   104    94    95    2
   105   113   111   ar
   106   113   112   ar
   107   181   180    1
   108   177   176    1
   109   111   109   ar
   110   186   184    1
   111    96    97    1
   112     8     7    1
   113   112   110   ar
   114    97    98    1
   115   101   100    1
   116   180   183    1
   117   180   179    1
   118     7     6    1
   119   100   102    1
   120   100    99    2
   121   109   108   ar
   122   183   184    1
   123   178   176    1
   124   184   185    1
   125   176   175    1
   126   110   108   ar
   127    99    98    1
   128    36    33    1
   129    44    43   ar
   130    15    14    1
   131   108   107    1
   132     6     5    1
   133    45    43   ar
   134    40    39    2
   135    43    42    1
   136   175   172    1
   137   103   104    1
   138    35    34    2
   139   104   107    1
   140   104   105    1
   141    33    34    1
   142    33    32    1
   143    39    38    1
   144    41    42    1
   145    41    38    1
   146    13    14    1
   147    13    10    1
   148     5     2    1
   149    14    16    1
   150    22    21    1
   151    12    11    2
   152    38    37    1
   153   106   105    2
   154   172   171    1
   155   172   173    1
   156    32    26   am
   157     2     1    1
   158     2     3    1
   159    11    10    1
   160    11    17   am
   161    18    17    1
   162    18    21    1
   163    18    19    1
   164    10     9    1
   165    23    21    1
   166     4     3    2
   167    31    29    1
   168   173   174    2
   169    20    19    2
   170    26    27    2
   171    26    25    1
   172    29    28    1
   173    29    30    1
   174    28    25    1
   175    25    24    1
