@<TRIPOS>MOLECULE
tmp/5dlsA00.pdb
 207 197 0 0 0
SMALL
GASTEIGER

@<TRIPOS>ATOM
      1  N          1.3860   -8.3050   29.1670 N.3     8  GLN8       -0.1231
      2  CA         0.5190   -8.8860   28.1400 C.3     8  GLN8        0.1698
      3  C          1.3310   -9.2870   26.9090 C.2     8  GLN8        0.2593
      4  O          2.3240   -8.6270   26.5440 O.2     8  GLN8       -0.2718
      5  CB        -0.5980   -7.8970   27.7440 C.3     8  GLN8        0.0381
      6  CG        -1.2980   -8.2620   26.4340 C.3     8  GLN8        0.0905
      7  CD        -2.6300   -7.5880   26.2090 C.2     8  GLN8        0.2608
      8  OE1       -3.6750   -8.2140   26.3490 O.2     8  GLN8       -0.2717
      9  NE2       -2.6020   -6.3260   25.8200 N.am    8  GLN8       -0.0878
     10  N          0.8860  -10.3650   26.2660 N.am    9  THR9       -0.1939
     11  CA         1.3910  -10.7160   24.9390 C.3     9  THR9        0.2028
     12  C          0.7650   -9.8690   23.8230 C.2     9  THR9        0.2642
     13  O         -0.4560   -9.6470   23.7760 O.2     9  THR9       -0.2714
     14  CB         1.2310  -12.2090   24.6100 C.3     9  THR9        0.1808
     15  OG1        1.8780  -12.4570   23.3600 O.3     9  THR9       -0.2208
     16  CG2       -0.2710  -12.6590   24.5400 C.3     9  THR9        0.0379
     17  N          1.6210   -9.4220   22.9150 N.am   10  LEU10      -0.1963
     18  CA         1.2270   -8.4740   21.8930 C.3    10  LEU10       0.1728
     19  C          1.2130   -9.1010   20.5180 C.2    10  LEU10       0.2617
     20  O          0.2050   -8.9900   19.8170 O.2    10  LEU10      -0.2715
     21  CB         2.1600   -7.2580   21.9200 C.3    10  LEU10       0.0311
     22  CG         2.1400   -6.4490   23.2160 C.3    10  LEU10       0.0022
     23  CD1        3.1020   -5.2700   23.1190 C.3    10  LEU10       0.0001
     24  CD2        0.7180   -5.9980   23.5590 C.3    10  LEU10       0.0001
     25  N          2.3290   -9.7350   20.1460 N.am   11  GLY11      -0.1940
     26  CA         2.4600  -10.4190   18.8610 C.3    11  GLY11       0.2014
     27  C          3.4200  -11.5970   18.8800 C.2    11  GLY11       0.2639
     28  O          4.5070  -11.4780   19.4160 O.2    11  GLY11      -0.2714
     29  N          2.9750  -12.7400   18.3410 N.am   12  GLU12      -0.1963
     30  CA         3.8510  -13.8340   17.8890 C.3    12  GLU12       0.1733
     31  C          4.4460  -13.4410   16.5240 C.2    12  GLU12       0.2617
     32  O          3.7400  -12.9250   15.6720 O.2    12  GLU12      -0.2715
     33  CB         3.0700  -15.1560   17.7560 C.3    12  GLU12       0.0429
     34  CG         2.4850  -15.6530   19.0540 C.3    12  GLU12       0.1163
     35  CD         3.4840  -16.0680   20.0860 C.2    12  GLU12       0.3649
     36  OE1        4.6830  -16.2810   19.7640 O.co2  12  GLU12      -0.2457
     37  OE2        3.0250  -16.2890   21.2170 O.co2  12  GLU12      -0.2457
     38  N          5.7530  -13.6340   16.3560 N.am   13  GLY13      -0.1940
     39  CA         6.4370  -13.5780   15.0530 C.3    13  GLY13       0.2014
     40  C          7.2130  -14.8760   14.8330 C.2    13  GLY13       0.2639
     41  O          7.3150  -15.7090   15.7400 O.2    13  GLY13      -0.2714
     42  N          7.7530  -15.0630   13.6310 N.am   14  ALA14      -0.1963
     43  CA         8.5750  -16.2420   13.3070 C.3    14  ALA14       0.1728
     44  C          9.9930  -15.9590   13.7820 C.2    14  ALA14       0.2616
     45  O         10.7320  -15.2190   13.1350 O.2    14  ALA14      -0.2715
     46  CB         8.5550  -16.5430   11.8110 C.3    14  ALA14       0.0334
     47  N         10.3440  -16.5560   14.9210 N.am   15  TYR15      -0.1960
     48  CA        11.5690  -16.2740   15.6930 C.3    15  TYR15       0.1774
     49  C         11.2360  -15.7490   17.1050 C.2    15  TYR15       0.2659
     50  O         12.1260  -15.7130   17.9520 O.2    15  TYR15      -0.2711
     51  CB        12.5260  -15.2920   14.9890 C.3    15  TYR15       0.0574
     52  CG        13.8740  -15.8760   14.6910 C.ar   15  TYR15      -0.0198
     53  CD1       14.6120  -16.5260   15.7090 C.ar   15  TYR15      -0.0009
     54  CD2       14.5280  -15.8220   13.4650 C.ar   15  TYR15      -0.0009
     55  CE1       15.8670  -17.0920   15.5090 C.ar   15  TYR15       0.0417
     56  CE2       15.7600  -16.3790   13.2540 C.ar   15  TYR15       0.0417
     57  CZ        16.4720  -17.0270   14.2760 C.ar   15  TYR15       0.1957
     58  OH        17.7010  -17.5940   14.0230 O.3    15  TYR15      -0.2866
     59  N          9.9830  -15.3540   17.3840 N.am   16  GLY16      -0.1716
     60  CA         9.6980  -14.7410   18.6760 C.2    16  GLY16       0.1480
     61  C          8.2870  -14.3430   19.0610 C.2    16  GLY16       0.2820
     62  O          7.2940  -14.8040   18.4890 O.2    16  GLY16      -0.2669
     63  N          8.2430  -13.5010   20.0970 N.am   17  GLU17      -0.1929
     64  CA         7.0290  -12.9280   20.6700 C.3    17  GLU17       0.1736
     65  C          7.3040  -11.4580   21.0520 C.2    17  GLU17       0.2616
     66  O          8.4500  -10.9850   21.1190 O.2    17  GLU17      -0.2715
     67  CB         6.5520  -13.7330   21.8960 C.3    17  GLU17       0.0429
     68  CG         7.4830  -13.7090   23.0920 C.3    17  GLU17       0.1163
     69  CD         7.1070  -14.7280   24.1510 C.2    17  GLU17       0.3649
     70  OE1        5.9270  -15.1370   24.1990 O.co2  17  GLU17      -0.2457
     71  OE2        7.9990  -15.1120   24.9390 O.co2  17  GLU17      -0.2457
     72  N          6.2410  -10.7160   21.2680 N.am   18  VAL18      -0.1977
     73  CA         6.3830   -9.3380   21.6770 C.3    18  VAL18       0.1596
     74  C          5.4630   -9.1810   22.8730 C.2    18  VAL18       0.2287
     75  O          4.2670   -9.5230   22.7800 O.2    18  VAL18      -0.2864
     76  CB         6.0220   -8.3260   20.5560 C.3    18  VAL18       0.0276
     77  CG1        6.1050   -6.8890   21.0770 C.3    18  VAL18       0.0022
     78  CG2        6.9350   -8.5090   19.3510 C.3    18  VAL18       0.0022
     79  N          7.3690   -2.1730   24.6690 N.3    31  ALA31      -0.1245
     80  CA         7.2190   -3.4140   23.9670 C.3    31  ALA31       0.1562
     81  C          8.5940   -4.0910   23.9530 C.2    31  ALA31       0.2260
     82  O          9.6540   -3.4790   23.6470 O.2    31  ALA31      -0.2867
     83  CB         6.6870   -3.1750   22.5530 C.3    31  ALA31       0.0290
     84  N         10.6660   -7.2940   22.4780 N.3    33  LYS33      -0.1245
     85  CA        10.7150   -8.2960   21.4200 C.3    33  LYS33       0.1561
     86  C         11.7390   -9.2730   21.8910 C.2    33  LYS33       0.2260
     87  O         12.8700   -8.8450   22.1920 O.2    33  LYS33      -0.2867
     88  CB        11.1580   -7.7010   20.0710 C.3    33  LYS33       0.0271
     89  CG        11.2040   -8.7090   18.9190 C.3    33  LYS33       0.0035
     90  CD        12.0820   -8.2330   17.7600 C.3    33  LYS33       0.0206
     91  CE        12.0100   -9.1890   16.5650 C.3    33  LYS33       0.1093
     92  NZ        12.4080   -8.5980   15.2590 N.3    33  LYS33      -0.1314
     93  N         13.7090  -13.0050   21.1200 N.3    35  VAL35      -0.1245
     94  CA        14.1380  -13.9090   20.0190 C.3    35  VAL35       0.1561
     95  C         15.2770  -14.8960   20.3990 C.2    35  VAL35       0.2260
     96  O         16.2550  -14.4720   21.0190 O.2    35  VAL35      -0.2867
     97  CB        14.6570  -13.1070   18.7890 C.3    35  VAL35       0.0252
     98  CG1       14.4820  -13.9040   17.5040 C.3    35  VAL35       0.0019
     99  CG2       13.9660  -11.7610   18.6400 C.3    35  VAL35       0.0019
    100  N         19.2000   -5.9180   12.0250 N.3    42  GLU42      -0.1245
    101  CA        17.9860   -5.2830   12.5500 C.3    42  GLU42       0.1567
    102  C         18.2640   -4.3180   13.6980 C.2    42  GLU42       0.2260
    103  O         17.7130   -3.1940   13.7350 O.2    42  GLU42      -0.2867
    104  CB        16.9780   -6.3150   13.0230 C.3    42  GLU42       0.0388
    105  CG        15.8060   -5.7070   13.8030 C.3    42  GLU42       0.1160
    106  CD        14.7250   -6.7120   14.1190 C.2    42  GLU42       0.3649
    107  OE1       14.9050   -7.8920   13.7440 O.co2  42  GLU42      -0.2457
    108  OE2       13.7090   -6.3240   14.7580 O.co2  42  GLU42      -0.2457
    109  N          8.9290    3.4390   14.9190 N.3    55  VAL55      -0.1245
    110  CA         8.9310    2.8430   16.2510 C.3    55  VAL55       0.1561
    111  C         10.3170    2.9670   16.8870 C.2    55  VAL55       0.2260
    112  O         11.2770    2.4110   16.3450 O.2    55  VAL55      -0.2867
    113  CB         8.5200    1.3420   16.1710 C.3    55  VAL55       0.0252
    114  CG1        8.8220    0.5840   17.4810 C.3    55  VAL55       0.0019
    115  CG2        7.0490    1.2350   15.7990 C.3    55  VAL55       0.0019
    116  N         11.4250   -1.6710   22.6170 N.3    71  LEU71      -0.1231
    117  CA        10.8620   -0.9380   21.4890 C.3    71  LEU71       0.1693
    118  C          9.7230   -0.1000   21.9840 C.2    71  LEU71       0.2592
    119  O          9.1150   -0.3960   23.0270 O.2    71  LEU71      -0.2718
    120  CB        10.3400   -1.9460   20.4730 C.3    71  LEU71       0.0284
    121  CG        11.4330   -2.8370   19.8710 C.3    71  LEU71       0.0019
    122  CD1       10.8230   -4.0360   19.1710 C.3    71  LEU71       0.0001
    123  CD2       12.3130   -2.0130   18.9390 C.3    71  LEU71       0.0001
    124  N          9.4330    0.9550   21.2540 N.am   72  GLU72      -0.1966
    125  CA         8.3190    1.8100   21.6140 C.3    72  GLU72       0.1733
    126  C          6.9920    1.0200   21.6580 C.2    72  GLU72       0.2616
    127  O          6.7410    0.1120   20.8260 O.2    72  GLU72      -0.2715
    128  CB         8.2590    2.9620   20.6310 C.3    72  GLU72       0.0429
    129  CG         7.3240    4.0900   20.9430 C.3    72  GLU72       0.1163
    130  CD         7.2070    5.0730   19.7810 C.2    72  GLU72       0.3649
    131  OE1        6.1750    5.7860   19.7750 O.co2  72  GLU72      -0.2457
    132  OE2        8.0950    5.1160   18.8580 O.co2  72  GLU72      -0.2457
    133  N          6.1670    1.3360   22.6530 N.am   73  TYR73      -0.1960
    134  CA         4.8830    0.7130   22.8090 C.3    73  TYR73       0.1771
    135  C          3.8470    1.5700   22.0840 C.2    73  TYR73       0.2620
    136  O          3.8040    2.7750   22.2400 O.2    73  TYR73      -0.2715
    137  CB         4.5290    0.5180   24.2830 C.3    73  TYR73       0.0574
    138  CG         3.0970    0.0470   24.5080 C.ar   73  TYR73      -0.0198
    139  CD1        2.6290   -1.1520   23.9690 C.ar   73  TYR73      -0.0009
    140  CD2        2.2150    0.8100   25.2640 C.ar   73  TYR73      -0.0009
    141  CE1        1.3190   -1.5700   24.1900 C.ar   73  TYR73       0.0417
    142  CE2        0.9070    0.4090   25.4890 C.ar   73  TYR73       0.0417
    143  CZ         0.4590   -0.7740   24.9700 C.ar   73  TYR73       0.1957
    144  OH        -0.8620   -1.1170   25.2120 O.3    73  TYR73      -0.2866
    145  N          3.0250    0.9330   21.2580 N.am   74  CYS74      -0.1954
    146  CA         2.0430    1.6410   20.4500 C.3    74  CYS74       0.1843
    147  C          0.7480    0.9910   20.8730 C.2    74  CYS74       0.2626
    148  O          0.5080   -0.1700   20.5640 O.2    74  CYS74      -0.2714
    149  CB         2.3870    1.4880   18.9300 C.3    74  CYS74       0.0997
    150  SG         4.0850    1.9790   18.5060 S.3    74  CYS74      -0.0797
    151  N         -0.0500    1.7030   21.6600 N.am   75  SER75      -0.1950
    152  CA        -1.1880    1.0720   22.3390 C.3    75  SER75       0.1924
    153  C         -2.2940    0.8130   21.3320 C.2    75  SER75       0.2314
    154  O         -3.0830   -0.1040   21.5090 O.2    75  SER75      -0.2863
    155  CB        -1.6800    1.9090   23.5270 C.3    75  SER75       0.2116
    156  OG        -2.2490    3.1150   23.0690 O.3    75  SER75      -0.2180
    157  N         -2.1280   -0.6790   18.5210 N.3    77  GLY77      -0.1210
    158  CA        -1.9670   -1.9110   17.7680 C.3    77  GLY77       0.1956
    159  C         -1.6800   -1.5820   16.2780 C.2    77  GLY77       0.2611
    160  O         -1.2130   -0.4890   15.9490 O.2    77  GLY77      -0.2717
    161  N         -2.0250   -2.5370   15.4300 N.am   78  GLU78      -0.1979
    162  CA        -1.7170   -2.6000   14.0000 C.3    78  GLU78       0.1602
    163  C         -2.7530   -1.9300   13.1800 C.2    78  GLU78       0.2287
    164  O         -3.9350   -2.0950   13.3900 O.2    78  GLU78      -0.2864
    165  CB        -1.6670   -4.0580   13.5210 C.3    78  GLU78       0.0415
    166  CG        -0.5810   -4.8630   14.2190 C.3    78  GLU78       0.1163
    167  CD        -0.4520   -6.2730   13.6780 C.2    78  GLU78       0.3649
    168  OE1        0.4850   -6.9830   14.1080 O.co2  78  GLU78      -0.2457
    169  OE2       -1.2530   -6.6700   12.8110 O.co2  78  GLU78      -0.2457
    170  N         -5.7760   -3.7830   11.8190 N.3    81  ASP81      -0.1239
    171  CA        -7.0490   -3.9330   12.5230 C.3    81  ASP81       0.1674
    172  C         -7.9870   -2.8050   12.4040 C.2    81  ASP81       0.2266
    173  O         -9.1390   -2.9940   12.7350 O.2    81  ASP81      -0.2867
    174  CB        -6.8260   -4.2800   14.0160 C.3    81  ASP81       0.1410
    175  CG        -6.1940   -5.6590   14.1690 C.2    81  ASP81       0.3668
    176  OD1       -6.6480   -6.6350   13.5170 O.co2  81  ASP81      -0.2456
    177  OD2       -5.2140   -5.7930   14.8750 O.co2  81  ASP81      -0.2456
    178  N          2.6020   -4.1940    9.8140 N.3   122  ASN122     -0.1240
    179  CA         3.8130   -3.4980   10.3070 C.3   122  ASN122      0.1653
    180  C          3.6660   -2.0210   10.5970 C.2   122  ASN122      0.2266
    181  O          4.6450   -1.3810   10.9400 O.2   122  ASN122     -0.2867
    182  CB         4.9510   -3.6290    9.2680 C.3   122  ASN122      0.1155
    183  CG         5.3970   -5.0140    9.1790 C.2   122  ASN122      0.2627
    184  OD1        5.1080   -5.7660   10.0880 O.2   122  ASN122     -0.2716
    185  ND2        6.0330   -5.3980    8.1110 N.am  122  ASN122     -0.0877
    186  N          2.1360    0.5180   13.0230 N.3   124  LEU124     -0.1245
    187  CA         1.5640    0.6060   14.3600 C.3   124  LEU124      0.1561
    188  C          0.9830    1.9900   14.6320 C.2   124  LEU124      0.2260
    189  O          1.3800    2.9790   14.0140 O.2   124  LEU124     -0.2867
    190  CB         2.6170    0.2200   15.4210 C.3   124  LEU124      0.0270
    191  CG         3.2250   -1.1990   15.1780 C.3   124  LEU124      0.0019
    192  CD1        4.1410   -1.6320   16.3280 C.3   124  LEU124      0.0001
    193  CD2        2.2010   -2.2960   14.8600 C.3   124  LEU124      0.0001
    194  N          7.2610   -0.1470   11.9020 N.3   134  SER134     -0.1202
    195  CA         7.9040   -1.1710   12.7090 C.3   134  SER134      0.2020
    196  C          8.4440   -2.3010   11.8500 C.2   134  SER134      0.2618
    197  O          8.0290   -2.5330   10.7030 O.2   134  SER134     -0.2717
    198  CB         6.8830   -1.8090   13.6820 C.3   134  SER134      0.2103
    199  OG         6.0540   -2.7670   13.0270 O.3   134  SER134     -0.2182
    200  N          9.3600   -3.0180   12.4610 N.am  135  ASP135     -0.1973
    201  CA         9.8590   -4.2780   11.9860 C.3   135  ASP135      0.1709
    202  C         10.8810   -4.0650   10.9030 C.2   135  ASP135      0.2293
    203  O         10.5770   -4.1390    9.7030 O.2   135  ASP135     -0.2864
    204  CB         8.7570   -5.2560   11.5870 C.3   135  ASP135      0.1436
    205  CG         9.3060   -6.6370   11.3270 C.2   135  ASP135      0.3671
    206  OD1       10.5530   -6.7770   11.2310 O.co2 135  ASP135     -0.2456
    207  OD2        8.5000   -7.5710   11.1880 O.co2 135  ASP135     -0.2456
@<TRIPOS>BOND
     1   185   183   am
     2   183   182    1
     3   183   184    2
     4   182   179    1
     5   203   202    2
     6   178   179    1
     7   179   180    1
     8   180   181    2
     9   197   196    2
    10   202   201    1
    11   207   205   ar
    12   206   205   ar
    13   205   204    1
    14   204   201    1
    15    46    43    1
    16   170   171    1
    17   196   200   am
    18   196   195    1
    19   194   195    1
    20   201   200    1
    21   100   101    1
    22   172   171    1
    23   172   173    2
    24   171   174    1
    25   101   104    1
    26   101   102    1
    27   195   198    1
    28   169   167   ar
    29   186   187    1
    30   104   105    1
    31   199   198    1
    32    45    44    2
    33   163   164    2
    34   163   162    1
    35    56    54   ar
    36    56    57   ar
    37    43    42    1
    38    43    44    1
    39    54    52   ar
    40   176   175   ar
    41   165   162    1
    42   165   166    1
    43    42    40   am
    44   167   168   ar
    45   167   166    1
    46   102   103    2
    47   107   106   ar
    48    44    47   am
    49   105   106    1
    50   162   161    1
    51   189   188    2
    52   174   175    1
    53    58    57    1
    54   106   108   ar
    55   175   177   ar
    56    57    55   ar
    57   187   188    1
    58   187   190    1
    59    52    51    1
    60    52    53   ar
    61    40    39    1
    62    40    41    2
    63   193   191    1
    64   109   110    1
    65    47    48    1
    66    51    48    1
    67    39    38    1
    68   191   190    1
    69   191   192    1
    70    92    91    1
    71   161   159   am
    72    55    53   ar
    73    32    31    2
    74    48    49    1
    75   115   113    1
    76   160   159    2
    77   113   110    1
    78   113   114    1
    79   110   111    1
    80   159   158    1
    81   112   111    2
    82    38    31   am
    83    31    30    1
    84    91    90    1
    85    49    59    1
    86    49    50    2
    87    59    60    2
    88    98    97    1
    89    33    30    1
    90    33    34    1
    91    90    89    1
    92   158   157    1
    93    30    29    1
    94    29    27   am
    95    62    61    2
    96   150   149    1
    97    99    97    1
    98    60    61    1
    99    97    94    1
   100   132   130   ar
   101    26    27    1
   102    26    25    1
   103    27    28    2
   104    89    88    1
   105   149   146    1
   106   123   121    1
   107    34    35    1
   108    61    63   am
   109   122   121    1
   110    78    76    1
   111    36    35   ar
   112   131   130   ar
   113   130   129    1
   114    20    19    2
   115   121   120    1
   116    94    95    1
   117    94    93    1
   118    88    85    1
   119    35    37   ar
   120    63    64    1
   121    25    19   am
   122    95    96    2
   123   146   147    1
   124   146   145    1
   125   120   117    1
   126    19    18    1
   127    76    77    1
   128    76    73    1
   129   148   147    2
   130   128   129    1
   131   128   125    1
   132    64    65    1
   133    64    67    1
   134   127   126    2
   135   147   151   am
   136    65    66    2
   137    65    72   am
   138   124   125    1
   139   124   118   am
   140   145   135   am
   141    72    73    1
   142   153   154    2
   143   153   152    1
   144    85    86    1
   145    85    84    1
   146   117   118    1
   147   117   116    1
   148   125   126    1
   149   126   133   am
   150   151   152    1
   151    73    74    1
   152    86    87    2
   153    18    21    1
   154    18    17    1
   155    67    68    1
   156    21    22    1
   157   118   119    2
   158   135   136    2
   159   135   134    1
   160   152   155    1
   161    83    80    1
   162   133   134    1
   163    75    74    2
   164   134   137    1
   165    17    12   am
   166   156   155    1
   167    68    69    1
   168    23    22    1
   169    22    24    1
   170    15    14    1
   171    82    81    2
   172    13    12    2
   173    12    11    1
   174    81    80    1
   175    80    79    1
   176   139   141   ar
   177   139   138   ar
   178    69    70   ar
   179    69    71   ar
   180   141   143   ar
   181   137   138    1
   182   138   140   ar
   183    16    14    1
   184    14    11    1
   185    11    10    1
   186   143   144    1
   187   143   142   ar
   188   140   142   ar
   189     9     7   am
   190     7     8    2
   191     7     6    1
   192    10     3   am
   193     6     5    1
   194     4     3    2
   195     3     2    1
   196     5     2    1
   197     2     1    1
