@<TRIPOS>MOLECULE
tmp/5dlvB04.pdb
 188 192 0 0 0
SMALL
GASTEIGER

@<TRIPOS>ATOM
      1  N         40.8380   37.1600   61.8480 N.3    23  LEU23      -0.1245
      2  CA        39.4810   37.5210   61.4580 C.3    23  LEU23       0.1561
      3  C         38.8580   36.5530   60.4770 C.2    23  LEU23       0.2260
      4  O         37.7900   36.8390   59.9490 O.2    23  LEU23      -0.2867
      5  CB        39.4770   38.9390   60.8560 C.3    23  LEU23       0.0270
      6  CG        39.7540   40.0850   61.8290 C.3    23  LEU23       0.0019
      7  CD1       40.1710   41.3530   61.0720 C.3    23  LEU23       0.0001
      8  CD2       38.5430   40.3490   62.7160 C.3    23  LEU23       0.0001
      9  N         35.1690   35.7590   60.8960 N.3    26  SER26      -0.1202
     10  CA        34.2340   36.8870   60.7140 C.3    26  SER26       0.2020
     11  C         33.8070   37.0180   59.2500 C.2    26  SER26       0.2618
     12  O         32.6180   37.1030   58.9420 O.2    26  SER26      -0.2717
     13  CB        34.8860   38.1660   61.2150 C.3    26  SER26       0.2103
     14  OG        35.1480   38.0640   62.5950 O.3    26  SER26      -0.2182
     15  N         34.7960   36.9560   58.3640 N.am   27  TYR27      -0.1975
     16  CA        34.5910   36.7350   56.9240 C.3    27  TYR27       0.1639
     17  C         34.5520   35.2260   56.5570 C.2    27  TYR27       0.2290
     18  O         34.9200   34.8590   55.4390 O.2    27  TYR27      -0.2864
     19  CB        35.7410   37.3620   56.1210 C.3    27  TYR27       0.0560
     20  CG        36.1000   38.8220   56.3890 C.ar   27  TYR27      -0.0198
     21  CD1       36.9930   39.1670   57.4050 C.ar   27  TYR27      -0.0009
     22  CD2       35.6140   39.8430   55.5750 C.ar   27  TYR27      -0.0009
     23  CE1       37.3570   40.4850   57.6280 C.ar   27  TYR27       0.0417
     24  CE2       35.9760   41.1710   55.7910 C.ar   27  TYR27       0.0417
     25  CZ        36.8510   41.4880   56.8210 C.ar   27  TYR27       0.1957
     26  OH        37.2370   42.7960   57.0470 O.3    27  TYR27      -0.2866
     27  N         32.2330   53.0120   68.9230 N.3   155  PHE155     -0.1241
     28  CA        32.8690   53.1210   67.6120 C.3   155  PHE155      0.1605
     29  C         33.4360   54.5140   67.2780 C.2   155  PHE155      0.2264
     30  O         34.5520   54.6130   66.7580 O.2   155  PHE155     -0.2867
     31  CB        31.9450   52.6210   66.5060 C.3   155  PHE155      0.0534
     32  CG        32.0240   51.1200   66.2710 C.ar  155  PHE155     -0.0203
     33  CD1       32.3150   50.2240   67.3100 C.ar  155  PHE155     -0.0042
     34  CD2       31.8020   50.6010   65.0050 C.ar  155  PHE155     -0.0042
     35  CE1       32.3750   48.8470   67.0820 C.ar  155  PHE155     -0.0003
     36  CE2       31.8580   49.2300   64.7750 C.ar  155  PHE155     -0.0003
     37  CZ        32.1470   48.3540   65.8130 C.ar  155  PHE155     -0.0000
     38  N         36.6010   54.6110   69.5510 N.3   158  LEU158     -0.1231
     39  CA        37.6800   53.6980   69.1540 C.3   158  LEU158      0.1693
     40  C         38.3790   54.2190   67.8890 C.2   158  LEU158      0.2592
     41  O         39.6030   54.2380   67.8500 O.2   158  LEU158     -0.2718
     42  CB        37.2140   52.2340   69.0650 C.3   158  LEU158      0.0284
     43  CG        37.0080   51.5960   70.4620 C.3   158  LEU158      0.0019
     44  CD1       36.5390   50.1530   70.3070 C.3   158  LEU158      0.0001
     45  CD2       38.2430   51.6500   71.3760 C.3   158  LEU158      0.0001
     46  N         37.6260   54.7190   66.9040 N.am  159  TYR159     -0.1976
     47  CA        38.2460   55.2220   65.6850 C.3   159  TYR159      0.1639
     48  C         38.9060   56.5960   65.8770 C.2   159  TYR159      0.2290
     49  O         39.9220   56.8770   65.2160 O.2   159  TYR159     -0.2864
     50  CB        37.2640   55.1630   64.5020 C.3   159  TYR159      0.0560
     51  CG        37.9450   55.0580   63.1640 C.ar  159  TYR159     -0.0198
     52  CD1       38.8740   54.0440   62.8990 C.ar  159  TYR159     -0.0009
     53  CD2       37.6530   55.9520   62.1500 C.ar  159  TYR159     -0.0009
     54  CE1       39.5020   53.9510   61.6670 C.ar  159  TYR159      0.0417
     55  CE2       38.2650   55.8540   60.9180 C.ar  159  TYR159      0.0417
     56  CZ        39.1940   54.8550   60.6880 C.ar  159  TYR159      0.1957
     57  OH        39.8200   54.7770   59.4790 O.3   159  TYR159     -0.2866
     58  N         29.8660   47.2110   58.9030 N.3   193  LYS193     -0.1231
     59  CA        31.0820   47.7260   59.4640 C.3   193  LYS193      0.1693
     60  C         32.3720   47.2500   58.7910 C.2   193  LYS193      0.2592
     61  O         33.3670   47.9880   58.8150 O.2   193  LYS193     -0.2718
     62  CB        31.1360   47.4400   60.9550 C.3   193  LYS193      0.0285
     63  CG        31.2570   45.9840   61.3500 C.3   193  LYS193      0.0035
     64  CD        31.3390   45.8790   62.8610 C.3   193  LYS193      0.0206
     65  CE        31.2630   44.4390   63.3520 C.3   193  LYS193      0.1093
     66  NZ        29.9170   43.8330   63.1130 N.3   193  LYS193     -0.1314
     67  N         32.3380   46.0800   58.1400 N.am  194  PHE194     -0.1962
     68  CA        33.4800   45.6060   57.3680 C.3   194  PHE194      0.1771
     69  C         33.7090   46.3230   56.0280 C.2   194  PHE194      0.2620
     70  O         34.7760   46.1460   55.4280 O.2   194  PHE194     -0.2715
     71  CB        33.4070   44.0750   57.1540 C.3   194  PHE194      0.0574
     72  CG        33.4590   43.3030   58.4400 C.ar  194  PHE194     -0.0200
     73  CD1       34.6650   43.1300   59.1090 C.ar  194  PHE194     -0.0042
     74  CD2       32.3020   42.8210   59.0210 C.ar  194  PHE194     -0.0042
     75  CE1       34.7100   42.4530   60.3190 C.ar  194  PHE194     -0.0003
     76  CE2       32.3310   42.1410   60.2330 C.ar  194  PHE194     -0.0003
     77  CZ        33.5410   41.9520   60.8790 C.ar  194  PHE194     -0.0000
     78  N         32.7450   47.1150   55.5460 N.am  195  ASN195     -0.1958
     79  CA        32.9070   47.8390   54.2920 C.3   195  ASN195      0.1819
     80  C         33.7760   49.1070   54.4970 C.2   195  ASN195      0.2621
     81  O         33.4400   49.9770   55.3150 O.2   195  ASN195     -0.2715
     82  CB        31.5210   48.1800   53.7270 C.3   195  ASN195      0.1195
     83  CG        31.5610   48.6810   52.2950 C.2   195  ASN195      0.2630
     84  OD1       32.5690   49.2290   51.8220 O.2   195  ASN195     -0.2716
     85  ND2       30.4430   48.5080   51.5860 N.am  195  ASN195     -0.0877
     86  N         34.8560   49.2180   53.7140 N.am  196  HIS196     -0.1973
     87  CA        35.8540   50.3130   53.8010 C.3   196  HIS196      0.1656
     88  C         35.2320   51.7190   53.6130 C.2   196  HIS196      0.2291
     89  O         35.7570   52.7130   54.1340 O.2   196  HIS196     -0.2864
     90  CB        36.9550   50.1540   52.7210 C.3   196  HIS196      0.0771
     91  CG        38.0140   49.1340   53.0330 C.ar  196  HIS196      0.0820
     92  ND1       37.7330   47.8190   53.3560 N.ar  196  HIS196     -0.2267
     93  CD2       39.3700   49.2270   53.0020 C.ar  196  HIS196      0.1154
     94  CE1       38.8650   47.1580   53.5340 C.ar  196  HIS196      0.1986
     95  NE2       39.8720   47.9900   53.3330 N.ar  196  HIS196     -0.2212
     96  N         34.9310   54.3630   56.6370 N.3   199  TRP199     -0.1241
     97  CA        36.0510   54.6710   57.5260 C.3   199  TRP199      0.1605
     98  C         37.0010   55.6220   56.8200 C.2   199  TRP199      0.2264
     99  O         37.6390   55.2260   55.8640 O.2   199  TRP199     -0.2867
    100  CB        36.7790   53.3550   57.9100 C.3   199  TRP199      0.0550
    101  CG        35.8340   52.3380   58.5240 C.ar  199  TRP199      0.0003
    102  CD1       35.0240   51.4640   57.8530 C.ar  199  TRP199      0.0946
    103  CD2       35.5970   52.1070   59.9080 C.ar  199  TRP199      0.0152
    104  NE1       34.2820   50.7180   58.7350 N.ar  199  TRP199     -0.2442
    105  CE2       34.6250   51.0890   60.0040 C.ar  199  TRP199      0.0810
    106  CE3       36.1000   52.6620   61.0770 C.ar  199  TRP199      0.0012
    107  CZ2       34.1610   50.6180   61.2010 C.ar  199  TRP199      0.0191
    108  CZ3       35.6410   52.1800   62.2780 C.ar  199  TRP199      0.0001
    109  CH2       34.6780   51.1600   62.3310 C.ar  199  TRP199      0.0015
    110  N         44.1630   55.5640   60.0750 N.3   203  PRO203     -0.2116
    111  CA        44.4070   54.9730   61.3930 C.3   203  PRO203      0.1372
    112  C         45.8680   54.5590   61.5820 C.2   203  PRO203      0.2244
    113  O         46.6030   54.4070   60.5990 O.2   203  PRO203     -0.2868
    114  CB        43.4310   53.7850   61.4390 C.3   203  PRO203      0.0268
    115  CG        43.1920   53.4210   60.0130 C.3   203  PRO203      0.0207
    116  CD        43.3900   54.6750   59.1910 C.3   203  PRO203      0.0892
    117  N         47.5420   51.8790   62.3920 N.3   205  TRP205     -0.1227
    118  CA        48.0470   50.7010   61.6780 C.3   205  TRP205      0.1737
    119  C         48.4450   51.0230   60.2330 C.2   205  TRP205      0.2595
    120  O         49.4180   50.4570   59.7270 O.2   205  TRP205     -0.2718
    121  CB        47.0950   49.5000   61.7470 C.3   205  TRP205      0.0564
    122  CG        45.7020   49.7040   61.2910 C.ar  205  TRP205      0.0003
    123  CD1       45.2150   49.4990   60.0490 C.ar  205  TRP205      0.0946
    124  CD2       44.5830   50.1220   62.1050 C.ar  205  TRP205      0.0152
    125  NE1       43.8500   49.7840   60.0160 N.ar  205  TRP205     -0.2442
    126  CE2       43.4480   50.1810   61.2620 C.ar  205  TRP205      0.0810
    127  CE3       44.4410   50.4800   63.4540 C.ar  205  TRP205      0.0012
    128  CZ2       42.1710   50.5520   61.7310 C.ar  205  TRP205      0.0191
    129  CZ3       43.1680   50.8520   63.9230 C.ar  205  TRP205      0.0001
    130  CH2       42.0530   50.8780   63.0590 C.ar  205  TRP205      0.0015
    131  N         47.7410   51.9560   59.5920 N.am  206  ILE206     -0.1980
    132  CA        48.0970   52.3960   58.2410 C.3   206  ILE206      0.1595
    133  C         49.3130   53.3360   58.2440 C.2   206  ILE206      0.2287
    134  O         50.2360   53.1440   57.4570 O.2   206  ILE206     -0.2864
    135  CB        46.9080   53.0320   57.5060 C.3   206  ILE206      0.0276
    136  CG1       45.7390   52.0340   57.3820 C.3   206  ILE206      0.0022
    137  CG2       47.3140   53.5300   56.1340 C.3   206  ILE206      0.0022
    138  CD1       45.9960   50.7950   56.5310 C.3   206  ILE206      0.0001
    139  N         42.6510   43.4150   65.4300 N.3   219  PHE219     -0.1227
    140  CA        41.3170   42.9020   65.7010 C.3   219  PHE219      0.1736
    141  C         41.1700   41.3890   65.6220 C.2   219  PHE219      0.2595
    142  O         41.8070   40.7410   64.8070 O.2   219  PHE219     -0.2718
    143  CB        40.3190   43.5730   64.7700 C.3   219  PHE219      0.0547
    144  CG        40.4520   45.0720   64.7540 C.ar  219  PHE219     -0.0202
    145  CD1       40.0940   45.8230   65.8790 C.ar  219  PHE219     -0.0042
    146  CD2       40.9650   45.7310   63.6350 C.ar  219  PHE219     -0.0042
    147  CE1       40.2280   47.2140   65.8880 C.ar  219  PHE219     -0.0003
    148  CE2       41.0890   47.1220   63.6290 C.ar  219  PHE219     -0.0003
    149  CZ        40.7250   47.8600   64.7600 C.ar  219  PHE219     -0.0000
    150  N         40.2530   40.8760   66.4290 N.am  220  TRP220     -0.1962
    151  CA        39.9920   39.4470   66.5880 C.3   220  TRP220      0.1771
    152  C         38.5090   39.1170   66.4020 C.2   220  TRP220      0.2620
    153  O         37.6360   39.8940   66.8160 O.2   220  TRP220     -0.2715
    154  CB        40.4000   39.0510   67.9950 C.3   220  TRP220      0.0590
    155  CG        41.8300   39.3380   68.2590 C.ar  220  TRP220      0.0006
    156  CD1       42.3970   40.5300   68.6430 C.ar  220  TRP220      0.0946
    157  CD2       42.8790   38.4130   68.1500 C.ar  220  TRP220      0.0152
    158  NE1       43.7480   40.3900   68.7740 N.ar  220  TRP220     -0.2442
    159  CE2       44.0690   39.0900   68.4830 C.ar  220  TRP220      0.0810
    160  CE3       42.9340   37.0590   67.8180 C.ar  220  TRP220      0.0012
    161  CZ2       45.2920   38.4610   68.4770 C.ar  220  TRP220      0.0191
    162  CZ3       44.1440   36.4420   67.8130 C.ar  220  TRP220      0.0001
    163  CH2       45.3070   37.1430   68.1290 C.ar  220  TRP220      0.0015
    164  N         38.2340   37.9660   65.7860 N.am  221  SER221     -0.1936
    165  CA        36.8880   37.3870   65.7760 C.3   221  SER221      0.2055
    166  C         36.4720   37.0980   67.2050 C.2   221  SER221      0.2642
    167  O         37.2850   36.6640   68.0280 O.2   221  SER221     -0.2714
    168  CB        36.8240   36.0850   64.9610 C.3   221  SER221      0.2130
    169  OG        36.9870   36.3210   63.5780 O.3   221  SER221     -0.2179
    170  N         35.1940   37.3190   67.4840 N.am  222  VAL222     -0.1977
    171  CA        34.6740   37.2640   68.8500 C.3   222  VAL222      0.1596
    172  C         34.7710   35.8670   69.4840 C.2   222  VAL222      0.2287
    173  O         34.9030   35.7670   70.6930 O.2   222  VAL222     -0.2864
    174  CB        33.2240   37.8170   68.9200 C.3   222  VAL222      0.0276
    175  CG1       32.2160   36.8170   68.3380 C.3   222  VAL222      0.0022
    176  CG2       32.8630   38.2060   70.3470 C.3   222  VAL222      0.0022
    177  N         41.7970   44.6060   72.5900 N.3   251  TYR251     -0.1241
    178  CA        40.5730   45.3120   73.0120 C.3   251  TYR251      0.1605
    179  C         39.6910   44.3860   73.8370 C.2   251  TYR251      0.2264
    180  O         39.4430   43.2340   73.4520 O.2   251  TYR251     -0.2867
    181  CB        39.8210   45.9090   71.8310 C.3   251  TYR251      0.0534
    182  CG        39.3580   44.9140   70.8000 C.ar  251  TYR251     -0.0201
    183  CD1       37.9970   44.6970   70.5590 C.ar  251  TYR251     -0.0009
    184  CD2       40.2800   44.1910   70.0530 C.ar  251  TYR251     -0.0009
    185  CE1       37.5850   43.7820   69.5990 C.ar  251  TYR251      0.0417
    186  CE2       39.8680   43.2910   69.1000 C.ar  251  TYR251      0.0417
    187  CZ        38.5310   43.1010   68.8760 C.ar  251  TYR251      0.1957
    188  OH        38.1550   42.2030   67.9340 O.3   251  TYR251     -0.2866
@<TRIPOS>BOND
     1    85    83   am
     2    84    83    2
     3    83    82    1
     4    90    91    1
     5    90    87    1
     6    93    91   ar
     7    93    95   ar
     8    91    92   ar
     9    95    94   ar
    10    92    94   ar
    11    88    87    1
    12    88    89    2
    13    86    87    1
    14    86    80   am
    15    82    79    1
    16    79    80    1
    17    79    78    1
    18    80    81    2
    19    70    69    2
    20    18    17    2
    21    78    69   am
    22    22    24   ar
    23    22    20   ar
    24    24    25   ar
    25    99    98    2
    26    69    68    1
    27    19    20    1
    28    19    16    1
    29   137   135    1
    30    20    21   ar
    31   138   136    1
    32    17    16    1
    33    96    97    1
    34    98    97    1
    35    25    26    1
    36    25    23   ar
    37    16    15    1
    38    71    68    1
    39    71    72    1
    40    68    67    1
    41   136   135    1
    42    21    23   ar
    43   134   133    2
    44   135   132    1
    45    97   100    1
    46   102   101   ar
    47   102   104   ar
    48   100   101    1
    49    67    60   am
    50   132   133    1
    51   132   131    1
    52    15    11   am
    53    72    74   ar
    54    72    73   ar
    55   101   103   ar
    56   104   105   ar
    57    60    61    2
    58    60    59    1
    59    58    59    1
    60    12    11    2
    61    74    76   ar
    62    73    75   ar
    63   116   115    1
    64   116   110    1
    65    11    10    1
    66    59    62    1
    67    57    56    1
    68   131   119   am
    69   120   119    2
    70   103   105   ar
    71   103   106   ar
    72     4     3    2
    73   105   107   ar
    74   115   114    1
    75   125   123   ar
    76   125   126   ar
    77   123   122   ar
    78   110   111    1
    79   119   118    1
    80    76    77   ar
    81    75    77   ar
    82     3     2    1
    83   113   112    2
    84    56    55   ar
    85    56    54   ar
    86    10     9    1
    87    10    13    1
    88     5     2    1
    89     5     6    1
    90    55    53   ar
    91    62    63    1
    92     7     6    1
    93   106   108   ar
    94   107   109   ar
    95    13    14    1
    96   126   128   ar
    97   126   124   ar
    98   122   121    1
    99   122   124   ar
   100    63    64    1
   101   111   114    1
   102   111   112    1
   103     2     1    1
   104    54    52   ar
   105   118   121    1
   106   118   117    1
   107   128   130   ar
   108     6     8    1
   109   124   127   ar
   110    53    51   ar
   111   108   109   ar
   112    64    65    1
   113    52    51   ar
   114   130   129   ar
   115    66    65    1
   116    51    50    1
   117   127   129   ar
   118   169   168    1
   119   148   146   ar
   120   148   149   ar
   121   146   144   ar
   122    50    47    1
   123   144   143    1
   124   144   145   ar
   125   149   147   ar
   126   143   140    1
   127    36    34   ar
   128    36    37   ar
   129   142   141    2
   130   168   165    1
   131    34    32   ar
   132    49    48    2
   133   139   140    1
   134   141   140    1
   135   141   150   am
   136    47    48    1
   137    47    46    1
   138   165   164    1
   139   165   166    1
   140   164   152   am
   141    37    35   ar
   142   145   147   ar
   143    32    31    1
   144    32    33   ar
   145   152   151    1
   146   152   153    2
   147   150   151    1
   148    31    28    1
   149   151   154    1
   150    30    29    2
   151    46    40   am
   152    35    33   ar
   153   166   170   am
   154   166   167    2
   155    29    28    1
   156   170   171    1
   157    28    27    1
   158   162   160   ar
   159   162   163   ar
   160   160   157   ar
   161    41    40    2
   162    40    39    1
   163   188   187    1
   164   154   155    1
   165   163   161   ar
   166   157   155   ar
   167   157   159   ar
   168   155   156   ar
   169   175   174    1
   170   161   159   ar
   171   159   158   ar
   172   156   158   ar
   173   171   174    1
   174   171   172    1
   175   187   186   ar
   176   187   185   ar
   177   174   176    1
   178    42    39    1
   179    42    43    1
   180   186   184   ar
   181    39    38    1
   182   172   173    2
   183   185   183   ar
   184   184   182   ar
   185    44    43    1
   186    43    45    1
   187   183   182   ar
   188   182   181    1
   189   181   178    1
   190   177   178    1
   191   178   179    1
   192   180   179    2
