@<TRIPOS>MOLECULE
tmp/5dlwA01.pdb
 195 196 0 0 0
SMALL
GASTEIGER

@<TRIPOS>ATOM
      1  N         -0.1480   -6.1610   19.4040 N.3    23  LEU23      -0.1245
      2  CA        -1.4140   -6.7540   18.9920 C.3    23  LEU23       0.1561
      3  C         -2.1290   -7.5600   20.0750 C.2    23  LEU23       0.2260
      4  O         -3.2230   -8.0650   19.8200 O.2    23  LEU23      -0.2867
      5  CB        -1.1990   -7.6900   17.7880 C.3    23  LEU23       0.0270
      6  CG        -1.4710   -7.1720   16.3910 C.3    23  LEU23       0.0019
      7  CD1       -1.2330   -8.3090   15.3950 C.3    23  LEU23       0.0001
      8  CD2       -2.8800   -6.6210   16.2480 C.3    23  LEU23       0.0001
      9  N         -5.9510   -7.0820   20.7530 N.3    26  SER26      -0.1202
     10  CA        -6.8330   -7.5750   19.6950 C.3    26  SER26       0.2020
     11  C         -7.0900   -9.0860   19.7200 C.2    26  SER26       0.2618
     12  O         -8.0080   -9.5620   19.0330 O.2    26  SER26      -0.2717
     13  CB        -6.2530   -7.2140   18.3190 C.3    26  SER26       0.2103
     14  OG        -5.9950   -5.8250   18.2030 O.3    26  SER26      -0.2182
     15  N         -6.2630   -9.8350   20.4500 N.am   27  TYR27      -0.1975
     16  CA        -6.4390  -11.2750   20.6320 C.3    27  TYR27       0.1639
     17  C         -6.7120  -11.6680   22.1050 C.2    27  TYR27       0.2290
     18  O         -6.6180  -12.8410   22.4550 O.2    27  TYR27      -0.2864
     19  CB        -5.1970  -12.0090   20.1000 C.3    27  TYR27       0.0560
     20  CG        -5.0610  -12.0030   18.5990 C.ar   27  TYR27      -0.0198
     21  CD1       -4.3920  -10.9760   17.9420 C.ar   27  TYR27      -0.0009
     22  CD2       -5.6040  -13.0330   17.8300 C.ar   27  TYR27      -0.0009
     23  CE1       -4.2670  -10.9760   16.5660 C.ar   27  TYR27       0.0417
     24  CE2       -5.4850  -13.0440   16.4480 C.ar   27  TYR27       0.0417
     25  CZ        -4.8150  -12.0180   15.8200 C.ar   27  TYR27       0.1957
     26  OH        -4.7000  -12.0260   14.4460 O.3    27  TYR27      -0.2866
     27  N        -10.0500   -1.1670    3.0110 N.3   155  PHE155     -0.1241
     28  CA        -9.4580   -2.4940    3.1130 C.3   155  PHE155      0.1605
     29  C         -8.8480   -2.9200    1.7620 C.2   155  PHE155      0.2264
     30  O         -7.6960   -3.3800    1.7410 O.2   155  PHE155     -0.2867
     31  CB       -10.4000   -3.5430    3.6680 C.3   155  PHE155      0.0534
     32  CG       -10.3190   -3.6900    5.1710 C.ar  155  PHE155     -0.0203
     33  CD1      -10.5300   -2.5920    5.9990 C.ar  155  PHE155     -0.0042
     34  CD2      -10.0500   -4.9270    5.7610 C.ar  155  PHE155     -0.0042
     35  CE1      -10.4760   -2.7230    7.3940 C.ar  155  PHE155     -0.0003
     36  CE2       -9.9920   -5.0660    7.1440 C.ar  155  PHE155     -0.0003
     37  CZ       -10.2060   -3.9610    7.9610 C.ar  155  PHE155     -0.0000
     38  N         -4.6510   -3.2210    1.4400 N.3   159  TYR159     -0.1241
     39  CA        -4.0580   -4.5080    1.1190 C.3   159  TYR159      0.1605
     40  C         -3.4170   -4.5210   -0.3040 C.2   159  TYR159      0.2264
     41  O         -2.4610   -5.2660   -0.5430 O.2   159  TYR159     -0.2867
     42  CB        -5.0340   -5.6390    1.3160 C.3   159  TYR159      0.0534
     43  CG        -4.3730   -6.9790    1.5290 C.ar  159  TYR159     -0.0201
     44  CD1       -3.3710   -7.1460    2.4920 C.ar  159  TYR159     -0.0009
     45  CD2       -4.7470   -8.0810    0.7850 C.ar  159  TYR159     -0.0009
     46  CE1       -2.7710   -8.3780    2.6920 C.ar  159  TYR159      0.0417
     47  CE2       -4.1630   -9.3200    0.9770 C.ar  159  TYR159      0.0417
     48  CZ        -3.1690   -9.4640    1.9390 C.ar  159  TYR159      0.1957
     49  OH        -2.5600  -10.6740    2.1300 O.3   159  TYR159     -0.2866
     50  N        -15.9690   -4.9650    8.3730 N.3   188  LEU188     -0.1245
     51  CA       -15.0370   -4.1250    9.1550 C.3   188  LEU188      0.1561
     52  C        -15.1160   -4.5100   10.6250 C.2   188  LEU188      0.2260
     53  O        -14.1050   -4.8040   11.2420 O.2   188  LEU188     -0.2867
     54  CB       -15.3580   -2.6370    9.0030 C.3   188  LEU188      0.0270
     55  CG       -15.2140   -2.0440    7.5980 C.3   188  LEU188      0.0019
     56  CD1      -15.9080   -0.6920    7.5000 C.3   188  LEU188      0.0001
     57  CD2      -13.7520   -1.9500    7.2150 C.3   188  LEU188      0.0001
     58  N        -16.0670   -6.9630   13.7400 N.3   190  GLY190     -0.1210
     59  CA       -16.1690   -8.3900   14.0580 C.3   190  GLY190      0.1956
     60  C        -14.8740   -9.1450   13.8410 C.2   190  GLY190      0.2611
     61  O        -13.8370   -8.5600   13.5140 O.2   190  GLY190     -0.2717
     62  N        -14.9600  -10.4610   14.0120 N.am  191  ARG191     -0.1979
     63  CA       -13.7960  -11.3340   14.0670 C.3   191  ARG191      0.1597
     64  C        -13.4720  -12.0370   12.7540 C.2   191  ARG191      0.2287
     65  O        -12.3540  -12.5010   12.5930 O.2   191  ARG191     -0.2864
     66  CB       -13.9850  -12.4070   15.1480 C.3   191  ARG191      0.0334
     67  CG       -14.2610  -11.8730   16.5550 C.3   191  ARG191      0.0492
     68  CD       -13.1630  -10.9630   17.0980 C.3   191  ARG191      0.2205
     69  NE       -11.8620  -11.6270   17.1880 N.pl3 191  ARG191     -0.0865
     70  CZ       -10.7200  -11.0310   17.5570 C.cat 191  ARG191      0.5346
     71  NH1      -10.6850   -9.7310   17.8830 N.pl3 191  ARG191      0.1354
     72  NH2       -9.5930  -11.7410   17.5910 N.pl3 191  ARG191      0.1354
     73  N        -12.6840  -11.1550    9.8400 N.3   193  LYS193     -0.1231
     74  CA       -11.4900  -10.6170    9.1790 C.3   193  LYS193      0.1693
     75  C        -10.1310  -11.1200    9.7230 C.2   193  LYS193      0.2592
     76  O         -9.1160  -11.0150    9.0280 O.2   193  LYS193     -0.2718
     77  CB       -11.5140   -9.0860    9.1900 C.3   193  LYS193      0.0285
     78  CG       -11.1670   -8.4310   10.5190 C.3   193  LYS193      0.0035
     79  CD       -11.2950   -6.9230   10.4070 C.3   193  LYS193      0.0206
     80  CE       -11.2160   -6.2370   11.7560 C.3   193  LYS193      0.1093
     81  NZ       -12.4790   -6.4210   12.5330 N.3   193  LYS193     -0.1314
     82  N        -10.1010  -11.6390   10.9470 N.am  194  PHE194     -0.1976
     83  CA        -8.8570  -12.2000   11.5120 C.3   194  PHE194      0.1639
     84  C         -8.5510  -13.5810   10.9590 C.2   194  PHE194      0.2290
     85  O         -7.4710  -14.1080   11.1960 O.2   194  PHE194     -0.2864
     86  CB        -8.9350  -12.3080   13.0460 C.3   194  PHE194      0.0560
     87  CG        -8.9110  -10.9860   13.7490 C.ar  194  PHE194     -0.0200
     88  CD1      -10.0830  -10.2630   13.9340 C.ar  194  PHE194     -0.0042
     89  CD2       -7.7260  -10.4620   14.2100 C.ar  194  PHE194     -0.0042
     90  CE1      -10.0690   -9.0450   14.5640 C.ar  194  PHE194     -0.0003
     91  CE2       -7.7020   -9.2440   14.8560 C.ar  194  PHE194     -0.0003
     92  CZ        -8.8720   -8.5370   15.0290 C.ar  194  PHE194     -0.0000
     93  N         -7.2450  -15.9710    8.4120 N.3   196  HIS196     -0.1241
     94  CA        -6.2450  -15.9000    7.3330 C.3   196  HIS196      0.1621
     95  C         -6.7990  -16.2310    5.9270 C.2   196  HIS196      0.2264
     96  O         -6.2780  -15.7480    4.9260 O.2   196  HIS196     -0.2867
     97  CB        -5.0690  -16.8470    7.6280 C.3   196  HIS196      0.0745
     98  CG        -4.1110  -16.3550    8.6820 C.ar  196  HIS196      0.0817
     99  ND1       -4.4550  -16.2090   10.0110 N.ar  196  HIS196     -0.2268
    100  CD2       -2.7980  -16.0270    8.6020 C.ar  196  HIS196      0.1154
    101  CE1       -3.4080  -15.7810   10.6950 C.ar  196  HIS196      0.1986
    102  NE2       -2.3890  -15.6620    9.8630 N.ar  196  HIS196     -0.2212
    103  N         -7.2380  -13.6170    2.9310 N.3   199  TRP199     -0.1241
    104  CA        -6.1740  -12.7010    2.5450 C.3   199  TRP199      0.1605
    105  C         -5.1630  -13.4070    1.6320 C.2   199  TRP199      0.2264
    106  O         -4.4070  -14.2500    2.0980 O.2   199  TRP199     -0.2867
    107  CB        -5.4710  -12.1820    3.8000 C.3   199  TRP199      0.0550
    108  CG        -6.3930  -11.5310    4.7950 C.ar  199  TRP199      0.0003
    109  CD1       -7.1110  -12.1510    5.7370 C.ar  199  TRP199      0.0946
    110  CD2       -6.6270  -10.1330    4.9670 C.ar  199  TRP199      0.0152
    111  NE1       -7.8090  -11.2440    6.4840 N.ar  199  TRP199     -0.2442
    112  CE2       -7.5390   -9.9910    6.0200 C.ar  199  TRP199      0.0810
    113  CE3       -6.1530   -8.9900    4.3340 C.ar  199  TRP199      0.0012
    114  CZ2       -7.9900   -8.7470    6.4650 C.ar  199  TRP199      0.0191
    115  CZ3       -6.6080   -7.7570    4.7630 C.ar  199  TRP199      0.0001
    116  CH2       -7.5080   -7.6440    5.8270 C.ar  199  TRP199      0.0015
    117  N          1.9850  -10.2310    1.2620 N.3   203  PRO203     -0.2116
    118  CA         2.1930   -8.8370    1.6610 C.3   203  PRO203      0.1372
    119  C          3.6510   -8.5660    2.0790 C.2   203  PRO203      0.2244
    120  O          4.4070   -9.5010    2.3710 O.2   203  PRO203     -0.2868
    121  CB         1.2060   -8.6410    2.8090 C.3   203  PRO203      0.0268
    122  CG         0.9590  -10.0000    3.3520 C.3   203  PRO203      0.0207
    123  CD         1.1640  -10.9800    2.2320 C.3   203  PRO203      0.0892
    124  N          5.3340   -7.5430    4.6080 N.3   205  TRP205     -0.1227
    125  CA         5.9000   -8.0430    5.8730 C.3   205  TRP205      0.1737
    126  C          6.2950   -9.5180    5.7380 C.2   205  TRP205      0.2595
    127  O          7.3020   -9.9530    6.3460 O.2   205  TRP205     -0.2718
    128  CB         4.9620   -7.7920    7.0870 C.3   205  TRP205      0.0564
    129  CG         3.5360   -8.3090    6.9480 C.ar  205  TRP205      0.0003
    130  CD1        3.0670   -9.5230    7.3490 C.ar  205  TRP205      0.0946
    131  CD2        2.4100   -7.6050    6.4040 C.ar  205  TRP205      0.0152
    132  NE1        1.7320   -9.6300    7.0700 N.ar  205  TRP205     -0.2442
    133  CE2        1.2960   -8.4690    6.5000 C.ar  205  TRP205      0.0810
    134  CE3        2.2340   -6.3310    5.8320 C.ar  205  TRP205      0.0012
    135  CZ2        0.0290   -8.1170    6.0360 C.ar  205  TRP205      0.0191
    136  CZ3        0.9580   -5.9740    5.3700 C.ar  205  TRP205      0.0001
    137  CH2       -0.1220   -6.8700    5.4710 C.ar  205  TRP205      0.0015
    138  N          5.5560  -10.2690    4.9110 N.am  206  ILE206     -0.1980
    139  CA         5.8870  -11.6760    4.6340 C.3   206  ILE206      0.1595
    140  C          7.0550  -11.7740    3.6590 C.2   206  ILE206      0.2287
    141  O          7.9580  -12.6020    3.8370 O.2   206  ILE206     -0.2864
    142  CB         4.6750  -12.4720    4.1010 C.3   206  ILE206      0.0276
    143  CG1        3.5040  -12.4480    5.0970 C.3   206  ILE206      0.0022
    144  CG2        5.0670  -13.9070    3.7450 C.3   206  ILE206      0.0022
    145  CD1        3.8450  -12.9350    6.4790 C.3   206  ILE206      0.0001
    146  N          0.9820   -4.2920   12.7350 N.3   219  PHE219     -0.1227
    147  CA        -0.3740   -3.9810   13.1470 C.3   219  PHE219      0.1736
    148  C         -0.4010   -3.5910   14.6040 C.2   219  PHE219      0.2595
    149  O          0.2930   -4.1730   15.4170 O.2   219  PHE219     -0.2718
    150  CB        -1.2730   -5.1740   12.8770 C.3   219  PHE219      0.0547
    151  CG        -1.2600   -5.5830   11.4450 C.ar  219  PHE219     -0.0202
    152  CD1       -1.9520   -4.8300   10.5100 C.ar  219  PHE219     -0.0042
    153  CD2       -0.4890   -6.6550   11.0150 C.ar  219  PHE219     -0.0042
    154  CE1       -1.9160   -5.1650    9.1620 C.ar  219  PHE219     -0.0003
    155  CE2       -0.4420   -6.9980    9.6670 C.ar  219  PHE219     -0.0003
    156  CZ        -1.1670   -6.2520    8.7450 C.ar  219  PHE219     -0.0000
    157  N         -1.2180   -2.5980   14.9040 N.am  220  TRP220     -0.1962
    158  CA        -1.3890   -2.0690   16.2300 C.3   220  TRP220      0.1771
    159  C         -2.8290   -2.3080   16.6770 C.2   220  TRP220      0.2620
    160  O         -3.7730   -2.1400   15.8940 O.2   220  TRP220     -0.2715
    161  CB        -1.0480   -0.5770   16.2100 C.3   220  TRP220      0.0590
    162  CG         0.4420   -0.2950   16.2710 C.ar  220  TRP220      0.0006
    163  CD1        1.3150   -0.1210   15.2200 C.ar  220  TRP220      0.0946
    164  CD2        1.2190   -0.1640   17.4620 C.ar  220  TRP220      0.0152
    165  NE1        2.5880    0.1160   15.7000 N.ar  220  TRP220     -0.2442
    166  CE2        2.5510    0.1050   17.0720 C.ar  220  TRP220      0.0810
    167  CE3        0.9090   -0.2180   18.8310 C.ar  220  TRP220      0.0012
    168  CZ2        3.5780    0.2930   18.0100 C.ar  220  TRP220      0.0191
    169  CZ3        1.9330   -0.0240   19.7660 C.ar  220  TRP220      0.0001
    170  CH2        3.2400    0.2250   19.3500 C.ar  220  TRP220      0.0015
    171  N         -3.0030   -2.7230   17.9270 N.am  221  SER221     -0.1936
    172  CA        -4.3260   -2.7430   18.5350 C.3   221  SER221      0.2055
    173  C         -4.8260   -1.3070   18.5730 C.2   221  SER221      0.2642
    174  O         -4.0570   -0.3870   18.8880 O.2   221  SER221     -0.2714
    175  CB        -4.2680   -3.3340   19.9270 C.3   221  SER221      0.2130
    176  OG        -3.8970   -4.6980   19.8710 O.3   221  SER221     -0.2179
    177  N         -6.1050   -1.1080   18.2510 N.am  222  VAL222     -0.1977
    178  CA        -6.5950    0.2530   17.9460 C.3   222  VAL222      0.1596
    179  C         -6.6470    1.1810   19.1550 C.2   222  VAL222      0.2287
    180  O         -6.6090    2.3870   18.9910 O.2   222  VAL222     -0.2864
    181  CB        -7.9590    0.2660   17.1980 C.3   222  VAL222      0.0276
    182  CG1       -7.8710   -0.5800   15.9340 C.3   222  VAL222      0.0022
    183  CG2       -9.0930   -0.1920   18.0890 C.3   222  VAL222      0.0022
    184  N         -0.4270    3.6400   10.8710 N.3   251  TYR251     -0.1241
    185  CA        -1.6610    4.0050   10.1730 C.3   251  TYR251      0.1605
    186  C         -2.5570    4.9160   11.0020 C.2   251  TYR251      0.2264
    187  O         -2.7340    4.7400   12.2090 O.2   251  TYR251     -0.2867
    188  CB        -2.4040    2.7760    9.6120 C.3   251  TYR251      0.0534
    189  CG        -2.5900    1.5780   10.5070 C.ar  251  TYR251     -0.0201
    190  CD1       -3.6550    1.5100   11.3920 C.ar  251  TYR251     -0.0009
    191  CD2       -1.7630    0.4710   10.3930 C.ar  251  TYR251     -0.0009
    192  CE1       -3.8510    0.4010   12.1870 C.ar  251  TYR251      0.0417
    193  CE2       -1.9560   -0.6420   11.1850 C.ar  251  TYR251      0.0417
    194  CZ        -3.0080   -0.6630   12.0770 C.ar  251  TYR251      0.1957
    195  OH        -3.2290   -1.7540   12.8620 O.3   251  TYR251     -0.2866
@<TRIPOS>BOND
     1    41    40    2
     2    40    39    1
     3    45    47   ar
     4    45    43   ar
     5    47    48   ar
     6    39    42    1
     7    39    38    1
     8   117   118    1
     9   117   123    1
    10    42    43    1
    11    43    44   ar
    12   105   106    2
    13   105   104    1
    14   118   119    1
    15   118   121    1
    16    30    29    2
    17    29    28    1
    18    48    49    1
    19    48    46   ar
    20   119   120    2
    21   123   122    1
    22    44    46   ar
    23   104   103    1
    24   104   107    1
    25   121   122    1
    26    27    28    1
    27    28    31    1
    28   140   141    2
    29   140   139    1
    30    31    32    1
    31   144   142    1
    32   107   108    1
    33   142   139    1
    34   142   143    1
    35   113   115   ar
    36   113   110   ar
    37   124   125    1
    38   139   138    1
    39   115   116   ar
    40   108   110   ar
    41   108   109   ar
    42   138   126   am
    43    96    95    2
    44   110   112   ar
    45   143   145    1
    46    32    34   ar
    47    32    33   ar
    48   136   137   ar
    49   136   134   ar
    50   137   135   ar
    51   109   111   ar
    52   126   125    1
    53   126   127    2
    54    34    36   ar
    55   116   114   ar
    56   134   131   ar
    57   125   128    1
    58    95    94    1
    59    33    35   ar
    60   112   114   ar
    61   112   111   ar
    62   135   133   ar
    63   131   133   ar
    64   131   129   ar
    65   133   132   ar
    66   129   128    1
    67   129   130   ar
    68   132   130   ar
    69    36    37   ar
    70    57    55    1
    71    94    97    1
    72    94    93    1
    73    35    37   ar
    74    56    55    1
    75    55    54    1
    76    97    98    1
    77    50    51    1
    78   100    98   ar
    79   100   102   ar
    80    98    99   ar
    81   156   154   ar
    82   156   155   ar
    83    54    51    1
    84    76    75    2
    85    51    52    1
    86   154   152   ar
    87    74    77    1
    88    74    75    1
    89    74    73    1
    90    77    78    1
    91   188   185    1
    92   188   189    1
    93   155   153   ar
    94    75    82   am
    95   102   101   ar
    96    99   101   ar
    97   185   184    1
    98   185   186    1
    99   191   189   ar
   100   191   193   ar
   101    79    78    1
   102    79    80    1
   103   189   190   ar
   104   152   151   ar
   105    52    53    2
   106    82    83    1
   107    84    85    2
   108    84    83    1
   109   186   187    2
   110   153   151   ar
   111   193   194   ar
   112   190   192   ar
   113   151   150    1
   114    83    86    1
   115    80    81    1
   116   194   192   ar
   117   194   195    1
   118    65    64    2
   119   146   147    1
   120    64    63    1
   121   150   147    1
   122    86    87    1
   123   147   148    1
   124    61    60    2
   125    58    59    1
   126    87    88   ar
   127    87    89   ar
   128    60    62   am
   129    60    59    1
   130    88    90   ar
   131    62    63    1
   132    63    66    1
   133    89    91   ar
   134    26    25    1
   135    90    92   ar
   136   148   157   am
   137   148   149    2
   138    91    92   ar
   139   157   158    1
   140    66    67    1
   141   163   165   ar
   142   163   162   ar
   143     7     6    1
   144   165   166   ar
   145    25    24   ar
   146    25    23   ar
   147   160   159    2
   148   182   181    1
   149   161   158    1
   150   161   162    1
   151   158   159    1
   152     8     6    1
   153   162   164   ar
   154     6     5    1
   155    24    22   ar
   156    67    68    1
   157    23    21   ar
   158   159   171   am
   159   166   164   ar
   160   166   168   ar
   161    68    69    1
   162    69    70    2
   163   181   178    1
   164   181   183    1
   165   164   167   ar
   166    70    72    1
   167    70    71    1
   168     5     2    1
   169    22    20   ar
   170   171   172    1
   171    21    20   ar
   172   178   177    1
   173   178   179    1
   174   168   170   ar
   175    14    13    1
   176   177   173   am
   177    13    10    1
   178   172   173    1
   179   172   175    1
   180   173   174    2
   181    20    19    1
   182   167   169   ar
   183   180   179    2
   184     2     1    1
   185     2     3    1
   186    12    11    2
   187   170   169   ar
   188    10    11    1
   189    10     9    1
   190    11    15   am
   191     4     3    2
   192   176   175    1
   193    19    16    1
   194    15    16    1
   195    16    17    1
   196    17    18    2
