@<TRIPOS>MOLECULE
tmp/5dlyA00.pdb
 183 174 0 0 0
SMALL
GASTEIGER

@<TRIPOS>ATOM
      1  N         31.2260  -73.6470   74.3330 N.3    20  PHE20      -0.1241
      2  CA        31.6740  -74.5090   73.2450 C.3    20  PHE20       0.1605
      3  C         33.1180  -74.9680   73.4020 C.2    20  PHE20       0.2264
      4  O         33.5860  -75.8010   72.6260 O.2    20  PHE20      -0.2867
      5  CB        31.4180  -73.8330   71.8910 C.3    20  PHE20       0.0534
      6  CG        29.9710  -73.5450   71.6720 C.ar   20  PHE20      -0.0203
      7  CD1       29.1240  -74.5440   71.2020 C.ar   20  PHE20      -0.0042
      8  CD2       29.4330  -72.3090   72.0210 C.ar   20  PHE20      -0.0042
      9  CE1       27.7690  -74.3090   71.0460 C.ar   20  PHE20      -0.0003
     10  CE2       28.0770  -72.0680   71.8580 C.ar   20  PHE20      -0.0003
     11  CZ        27.2470  -73.0670   71.3730 C.ar   20  PHE20      -0.0000
     12  N         21.0390  -78.8820   74.1030 N.3    32  TYR32      -0.1227
     13  CA        20.0700  -77.8460   73.7690 C.3    32  TYR32       0.1736
     14  C         20.0020  -77.6460   72.2480 C.2    32  TYR32       0.2595
     15  O         18.9100  -77.6420   71.6610 O.2    32  TYR32      -0.2718
     16  CB        20.3800  -76.5040   74.4630 C.3    32  TYR32       0.0548
     17  CG        19.3730  -75.4440   74.0730 C.ar   32  TYR32      -0.0200
     18  CD1       19.5470  -74.6880   72.9100 C.ar   32  TYR32      -0.0009
     19  CD2       18.2200  -75.2330   74.8300 C.ar   32  TYR32      -0.0009
     20  CE1       18.6120  -73.7490   72.5230 C.ar   32  TYR32       0.0417
     21  CE2       17.2750  -74.2830   74.4540 C.ar   32  TYR32       0.0417
     22  CZ        17.4770  -73.5440   73.2930 C.ar   32  TYR32       0.1957
     23  OH        16.5680  -72.5920   72.8760 O.3    32  TYR32      -0.2866
     24  N         21.1670  -77.4810   71.6250 N.am   33  ASP33      -0.1974
     25  CA        21.2320  -77.1330   70.1980 C.3    33  ASP33       0.1709
     26  C         20.6220  -78.2130   69.3200 C.2    33  ASP33       0.2293
     27  O         19.8880  -77.9110   68.3750 O.2    33  ASP33      -0.2864
     28  CB        22.6740  -76.8550   69.7630 C.3    33  ASP33       0.1436
     29  CG        23.2480  -75.5840   70.3760 C.2    33  ASP33       0.3671
     30  OD1       22.5110  -74.8420   71.0690 O.co2  33  ASP33      -0.2456
     31  OD2       24.4540  -75.3430   70.1600 O.co2  33  ASP33      -0.2456
     32  N         16.6520  -78.1450   70.0080 N.3    36  GLU36      -0.1231
     33  CA        15.8860  -76.9380   69.7250 C.3    36  GLU36       0.1699
     34  C         16.2330  -76.2490   68.4050 C.2    36  GLU36       0.2592
     35  O         15.4220  -75.4730   67.8930 O.2    36  GLU36      -0.2718
     36  CB        16.0090  -75.9400   70.8850 C.3    36  GLU36       0.0402
     37  CG        15.5440  -76.4590   72.2460 C.3    36  GLU36       0.1161
     38  CD        14.0350  -76.6370   72.3850 C.2    36  GLU36       0.3649
     39  OE1       13.2620  -76.1750   71.5180 O.co2  36  GLU36      -0.2457
     40  OE2       13.6060  -77.2500   73.3830 O.co2  36  GLU36      -0.2457
     41  N         17.4210  -76.5180   67.8620 N.am   37  THR37      -0.1953
     42  CA        17.8620  -75.8230   66.6440 C.3    37  THR37       0.1897
     43  C         18.0100  -76.7090   65.4060 C.2    37  THR37       0.2313
     44  O         18.2140  -76.2010   64.3030 O.2    37  THR37      -0.2863
     45  CB        19.1650  -74.9870   66.8580 C.3    37  THR37       0.1794
     46  OG1       20.3260  -75.8270   66.8400 O.3    37  THR37      -0.2208
     47  CG2       19.1280  -74.2140   68.1690 C.3    37  THR37       0.0378
     48  N         15.5870  -76.0800   62.2440 N.3    40  ILE40      -0.1245
     49  CA        15.8030  -74.8450   61.4790 C.3    40  ILE40       0.1561
     50  C         16.9890  -74.9800   60.5130 C.2    40  ILE40       0.2260
     51  O         17.0950  -74.2330   59.5440 O.2    40  ILE40      -0.2867
     52  CB        15.9290  -73.5970   62.3900 C.3    40  ILE40       0.0252
     53  CG1       15.6250  -72.3000   61.6250 C.3    40  ILE40       0.0019
     54  CG2       17.3020  -73.5140   63.0320 C.3    40  ILE40       0.0019
     55  CD1       14.1550  -72.0310   61.3780 C.3    40  ILE40       0.0001
     56  N         23.9460  -69.6400   63.2330 N.3   131  LEU131     -0.1231
     57  CA        23.8160  -69.6860   64.6910 C.3   131  LEU131      0.1693
     58  C         25.1590  -69.6480   65.4450 C.2   131  LEU131      0.2592
     59  O         25.3560  -70.3620   66.4460 O.2   131  LEU131     -0.2718
     60  CB        22.9010  -70.8640   65.1170 C.3   131  LEU131      0.0284
     61  CG        21.5200  -70.9460   64.4470 C.3   131  LEU131      0.0019
     62  CD1       20.7420  -72.1710   64.9220 C.3   131  LEU131      0.0001
     63  CD2       20.7150  -69.6710   64.6900 C.3   131  LEU131      0.0001
     64  N         26.0840  -68.8120   64.9770 N.am  132  CYS132     -0.1970
     65  CA        27.3850  -68.7030   65.6610 C.3   132  CYS132      0.1712
     66  C         28.0740  -67.3400   65.6200 C.2   132  CYS132      0.2296
     67  O         29.1150  -67.1760   66.2470 O.2   132  CYS132     -0.2864
     68  CB        28.3610  -69.7740   65.1610 C.3   132  CYS132      0.0983
     69  SG        28.8060  -69.6700   63.4150 S.3   132  CYS132     -0.0798
     70  N         27.6200  -64.4040   66.9670 N.3   134  GLY134     -0.1210
     71  CA        27.8540  -63.7980   68.2860 C.3   134  GLY134      0.1956
     72  C         28.9190  -64.4560   69.1530 C.2   134  GLY134      0.2611
     73  O         29.2170  -63.9670   70.2390 O.2   134  GLY134     -0.2717
     74  N         29.4940  -65.5700   68.6940 N.am  135  LEU135     -0.1979
     75  CA        30.5840  -66.2380   69.4180 C.3   135  LEU135      0.1596
     76  C         31.9550  -65.7120   69.0390 C.2   135  LEU135      0.2287
     77  O         32.9160  -65.9280   69.7750 O.2   135  LEU135     -0.2864
     78  CB        30.5580  -67.7570   69.1830 C.3   135  LEU135      0.0297
     79  CG        29.2810  -68.4860   69.5970 C.3   135  LEU135      0.0022
     80  CD1       29.3520  -69.9350   69.1600 C.3   135  LEU135      0.0001
     81  CD2       29.1460  -68.3930   71.1080 C.3   135  LEU135      0.0001
     82  N         21.3970  -65.6050   63.1470 N.3   160  ASP160     -0.1225
     83  CA        21.8100  -65.6050   64.5410 C.3   160  ASP160      0.1805
     84  C         20.7350  -65.0960   65.4830 C.2   160  ASP160      0.2597
     85  O         19.7110  -64.5570   65.0510 O.2   160  ASP160     -0.2718
     86  CB        23.0940  -64.7800   64.7220 C.3   160  ASP160      0.1424
     87  CG        23.9460  -65.2490   65.9150 C.2   160  ASP160      0.3668
     88  OD1       23.7480  -66.3900   66.4120 O.co2 160  ASP160     -0.2456
     89  OD2       24.8390  -64.4730   66.3290 O.co2 160  ASP160     -0.2456
     90  N         20.9810  -65.2840   66.7760 N.am  161  LEU161     -0.1979
     91  CA        20.1130  -64.7480   67.8210 C.3   161  LEU161      0.1596
     92  C         20.0640  -63.2260   67.7980 C.2   161  LEU161      0.2287
     93  O         21.0610  -62.5710   67.4800 O.2   161  LEU161     -0.2864
     94  CB        20.6300  -65.1760   69.1910 C.3   161  LEU161      0.0297
     95  CG        20.7370  -66.6730   69.4650 C.3   161  LEU161      0.0022
     96  CD1       21.3390  -66.8900   70.8480 C.3   161  LEU161      0.0001
     97  CD2       19.3860  -67.3520   69.3520 C.3   161  LEU161      0.0001
     98  N         13.4210  -66.1130   74.4880 N.3   169  GLY169     -0.1225
     99  CA        14.4140  -67.1460   74.2160 C.3   169  GLY169      0.1811
    100  C         14.6160  -68.1110   75.3660 C.2   169  GLY169      0.2280
    101  O         15.0150  -69.2480   75.1550 O.2   169  GLY169     -0.2866
    102  N         12.4770  -72.0740   76.1890 N.3   172  THR172     -0.1218
    103  CA        12.8290  -73.4330   75.7750 C.3   172  THR172      0.1862
    104  C         13.9000  -74.0970   76.6470 C.2   172  THR172      0.2287
    105  O         14.2290  -75.2680   76.4460 O.2   172  THR172     -0.2866
    106  CB        13.2780  -73.4640   74.3110 C.3   172  THR172      0.1770
    107  OG1       14.2030  -72.3950   74.0830 O.3   172  THR172     -0.2211
    108  CG2       12.0710  -73.3010   73.3930 C.3   172  THR172      0.0375
    109  N         23.1430  -70.9760   80.0300 N.3   181  TYR181     -0.1227
    110  CA        23.6280  -71.0450   78.6530 C.3   181  TYR181      0.1736
    111  C         22.9480  -70.0090   77.7650 C.2   181  TYR181      0.2595
    112  O         23.6160  -69.1930   77.1310 O.2   181  TYR181     -0.2718
    113  CB        23.4080  -72.4650   78.1260 C.3   181  TYR181      0.0548
    114  CG        23.5690  -72.6420   76.6380 C.ar  181  TYR181     -0.0200
    115  CD1       24.7860  -72.3640   76.0100 C.ar  181  TYR181     -0.0009
    116  CD2       22.5150  -73.1210   75.8680 C.ar  181  TYR181     -0.0009
    117  CE1       24.9360  -72.5410   74.6420 C.ar  181  TYR181      0.0417
    118  CE2       22.6480  -73.2890   74.4920 C.ar  181  TYR181      0.0417
    119  CZ        23.8640  -73.0020   73.8950 C.ar  181  TYR181      0.1957
    120  OH        24.0180  -73.1820   72.5400 O.3   181  TYR181     -0.2866
    121  N         21.6190  -70.0240   77.7440 N.am  182  LEU182     -0.1980
    122  CA        20.8740  -69.1120   76.8720 C.3   182  LEU182      0.1596
    123  C         21.0650  -67.6430   77.2410 C.2   182  LEU182      0.2287
    124  O         21.1890  -66.7920   76.3560 O.2   182  LEU182     -0.2864
    125  CB        19.3860  -69.4790   76.8310 C.3   182  LEU182      0.0297
    126  CG        19.0410  -70.8050   76.1400 C.3   182  LEU182      0.0022
    127  CD1       17.5380  -71.0330   76.2030 C.3   182  LEU182      0.0001
    128  CD2       19.5470  -70.8630   74.7010 C.3   182  LEU182      0.0001
    129  N         24.2860  -66.6890   75.8140 N.3   185  GLN185     -0.1231
    130  CA        24.1970  -66.6250   74.3480 C.3   185  GLN185      0.1698
    131  C         23.5070  -65.3400   73.8740 C.2   185  GLN185      0.2592
    132  O         24.0050  -64.6580   72.9730 O.2   185  GLN185     -0.2718
    133  CB        23.5100  -67.8640   73.7560 C.3   185  GLN185      0.0381
    134  CG        24.2160  -69.1950   74.0030 C.3   185  GLN185      0.0905
    135  CD        25.7200  -69.1330   73.7580 C.2   185  GLN185      0.2608
    136  OE1       26.5300  -69.4650   74.6320 O.2   185  GLN185     -0.2717
    137  NE2       26.0980  -68.6930   72.5740 N.am  185  GLN185     -0.0878
    138  N         22.3550  -65.0170   74.4620 N.am  186  TYR186     -0.1976
    139  CA        21.6370  -63.8020   74.0750 C.3   186  TYR186      0.1639
    140  C         22.3790  -62.5180   74.4230 C.2   186  TYR186      0.2290
    141  O         22.3490  -61.5720   73.6440 O.2   186  TYR186     -0.2864
    142  CB        20.2000  -63.7810   74.6200 C.3   186  TYR186      0.0560
    143  CG        19.2640  -64.6790   73.8420 C.ar  186  TYR186     -0.0198
    144  CD1       18.6270  -64.2270   72.6820 C.ar  186  TYR186     -0.0009
    145  CD2       19.0270  -65.9920   74.2560 C.ar  186  TYR186     -0.0009
    146  CE1       17.7710  -65.0580   71.9670 C.ar  186  TYR186      0.0417
    147  CE2       18.1850  -66.8320   73.5430 C.ar  186  TYR186      0.0417
    148  CZ        17.5630  -66.3640   72.4010 C.ar  186  TYR186      0.1957
    149  OH        16.7280  -67.2120   71.7110 O.3   186  TYR186     -0.2866
    150  N         25.5130  -62.0450   74.3710 N.3   188  ALA188     -0.1231
    151  CA        26.5870  -61.8800   73.3900 C.3   188  ALA188      0.1694
    152  C         26.0750  -61.4580   72.0160 C.2   188  ALA188      0.2592
    153  O         26.8640  -61.0880   71.1450 O.2   188  ALA188     -0.2718
    154  CB        27.3880  -63.1680   73.2670 C.3   188  ALA188      0.0304
    155  N         24.7620  -61.5170   71.8200 N.am  189  SER189     -0.1952
    156  CA        24.1840  -61.3030   70.4880 C.3   189  SER189      0.1924
    157  C         24.0670  -59.8300   70.1140 C.2   189  SER189      0.2314
    158  O         24.1060  -58.9520   70.9800 O.2   189  SER189     -0.2863
    159  CB        22.8010  -61.9520   70.4050 C.3   189  SER189      0.2116
    160  OG        22.8720  -63.3100   70.8070 O.3   189  SER189     -0.2180
    161  N          9.1570  -69.9580   68.3050 N.3   254  MET254     -0.1231
    162  CA        10.5160  -69.4000   68.3750 C.3   254  MET254      0.1687
    163  C         10.5180  -67.8860   68.2700 C.2   254  MET254      0.2434
    164  O          9.7650  -67.3380   67.4770 O.2   254  MET254     -0.2733
    165  CB        11.3210  -69.8560   67.1680 C.3   254  MET254      0.0400
    166  CG        11.8380  -71.2640   67.1770 C.3   254  MET254      0.0596
    167  SD        12.9040  -71.3290   65.7360 S.3   254  MET254     -0.1393
    168  CE        13.3350  -73.0640   65.7920 C.3   254  MET254      0.0692
    169  N         11.4160  -67.2120   69.0130 N.am  255  PRO255     -0.2729
    170  CA        11.6050  -65.7840   68.7610 C.3   255  PRO255      0.1401
    171  C         12.1870  -65.5570   67.3690 C.2   255  PRO255      0.2269
    172  O         12.8080  -66.4580   66.7950 O.2   255  PRO255     -0.2865
    173  CB        12.6270  -65.3620   69.8250 C.3   255  PRO255      0.0296
    174  CG        12.6290  -66.4440   70.8430 C.3   255  PRO255      0.0237
    175  CD        12.2630  -67.7000   70.1140 C.3   255  PRO255      0.0939
    176  N         14.6660  -64.5350   64.5480 N.3   257  LEU257     -0.1245
    177  CA        16.1210  -64.5490   64.4430 C.3   257  LEU257      0.1561
    178  C         16.5700  -63.4020   63.5500 C.2   257  LEU257      0.2260
    179  O         15.7740  -62.8750   62.7660 O.2   257  LEU257     -0.2867
    180  CB        16.5770  -65.8800   63.8390 C.3   257  LEU257      0.0270
    181  CG        16.3810  -67.1110   64.7310 C.3   257  LEU257      0.0019
    182  CD1       16.4220  -68.3890   63.9140 C.3   257  LEU257      0.0001
    183  CD2       17.4330  -67.1610   65.8250 C.3   257  LEU257      0.0001
@<TRIPOS>BOND
     1    51    50    2
     2    50    49    1
     3    55    53    1
     4    49    48    1
     5    49    52    1
     6    53    52    1
     7    52    54    1
     8   179   178    2
     9    82    83    1
    10    56    57    1
    11    69    68    1
    12   178   177    1
    13   180   177    1
    14   180   181    1
    15   182   181    1
    16    44    43    2
    17   177   176    1
    18    61    63    1
    19    61    62    1
    20    61    60    1
    21    83    86    1
    22    83    84    1
    23    57    60    1
    24    57    58    1
    25    86    87    1
    26   181   183    1
    27    64    58   am
    28    64    65    1
    29    85    84    2
    30    68    65    1
    31    43    42    1
    32    58    59    2
    33    84    90   am
    34    66    65    1
    35    66    67    2
    36   167   168    1
    37   167   166    1
    38    87    89   ar
    39    87    88   ar
    40    42    45    1
    41    42    41    1
    42    90    91    1
    43   172   171    2
    44    46    45    1
    45    45    47    1
    46    70    71    1
    47   165   166    1
    48   165   162    1
    49   171   170    1
    50   164   163    2
    51    93    92    2
    52    92    91    1
    53    91    94    1
    54    41    34   am
    55    35    34    2
    56   163   162    1
    57   163   169   am
    58    71    72    1
    59   161   162    1
    60    27    26    2
    61    34    33    1
    62    74    72   am
    63    74    75    1
    64   170   169    1
    65   170   173    1
    66   169   175    1
    67    76    75    1
    68    76    77    2
    69    72    73    2
    70    80    79    1
    71    78    75    1
    72    78    79    1
    73    94    95    1
    74    26    25    1
    75    97    95    1
    76    95    96    1
    77    79    81    1
    78    33    32    1
    79    33    36    1
    80    28    25    1
    81    28    29    1
    82   173   174    1
    83   175   174    1
    84   157   156    1
    85   157   158    2
    86    31    29   ar
    87    25    24    1
    88    29    30   ar
    89   159   156    1
    90   159   160    1
    91   156   155    1
    92    36    37    1
    93     9     7   ar
    94     9    11   ar
    95   153   152    2
    96     7     6   ar
    97    11    10   ar
    98    39    38   ar
    99    24    14   am
   100    15    14    2
   101     6     5    1
   102     6     8   ar
   103   149   148    1
   104   155   152   am
   105    10     8   ar
   106     5     2    1
   107   146   148   ar
   108   146   144   ar
   109   152   151    1
   110    37    38    1
   111    14    13    1
   112    38    40   ar
   113   148   147   ar
   114    20    18   ar
   115    20    22   ar
   116   120   119    1
   117   137   135   am
   118     4     3    2
   119   144   143   ar
   120    23    22    1
   121    18    17   ar
   122   132   131    2
   123     2     3    1
   124     2     1    1
   125   154   151    1
   126    22    21   ar
   127   151   150    1
   128   108   106    1
   129   147   145   ar
   130   141   140    2
   131   133   134    1
   132   133   130    1
   133   135   134    1
   134   135   136    2
   135    13    12    1
   136    13    16    1
   137   143   145   ar
   138   143   142    1
   139   131   130    1
   140   131   138   am
   141   119   118   ar
   142   119   117   ar
   143    17    16    1
   144    17    19   ar
   145   139   140    1
   146   139   138    1
   147   139   142    1
   148   107   106    1
   149    99    98    1
   150    99   100    1
   151   106   103    1
   152   130   129    1
   153    21    19   ar
   154   118   116   ar
   155   117   115   ar
   156   128   126    1
   157   101   100    2
   158   103   102    1
   159   103   104    1
   160   116   114   ar
   161   115   114   ar
   162   126   127    1
   163   126   125    1
   164   124   123    2
   165   105   104    2
   166   114   113    1
   167   125   122    1
   168   122   123    1
   169   122   121    1
   170   112   111    2
   171   121   111   am
   172   111   110    1
   173   113   110    1
   174   110   109    1
