@<TRIPOS>MOLECULE
tmp/5dlzA00.pdb
 134 132 0 0 0
SMALL
GASTEIGER

@<TRIPOS>ATOM
      1  N         -3.9970   -0.4160   -1.0420 N.3    40  TRP40      -0.1228
      2  CA        -3.6490   -1.7960   -1.5570 C.3    40  TRP40       0.1722
      3  C         -4.9410   -2.6120   -1.8120 C.2    40  TRP40       0.2437
      4  O         -5.0100   -3.2890   -2.8290 O.2    40  TRP40      -0.2733
      5  CB        -2.5250   -2.5920   -0.7310 C.3    40  TRP40       0.0563
      6  CG        -2.8480   -2.7750    0.6970 C.ar   40  TRP40       0.0003
      7  CD1       -2.4780   -1.9610    1.7560 C.ar   40  TRP40       0.0946
      8  CD2       -3.7450   -3.7900    1.2500 C.ar   40  TRP40       0.0152
      9  NE1       -3.1000   -2.4200    2.9140 N.ar   40  TRP40      -0.2442
     10  CE2       -3.8660   -3.5320    2.6340 C.ar   40  TRP40       0.0810
     11  CE3       -4.4320   -4.9030    0.7090 C.ar   40  TRP40       0.0012
     12  CZ2       -4.6430   -4.3480    3.4780 C.ar   40  TRP40       0.0191
     13  CZ3       -5.2080   -5.7020    1.5670 C.ar   40  TRP40       0.0001
     14  CH2       -5.2860   -5.4190    2.9150 C.ar   40  TRP40       0.0015
     15  N         -5.9760   -2.4930   -0.9200 N.am   41  PRO41      -0.2718
     16  CA        -7.1910   -3.2550   -1.1870 C.3    41  PRO41       0.1535
     17  C         -7.9320   -2.7900   -2.4500 C.2    41  PRO41       0.2598
     18  O         -8.6700   -3.5690   -2.9860 O.2    41  PRO41      -0.2715
     19  CB        -8.0460   -3.0840    0.1080 C.3    41  PRO41       0.0310
     20  CG        -7.2420   -2.3040    1.0280 C.3    41  PRO41       0.0237
     21  CD        -6.1340   -1.6190    0.2660 C.3    41  PRO41       0.0939
     22  N         -7.6020   -1.6100   -2.9690 N.am   42  PHE42      -0.1974
     23  CA        -8.3600   -0.9490   -4.0140 C.3    42  PHE42       0.1639
     24  C         -7.6630   -0.8930   -5.3780 C.2    42  PHE42       0.2290
     25  O         -8.2200   -0.2450   -6.3340 O.2    42  PHE42      -0.2864
     26  CB        -8.6880    0.4180   -3.4670 C.3    42  PHE42       0.0560
     27  CG        -9.5220    0.3300   -2.2100 C.ar   42  PHE42      -0.0200
     28  CD1      -10.8360   -0.1500   -2.2320 C.ar   42  PHE42      -0.0042
     29  CD2       -8.9530    0.6410   -0.9700 C.ar   42  PHE42      -0.0042
     30  CE1      -11.5750   -0.2650   -1.0630 C.ar   42  PHE42      -0.0003
     31  CE2       -9.7110    0.5110    0.1880 C.ar   42  PHE42      -0.0003
     32  CZ       -11.0000    0.0520    0.1640 C.ar   42  PHE42      -0.0000
     33  N         -6.6000   -3.4220   -7.4000 N.3    44  GLN44      -0.1245
     34  CA        -7.0870   -4.3890   -8.3770 C.3    44  GLN44       0.1566
     35  C         -8.5200   -4.8390   -8.0420 C.2    44  GLN44       0.2260
     36  O         -9.0230   -4.5990   -6.9280 O.2    44  GLN44      -0.2867
     37  CB        -6.1030   -5.5710   -8.3380 C.3    44  GLN44       0.0367
     38  CG        -5.9110   -6.2340   -6.9780 C.3    44  GLN44       0.0905
     39  CD        -5.0910   -5.4030   -6.0200 C.2    44  GLN44       0.2608
     40  OE1       -3.9640   -5.0550   -6.3530 O.2    44  GLN44      -0.2717
     41  NE2       -5.6280   -5.0660   -4.8500 N.am   44  GLN44      -0.0878
     42  N        -11.6870   -7.0880   -6.9000 N.3    46  VAL46      -0.1245
     43  CA       -11.9650   -7.9190   -5.7070 C.3    46  VAL46       0.1561
     44  C        -11.8720   -9.3760   -6.1100 C.2    46  VAL46       0.2260
     45  O        -12.6090   -9.8610   -6.9670 O.2    46  VAL46      -0.2867
     46  CB       -13.2870   -7.6060   -4.9310 C.3    46  VAL46       0.0252
     47  CG1      -13.4640   -8.6320   -3.8380 C.3    46  VAL46       0.0019
     48  CG2      -13.2650   -6.1940   -4.3110 C.3    46  VAL46       0.0019
     49  N        -12.6620  -15.1810   -4.6100 N.3    49  VAL49      -0.1231
     50  CA       -12.2100  -16.5680   -4.3620 C.3    49  VAL49       0.1692
     51  C        -11.0590  -16.5800   -3.3110 C.2    49  VAL49       0.2592
     52  O        -11.1650  -17.3170   -2.2700 O.2    49  VAL49      -0.2718
     53  CB       -11.7890  -17.3560   -5.6210 C.3    49  VAL49       0.0266
     54  CG1      -11.9170  -18.8370   -5.3190 C.3    49  VAL49       0.0020
     55  CG2      -12.6550  -17.0560   -6.8160 C.3    49  VAL49       0.0020
     56  N        -10.0260  -15.7900   -3.5330 N.am   50  LYS50      -0.1966
     57  CA        -8.8880  -15.7200   -2.5230 C.3    50  LYS50       0.1728
     58  C         -9.1950  -15.0260   -1.1870 C.2    50  LYS50       0.2616
     59  O         -8.6150  -15.3630   -0.1490 O.2    50  LYS50      -0.2715
     60  CB        -7.6980  -15.0460   -3.1460 C.3    50  LYS50       0.0311
     61  CG        -6.8650  -15.9900   -4.0240 C.3    50  LYS50       0.0038
     62  CD        -5.3150  -15.8180   -3.8620 C.3    50  LYS50       0.0206
     63  CE        -4.5830  -16.5810   -4.9790 C.3    50  LYS50       0.1093
     64  NZ        -4.9140  -18.0670   -5.0770 N.3    50  LYS50      -0.1314
     65  N        -10.0720  -14.0330   -1.2220 N.am   51  LEU51      -0.1963
     66  CA       -10.6020  -13.4350   -0.0170 C.3    51  LEU51       0.1728
     67  C        -11.6530  -14.2570    0.6840 C.2    51  LEU51       0.2616
     68  O        -12.1080  -13.8920    1.7860 O.2    51  LEU51      -0.2715
     69  CB       -11.1400  -12.0770   -0.3250 C.3    51  LEU51       0.0311
     70  CG       -10.0670  -11.0900   -0.7650 C.3    51  LEU51       0.0022
     71  CD1      -10.5280   -9.8530   -1.4860 C.3    51  LEU51       0.0001
     72  CD2       -9.2970  -10.6490    0.4420 C.3    51  LEU51       0.0001
     73  N        -12.0690  -15.3590    0.0650 N.am   52  ASN52      -0.1958
     74  CA       -13.2370  -16.1390    0.5970 C.3    52  ASN52       0.1819
     75  C        -14.4330  -15.2680    0.8950 C.2    52  ASN52       0.2621
     76  O        -14.8560  -15.1670    2.0600 O.2    52  ASN52      -0.2715
     77  CB       -12.8290  -16.8830    1.8690 C.3    52  ASN52       0.1195
     78  CG       -13.7800  -17.9810    2.1990 C.2    52  ASN52       0.2630
     79  OD1      -14.3590  -18.5900    1.2840 O.2    52  ASN52      -0.2716
     80  ND2      -13.9550  -18.2620    3.4740 N.am   52  ASN52      -0.0877
     81  N        -14.9390  -14.6010   -0.1460 N.am   53  LEU53      -0.1977
     82  CA       -16.0980  -13.6890   -0.0890 C.3    53  LEU53       0.1596
     83  C        -17.0750  -14.0710   -1.2050 C.2    53  LEU53       0.2287
     84  O        -17.3020  -13.3100   -2.1820 O.2    53  LEU53      -0.2864
     85  CB       -15.7310  -12.2320   -0.2550 C.3    53  LEU53       0.0297
     86  CG       -14.6500  -11.6660    0.7010 C.3    53  LEU53       0.0022
     87  CD1      -14.2350  -10.2040    0.2620 C.3    53  LEU53       0.0001
     88  CD2      -15.2640  -11.7760    2.0730 C.3    53  LEU53       0.0001
     89  N        -19.6930  -11.7560   -2.4620 N.3    56  TYR56      -0.1241
     90  CA       -19.3730  -10.3940   -2.8840 C.3    56  TYR56       0.1605
     91  C        -20.2310   -9.9290   -4.1160 C.2    56  TYR56       0.2264
     92  O        -20.7580   -8.8010   -4.1490 O.2    56  TYR56      -0.2867
     93  CB       -17.7970  -10.2200   -3.0810 C.3    56  TYR56       0.0534
     94  CG       -17.4700   -8.7620   -3.3170 C.ar   56  TYR56      -0.0201
     95  CD1      -17.4960   -7.8320   -2.2720 C.ar   56  TYR56      -0.0009
     96  CD2      -17.2700   -8.2750   -4.6140 C.ar   56  TYR56      -0.0009
     97  CE1      -17.3010   -6.4280   -2.5280 C.ar   56  TYR56       0.0417
     98  CE2      -16.9690   -6.9240   -4.8730 C.ar   56  TYR56       0.0417
     99  CZ       -17.0190   -5.9890   -3.8430 C.ar   56  TYR56       0.1957
    100  OH       -16.7380   -4.6620   -4.1230 O.3    56  TYR56      -0.2866
    101  N        -17.7980   -0.5490   -1.3760 N.3    95  CYS95      -0.1235
    102  CA       -17.1610   -0.8030   -0.0860 C.3    95  CYS95       0.1677
    103  C        -18.1370   -0.6000    1.0490 C.2    95  CYS95       0.2270
    104  O        -18.2190   -1.4230    1.9390 O.2    95  CYS95      -0.2867
    105  CB       -16.0380    0.1340    0.1440 C.3    95  CYS95       0.0956
    106  SG       -14.9110   -0.4180    1.5010 S.3    95  CYS95      -0.0801
    107  N        -21.1860   -3.3460    0.9650 N.3    98  TYR98      -0.1227
    108  CA       -20.8130   -4.6930    1.2890 C.3    98  TYR98       0.1736
    109  C        -20.3590   -4.8960    2.7580 C.2    98  TYR98       0.2595
    110  O        -20.5530   -5.9430    3.3560 O.2    98  TYR98      -0.2718
    111  CB       -19.7230   -5.1800    0.3230 C.3    98  TYR98       0.0548
    112  CG       -19.4080   -6.6420    0.6110 C.ar   98  TYR98      -0.0200
    113  CD1      -20.3040   -7.6500    0.2620 C.ar   98  TYR98      -0.0009
    114  CD2      -18.1810   -6.9870    1.2540 C.ar   98  TYR98      -0.0009
    115  CE1      -20.0030   -8.9980    0.5420 C.ar   98  TYR98       0.0417
    116  CE2      -17.9070   -8.2800    1.6170 C.ar   98  TYR98       0.0417
    117  CZ       -18.7520   -9.3220    1.2190 C.ar   98  TYR98       0.1957
    118  OH       -18.3860  -10.6250    1.6310 O.3    98  TYR98      -0.2866
    119  N        -19.6640   -3.9290    3.3060 N.am   99  ASN99      -0.1974
    120  CA       -18.9980   -4.1050    4.5870 C.3    99  ASN99       0.1688
    121  C        -19.8650   -3.4010    5.6400 C.2    99  ASN99       0.2292
    122  O        -20.8330   -2.9050    5.3010 O.2    99  ASN99      -0.2864
    123  CB       -17.5570   -3.5650    4.4850 C.3    99  ASN99       0.1181
    124  CG       -16.7400   -4.3580    3.4780 C.2    99  ASN99       0.2629
    125  OD1      -16.3510   -5.5680    3.7160 O.2    99  ASN99      -0.2716
    126  ND2      -16.4610   -3.7140    2.3420 N.am   99  ASN99      -0.0877
    127  N        -11.4640   -2.0610    6.2780 N.3   105  ILE105     -0.1245
    128  CA       -11.6650   -1.7390    4.8510 C.3   105  ILE105      0.1561
    129  C        -12.5240   -0.4630    4.6060 C.2   105  ILE105      0.2260
    130  O        -12.2410    0.3220    3.7070 O.2   105  ILE105     -0.2867
    131  CB       -12.2630   -2.9870    4.1000 C.3   105  ILE105      0.0252
    132  CG1      -12.2930   -2.7750    2.5860 C.3   105  ILE105      0.0019
    133  CG2      -13.5890   -3.3930    4.6410 C.3   105  ILE105      0.0019
    134  CD1      -10.8640   -2.8360    1.9850 C.3   105  ILE105      0.0001
@<TRIPOS>BOND
     1    34    37    1
     2    34    35    1
     3    34    33    1
     4    37    38    1
     5    35    36    2
     6    38    39    1
     7    45    44    2
     8    42    43    1
     9    55    53    1
    10    40    39    2
    11    25    24    2
    12    44    43    1
    13    39    41   am
    14    43    46    1
    15    53    54    1
    16    53    50    1
    17    24    23    1
    18    64    63    1
    19    63    62    1
    20    46    48    1
    21    46    47    1
    22    98    96   ar
    23    98    99   ar
    24    96    94   ar
    25    49    50    1
    26    50    51    1
    27    92    91    2
    28   100    99    1
    29    91    90    1
    30    61    62    1
    31    61    60    1
    32    23    26    1
    33    23    22    1
    34    99    97   ar
    35    56    51   am
    36    56    57    1
    37    26    27    1
    38    94    93    1
    39    94    95   ar
    40    51    52    2
    41    60    57    1
    42    93    90    1
    43    18    17    2
    44    22    17   am
    45    90    89    1
    46     4     3    2
    47    97    95   ar
    48    57    58    1
    49    17    16    1
    50    28    27   ar
    51    28    30   ar
    52    27    29   ar
    53    84    83    2
    54     3     2    1
    55     3    15   am
    56     2     1    1
    57     2     5    1
    58    71    70    1
    59   101   102    1
    60    65    58   am
    61    65    66    1
    62    83    82    1
    63    58    59    2
    64    16    15    1
    65    16    19    1
    66    30    32   ar
    67    29    31   ar
    68    15    21    1
    69    70    69    1
    70    70    72    1
    71     5     6    1
    72    69    66    1
    73    85    82    1
    74    85    86    1
    75    81    82    1
    76    81    75   am
    77   102   105    1
    78   102   103    1
    79    66    67    1
    80    73    74    1
    81    73    67   am
    82    19    20    1
    83   105   106    1
    84    32    31   ar
    85    87    86    1
    86   113   115   ar
    87   113   112   ar
    88    21    20    1
    89   111   112    1
    90   111   108    1
    91   115   117   ar
    92    74    75    1
    93    74    77    1
    94   112   114   ar
    95    67    68    2
    96     6     8   ar
    97     6     7   ar
    98    86    88    1
    99    11     8   ar
   100    11    13   ar
   101    75    76    2
   102   107   108    1
   103   103   104    2
   104   117   116   ar
   105   117   118    1
   106     8    10   ar
   107   114   116   ar
   108    79    78    2
   109   108   109    1
   110    13    14   ar
   111     7     9   ar
   112    77    78    1
   113   134   132    1
   114    78    80   am
   115   126   124   am
   116   132   131    1
   117    10     9   ar
   118    10    12   ar
   119   109   119   am
   120   109   110    2
   121    14    12   ar
   122   119   120    1
   123   124   125    2
   124   124   123    1
   125   130   129    2
   126   131   133    1
   127   131   128    1
   128   123   120    1
   129   120   121    1
   130   129   128    1
   131   128   127    1
   132   122   121    2
