@<TRIPOS>MOLECULE
tmp/5dm0B01.pdb
 236 227 0 0 0
SMALL
GASTEIGER

@<TRIPOS>ATOM
      1  N         -6.0790   47.1710    3.0060 N.3    23  PHE23      -0.1241
      2  CA        -4.9680   46.3060    2.5910 C.3    23  PHE23       0.1605
      3  C         -4.6850   45.1390    3.5290 C.2    23  PHE23       0.2264
      4  O         -3.9340   44.2290    3.1800 O.2    23  PHE23      -0.2867
      5  CB        -3.7140   47.1520    2.3550 C.3    23  PHE23       0.0534
      6  CG        -3.9030   48.1510    1.2530 C.ar   23  PHE23      -0.0203
      7  CD1       -3.7770   47.7520   -0.0740 C.ar   23  PHE23      -0.0042
      8  CD2       -4.2860   49.4620    1.5370 C.ar   23  PHE23      -0.0042
      9  CE1       -3.9900   48.6540   -1.1080 C.ar   23  PHE23      -0.0003
     10  CE2       -4.5130   50.3680    0.5090 C.ar   23  PHE23      -0.0003
     11  CZ        -4.3580   49.9610   -0.8130 C.ar   23  PHE23      -0.0000
     12  N         -9.2230   47.8060   -7.9060 N.3    35  TYR35      -0.1227
     13  CA        -9.1850   49.2180   -8.2680 C.3    35  TYR35       0.1736
     14  C         -7.7620   49.6170   -8.6800 C.2    35  TYR35       0.2595
     15  O         -7.5610   50.2420   -9.7270 O.2    35  TYR35      -0.2718
     16  CB        -9.6690   50.1170   -7.1320 C.3    35  TYR35       0.0548
     17  CG        -9.5320   51.5640   -7.5280 C.ar   35  TYR35      -0.0200
     18  CD1       -8.3260   52.2470   -7.3330 C.ar   35  TYR35      -0.0009
     19  CD2      -10.5740   52.2340   -8.1710 C.ar   35  TYR35      -0.0009
     20  CE1       -8.1820   53.5630   -7.7350 C.ar   35  TYR35       0.0417
     21  CE2      -10.4340   53.5560   -8.5780 C.ar   35  TYR35       0.0417
     22  CZ        -9.2370   54.2070   -8.3580 C.ar   35  TYR35       0.1957
     23  OH        -9.0800   55.5150   -8.7490 O.3    35  TYR35      -0.2866
     24  N         -6.7870   49.2460   -7.8490 N.am   36  ASP36      -0.1974
     25  CA        -5.3960   49.6710   -8.0620 C.3    36  ASP36       0.1709
     26  C         -4.8410   49.1560   -9.3820 C.2    36  ASP36       0.2293
     27  O         -4.1680   49.8870  -10.0950 O.2    36  ASP36      -0.2864
     28  CB        -4.5010   49.2190   -6.9020 C.3    36  ASP36       0.1436
     29  CG        -4.7760   49.9830   -5.6160 C.2    36  ASP36       0.3671
     30  OD1       -5.5540   50.9710   -5.6410 O.co2  36  ASP36      -0.2456
     31  OD2       -4.1950   49.6050   -4.5730 O.co2  36  ASP36      -0.2456
     32  N         -6.7430   51.1430  -12.2850 N.3    39  GLU39      -0.1231
     33  CA        -6.6980   52.6000  -12.3850 C.3    39  GLU39       0.1699
     34  C         -5.3320   53.2150  -12.0780 C.2    39  GLU39       0.2592
     35  O         -5.0900   54.3690  -12.4110 O.2    39  GLU39      -0.2718
     36  CB        -7.7840   53.2340  -11.4950 C.3    39  GLU39       0.0402
     37  CG        -9.2280   52.8690  -11.8540 C.3    39  GLU39       0.1161
     38  CD        -9.7070   53.4240  -13.1950 C.2    39  GLU39       0.3649
     39  OE1       -9.0420   54.3030  -13.7860 O.co2  39  GLU39      -0.2457
     40  OE2      -10.7710   52.9770  -13.6640 O.co2  39  GLU39      -0.2457
     41  N         -4.4350   52.4560  -11.4550 N.am   40  THR40      -0.1953
     42  CA        -3.1510   53.0280  -11.0250 C.3    40  THR40       0.1897
     43  C         -1.9290   52.3660  -11.6650 C.2    40  THR40       0.2313
     44  O         -0.7940   52.7980  -11.4370 O.2    40  THR40      -0.2863
     45  CB        -2.9980   53.0030   -9.4890 C.3    40  THR40       0.1794
     46  OG1       -2.6220   51.6900   -9.0680 O.3    40  THR40      -0.2208
     47  CG2       -4.3050   53.3910   -8.8130 C.3    40  THR40       0.0378
     48  N          0.2220   54.6580  -14.4530 N.3    43  ILE43      -0.1245
     49  CA         1.1260   55.6970  -13.9810 C.3    43  ILE43       0.1561
     50  C          2.4890   55.1520  -13.5290 C.2    43  ILE43       0.2260
     51  O          3.4490   55.9180  -13.3780 O.2    43  ILE43      -0.2867
     52  CB         0.4920   56.5120  -12.8330 C.3    43  ILE43       0.0252
     53  CG1        1.1500   57.8870  -12.7340 C.3    43  ILE43       0.0019
     54  CG2        0.5810   55.7530  -11.5090 C.3    43  ILE43       0.0019
     55  CD1        0.5190   58.7810  -11.6940 C.3    43  ILE43       0.0001
     56  N          2.3990   55.6900   -4.0020 N.3   134  LEU134     -0.1231
     57  CA         0.9800   55.5430   -3.6910 C.3   134  LEU134      0.1693
     58  C          0.7060   54.7710   -2.4010 C.2   134  LEU134      0.2592
     59  O         -0.2020   53.9330   -2.3530 O.2   134  LEU134     -0.2718
     60  CB         0.2420   54.9210   -4.8870 C.3   134  LEU134      0.0284
     61  CG         0.5110   55.5370   -6.2660 C.3   134  LEU134      0.0019
     62  CD1       -0.2380   54.7250   -7.3170 C.3   134  LEU134      0.0001
     63  CD2        0.0900   56.9990   -6.3150 C.3   134  LEU134      0.0001
     64  N          1.4780   55.0600   -1.3520 N.am  135  CYS135     -0.1970
     65  CA         1.2770   54.3960   -0.0570 C.3   135  CYS135      0.1712
     66  C          1.6150   55.2260    1.1870 C.2   135  CYS135      0.2296
     67  O          1.3720   54.7750    2.2990 O.2   135  CYS135     -0.2864
     68  CB         2.0080   53.0500   -0.0150 C.3   135  CYS135      0.0983
     69  SG         3.8140   53.1750   -0.0670 S.3   135  CYS135     -0.0798
     70  N          0.3110   57.7280    2.7810 N.3   137  GLY137     -0.1210
     71  CA        -0.7990   57.9500    3.7170 C.3   137  GLY137      0.1956
     72  C         -1.2800   56.7240    4.4780 C.2   137  GLY137      0.2611
     73  O         -2.1770   56.8370    5.3150 O.2   137  GLY137     -0.2717
     74  N         -0.7180   55.5540    4.1770 N.am  138  LEU138     -0.1979
     75  CA        -1.0760   54.3330    4.8960 C.3   138  LEU138      0.1596
     76  C         -0.2190   54.1300    6.1390 C.2   138  LEU138      0.2287
     77  O         -0.5420   53.3010    6.9880 O.2   138  LEU138     -0.2864
     78  CB        -0.9750   53.1030    3.9920 C.3   138  LEU138      0.0297
     79  CG        -1.8610   53.0800    2.7540 C.3   138  LEU138      0.0022
     80  CD1       -1.4910   51.8810    1.8980 C.3   138  LEU138      0.0001
     81  CD2       -3.3420   53.0760    3.1130 C.3   138  LEU138      0.0001
     82  N          1.8930   60.4260   -3.9790 N.3   163  ASP163     -0.1225
     83  CA         0.7150   59.9720   -3.2290 C.3   163  ASP163      0.1805
     84  C         -0.5230   60.8030   -3.5310 C.2   163  ASP163      0.2597
     85  O         -0.4510   61.8440   -4.1760 O.2   163  ASP163     -0.2718
     86  CB         0.9980   59.9610   -1.7210 C.3   163  ASP163      0.1424
     87  CG         0.1220   58.9630   -0.9530 C.2   163  ASP163      0.3668
     88  OD1       -0.4180   57.9970   -1.5490 O.co2 163  ASP163     -0.2456
     89  OD2       -0.0140   59.1470    0.2690 O.co2 163  ASP163     -0.2456
     90  N         -1.6710   60.3230   -3.0570 N.am  164  LEU164     -0.1979
     91  CA        -2.9230   61.0640   -3.2080 C.3   164  LEU164      0.1596
     92  C         -2.8750   62.3930   -2.4790 C.2   164  LEU164      0.2287
     93  O         -2.1970   62.5270   -1.4570 O.2   164  LEU164     -0.2864
     94  CB        -4.0780   60.2480   -2.6470 C.3   164  LEU164      0.0297
     95  CG        -4.2060   58.8130   -3.1340 C.3   164  LEU164      0.0022
     96  CD1       -5.4620   58.2010   -2.5210 C.3   164  LEU164      0.0001
     97  CD2       -4.2470   58.7610   -4.6550 C.3   164  LEU164      0.0001
     98  N        -12.2160   64.5770   -7.5650 N.3   171  GLU171     -0.1231
     99  CA       -11.7950   64.0610   -8.8600 C.3   171  GLU171      0.1699
    100  C        -11.3870   62.6010   -8.7510 C.2   171  GLU171      0.2592
    101  O        -11.5880   61.8270   -9.6770 O.2   171  GLU171     -0.2718
    102  CB       -10.6580   64.9050   -9.4350 C.3   171  GLU171      0.0402
    103  CG       -11.1400   66.2270  -10.0220 C.3   171  GLU171      0.1161
    104  CD       -11.4990   67.2610   -8.9670 C.2   171  GLU171      0.3649
    105  OE1      -10.8610   67.2600   -7.8880 O.co2 171  GLU171     -0.2457
    106  OE2      -12.4300   68.0660   -9.2220 O.co2 171  GLU171     -0.2457
    107  N        -10.8430   62.2300   -7.5960 N.am  172  GLY172     -0.1957
    108  CA       -10.4210   60.8490   -7.3460 C.3   172  GLY172      0.1869
    109  C        -11.5710   59.8650   -7.4500 C.2   172  GLY172      0.2309
    110  O        -11.3770   58.7160   -7.8490 O.2   172  GLY172     -0.2863
    111  N        -13.2590   57.8070  -10.9710 N.3   175  THR175     -0.1218
    112  CA       -12.8780   56.4910  -11.4900 C.3   175  THR175      0.1862
    113  C        -13.4700   55.3190  -10.6960 C.2   175  THR175      0.2287
    114  O        -13.2360   54.1600  -11.0510 O.2   175  THR175     -0.2866
    115  CB       -11.3410   56.3170  -11.5610 C.3   175  THR175      0.1770
    116  OG1      -10.7620   56.7460  -10.3250 O.3   175  THR175     -0.2211
    117  CG2      -10.7540   57.1290  -12.7290 C.3   175  THR175      0.0375
    118  N        -13.8570   52.7610   -0.5080 N.3   184  TYR184     -0.1227
    119  CA       -12.3950   52.5920   -0.5290 C.3   184  TYR184      0.1736
    120  C        -11.6980   53.9280   -0.7750 C.2   184  TYR184      0.2595
    121  O        -10.8310   54.3490    0.0080 O.2   184  TYR184     -0.2718
    122  CB       -12.0060   51.5610   -1.6010 C.3   184  TYR184      0.0548
    123  CG       -10.5270   51.5210   -1.9970 C.ar  184  TYR184     -0.0200
    124  CD1       -9.5370   51.2620   -1.0480 C.ar  184  TYR184     -0.0009
    125  CD2      -10.1360   51.7100   -3.3270 C.ar  184  TYR184     -0.0009
    126  CE1       -8.1980   51.2110   -1.4040 C.ar  184  TYR184      0.0417
    127  CE2       -8.7900   51.6540   -3.6960 C.ar  184  TYR184      0.0417
    128  CZ        -7.8310   51.4030   -2.7200 C.ar  184  TYR184      0.1957
    129  OH        -6.4960   51.3430   -3.0600 O.3   184  TYR184     -0.2866
    130  N        -12.0770   54.5890   -1.8580 N.am  185  LEU185     -0.1980
    131  CA       -11.4180   55.8360   -2.2540 C.3   185  LEU185      0.1596
    132  C        -11.6350   56.9690   -1.2550 C.2   185  LEU185      0.2287
    133  O        -10.7080   57.6990   -0.9570 O.2   185  LEU185     -0.2864
    134  CB       -11.8500   56.2670   -3.6590 C.3   185  LEU185      0.0297
    135  CG       -11.4120   55.3600   -4.8140 C.3   185  LEU185      0.0022
    136  CD1      -11.9400   55.8920   -6.1390 C.3   185  LEU185      0.0001
    137  CD2       -9.8970   55.2230   -4.8570 C.3   185  LEU185      0.0001
    138  N         -9.2760   56.3640    1.4550 N.3   188  GLN188     -0.1231
    139  CA        -7.8890   56.6150    1.0070 C.3   188  GLN188      0.1698
    140  C         -7.6060   58.1150    0.9720 C.2   188  GLN188      0.2592
    141  O         -6.5860   58.5760    1.4960 O.2   188  GLN188     -0.2718
    142  CB        -7.6020   55.9800   -0.3600 C.3   188  GLN188      0.0381
    143  CG        -7.7120   54.4570   -0.4180 C.3   188  GLN188      0.0905
    144  CD        -6.9990   53.7800    0.7370 C.2   188  GLN188      0.2608
    145  OE1       -7.6120   53.0240    1.5060 O.2   188  GLN188     -0.2717
    146  NE2       -5.7190   54.0750    0.8910 N.am  188  GLN188     -0.0878
    147  N         -8.5250   58.8820    0.3910 N.am  189  TYR189     -0.1976
    148  CA        -8.3420   60.3350    0.3220 C.3   189  TYR189      0.1639
    149  C         -8.3670   61.0260    1.6770 C.2   189  TYR189      0.2290
    150  O         -7.5870   61.9420    1.9160 O.2   189  TYR189     -0.2864
    151  CB        -9.3180   60.9920   -0.6650 C.3   189  TYR189      0.0560
    152  CG        -8.8370   60.8350   -2.0890 C.ar  189  TYR189     -0.0198
    153  CD1       -7.9550   61.7630   -2.6510 C.ar  189  TYR189     -0.0009
    154  CD2       -9.2030   59.7180   -2.8540 C.ar  189  TYR189     -0.0009
    155  CE1       -7.4880   61.6110   -3.9530 C.ar  189  TYR189      0.0417
    156  CE2       -8.7300   59.5560   -4.1520 C.ar  189  TYR189      0.0417
    157  CZ        -7.8700   60.5070   -4.6900 C.ar  189  TYR189      0.1957
    158  OH        -7.4000   60.3510   -5.9760 O.3   189  TYR189     -0.2866
    159  N         -7.3350   59.8800    4.4200 N.3   191  ALA191     -0.1231
    160  CA        -6.0690   59.5460    5.0860 C.3   191  ALA191      0.1694
    161  C         -4.8810   60.3090    4.4880 C.2   191  ALA191      0.2592
    162  O         -3.7690   60.2930    5.0520 O.2   191  ALA191     -0.2718
    163  CB        -5.8040   58.0510    4.9910 C.3   191  ALA191      0.0304
    164  N         -5.1010   60.9380    3.3430 N.am  192  SER192     -0.1952
    165  CA        -4.0090   61.5900    2.5950 C.3   192  SER192      0.1924
    166  C         -3.6330   62.9510    3.1720 C.2   192  SER192      0.2314
    167  O         -4.4170   63.5900    3.8720 O.2   192  SER192     -0.2863
    168  CB        -4.3850   61.7220    1.1100 C.3   192  SER192      0.2116
    169  OG        -4.7240   60.4530    0.5630 O.3   192  SER192     -0.2180
    170  N          2.0820   67.1170  -12.8920 N.3   220  PHE220     -0.1241
    171  CA         2.0830   65.6930  -13.2770 C.3   220  PHE220      0.1605
    172  C          3.4930   65.0820  -13.3900 C.2   220  PHE220      0.2264
    173  O          3.7200   63.9190  -13.0150 O.2   220  PHE220     -0.2867
    174  CB         1.2910   65.5130  -14.5800 C.3   220  PHE220      0.0534
    175  CG         1.0420   64.0720  -14.9610 C.ar  220  PHE220     -0.0203
    176  CD1        0.1600   63.2800  -14.2260 C.ar  220  PHE220     -0.0042
    177  CD2        1.6520   63.5290  -16.0860 C.ar  220  PHE220     -0.0042
    178  CE1       -0.0850   61.9590  -14.5950 C.ar  220  PHE220     -0.0003
    179  CE2        1.4170   62.2070  -16.4620 C.ar  220  PHE220     -0.0003
    180  CZ         0.5510   61.4220  -15.7140 C.ar  220  PHE220     -0.0000
    181  N         -5.3320   56.9280  -21.4830 N.3   250  GLU250     -0.1231
    182  CA        -5.8920   56.3900  -20.2420 C.3   250  GLU250      0.1699
    183  C         -6.4440   57.4840  -19.3200 C.2   250  GLU250      0.2592
    184  O         -6.6140   57.2680  -18.1170 O.2   250  GLU250     -0.2718
    185  CB        -4.8400   55.5390  -19.5130 C.3   250  GLU250      0.0402
    186  CG        -4.6710   54.1220  -20.0560 C.3   250  GLU250      0.1161
    187  CD        -3.7620   54.0380  -21.2720 C.2   250  GLU250      0.3649
    188  OE1       -4.1690   54.4810  -22.3670 O.co2 250  GLU250     -0.2457
    189  OE2       -2.6410   53.5070  -21.1380 O.co2 250  GLU250     -0.2457
    190  N         -6.7400   58.6470  -19.8990 N.am  251  GLN251     -0.1979
    191  CA        -7.1990   59.8090  -19.1420 C.3   251  GLN251      0.1601
    192  C         -8.1100   60.7420  -19.9540 C.2   251  GLN251      0.2287
    193  O         -7.9860   60.8510  -21.1780 O.2   251  GLN251     -0.2864
    194  CB        -5.9990   60.5780  -18.5640 C.3   251  GLN251      0.0394
    195  CG        -5.0130   61.1210  -19.5920 C.3   251  GLN251      0.0908
    196  CD        -3.6830   61.5320  -18.9810 C.2   251  GLN251      0.2608
    197  OE1       -3.6320   62.0900  -17.8840 O.2   251  GLN251     -0.2717
    198  NE2       -2.5950   61.2610  -19.6980 N.am  251  GLN251     -0.0878
    199  N         -9.1860   64.7860  -13.7300 N.3   257  MET257     -0.1231
    200  CA        -8.1810   64.0310  -12.9880 C.3   257  MET257      0.1687
    201  C         -7.7890   64.6590  -11.6530 C.2   257  MET257      0.2434
    202  O         -7.7300   65.8850  -11.5330 O.2   257  MET257     -0.2733
    203  CB        -6.9380   63.7330  -13.8360 C.3   257  MET257      0.0400
    204  CG        -6.5940   64.7710  -14.8910 C.3   257  MET257      0.0596
    205  SD        -6.0160   63.9990  -16.4230 S.3   257  MET257     -0.1393
    206  CE        -7.4170   62.9440  -16.7900 C.3   257  MET257      0.0692
    207  N         -7.5470   63.8100  -10.6370 N.am  258  PRO258     -0.2718
    208  CA        -7.0550   64.3030   -9.3560 C.3   258  PRO258      0.1535
    209  C         -5.6110   64.7570   -9.5220 C.2   258  PRO258      0.2598
    210  O         -4.8890   64.1950  -10.3380 O.2   258  PRO258     -0.2715
    211  CB        -7.1200   63.0660   -8.4550 C.3   258  PRO258      0.0310
    212  CG        -7.0330   61.9020   -9.3900 C.3   258  PRO258      0.0237
    213  CD        -7.7660   62.3490  -10.6230 C.3   258  PRO258      0.0939
    214  N         -5.2080   65.7860   -8.7970 N.am  259  ALA259     -0.1964
    215  CA        -3.7910   66.1080   -8.7080 C.3   259  ALA259      0.1728
    216  C         -3.1780   65.1280   -7.7170 C.2   259  ALA259      0.2616
    217  O         -3.8540   64.6810   -6.7950 O.2   259  ALA259     -0.2715
    218  CB        -3.5990   67.5440   -8.2420 C.3   259  ALA259      0.0334
    219  N         -1.9080   64.7810   -7.9260 N.am  260  LEU260     -0.1977
    220  CA        -1.1590   63.9450   -6.9820 C.3   260  LEU260      0.1596
    221  C         -0.0890   64.7780   -6.3030 C.2   260  LEU260      0.2287
    222  O          0.3720   65.7750   -6.8670 O.2   260  LEU260     -0.2864
    223  CB        -0.4790   62.7810   -7.7210 C.3   260  LEU260      0.0297
    224  CG        -1.4040   61.7800   -8.4160 C.3   260  LEU260      0.0022
    225  CD1       -0.5980   60.8840   -9.3360 C.3   260  LEU260      0.0001
    226  CD2       -2.1470   60.9520   -7.3780 C.3   260  LEU260      0.0001
    227  N          3.7100   65.0860   -5.2370 N.3   262  HIS262     -0.1241
    228  CA         5.0150   64.5800   -5.6650 C.3   262  HIS262      0.1621
    229  C          6.0410   65.2050   -4.7420 C.2   262  HIS262      0.2264
    230  O          6.1200   66.4280   -4.6610 O.2   262  HIS262     -0.2867
    231  CB         5.3210   64.9830   -7.1130 C.3   262  HIS262      0.0745
    232  CG         4.3070   64.5000   -8.1030 C.ar  262  HIS262      0.0817
    233  ND1        3.0980   65.1300   -8.2890 N.ar  262  HIS262     -0.2268
    234  CD2        4.3130   63.4410   -8.9450 C.ar  262  HIS262      0.1154
    235  CE1        2.4060   64.4910   -9.2150 C.ar  262  HIS262      0.1986
    236  NE2        3.1160   63.4600   -9.6240 N.ar  262  HIS262     -0.2212
@<TRIPOS>BOND
     1   188   187   ar
     2   181   182    1
     3   187   189   ar
     4   187   186    1
     5   193   192    2
     6   182   185    1
     7   182   183    1
     8   186   185    1
     9   192   191    1
    10   190   183   am
    11   190   191    1
    12   198   196   am
    13   195   196    1
    14   195   194    1
    15   183   184    2
    16   191   194    1
    17   196   197    2
    18   206   205    1
    19   179   177   ar
    20   179   180   ar
    21   205   204    1
    22   177   175   ar
    23   180   178   ar
    24   175   174    1
    25   175   176   ar
    26   204   203    1
    27   178   176   ar
    28   174   171    1
    29    48    49    1
    30    49    50    1
    31    49    52    1
    32   203   200    1
    33    39    38   ar
    34   199   200    1
    35    40    38   ar
    36    50    51    2
    37   172   171    1
    38   172   173    2
    39   171   170    1
    40    38    37    1
    41   200   201    1
    42    52    53    1
    43    52    54    1
    44    53    55    1
    45   117   115    1
    46    35    34    2
    47    33    32    1
    48    33    34    1
    49    33    36    1
    50    34    41   am
    51    37    36    1
    52    43    44    2
    53    43    42    1
    54   201   202    2
    55   201   207   am
    56   115   112    1
    57   115   116    1
    58   112   111    1
    59   112   113    1
    60    41    42    1
    61   114   113    2
    62    42    45    1
    63   207   213    1
    64   207   208    1
    65   213   212    1
    66   210   209    2
    67    27    26    2
    68   103   102    1
    69   103   104    1
    70    15    14    2
    71   101   100    2
    72   236   235   ar
    73   236   234   ar
    74   209   208    1
    75   209   214   am
    76    45    46    1
    77    45    47    1
    78   102    99    1
    79   212   211    1
    80    26    25    1
    81   208   211    1
    82   225   224    1
    83   106   104   ar
    84   235   233   ar
    85   104   105   ar
    86   234   232   ar
    87    99   100    1
    88    99    98    1
    89   214   215    1
    90   100   107   am
    91    23    22    1
    92   215   218    1
    93   215   216    1
    94    14    13    1
    95    14    24   am
    96    21    22   ar
    97    21    19   ar
    98   224   223    1
    99   224   226    1
   100    22    20   ar
   101   233   232   ar
   102    13    12    1
   103    13    16    1
   104    19    17   ar
   105   232   231    1
   106    25    24    1
   107    25    28    1
   108   219   216   am
   109   219   220    1
   110   110   109    2
   111    20    18   ar
   112   223   220    1
   113   216   217    2
   114   107   108    1
   115    17    18   ar
   116    17    16    1
   117   109   108    1
   118    62    61    1
   119   231   228    1
   120   220   221    1
   121    28    29    1
   122   222   221    2
   123    63    61    1
   124    61    60    1
   125   136   135    1
   126   158   157    1
   127   228   227    1
   128   228   229    1
   129    30    29   ar
   130    29    31   ar
   131    60    57    1
   132   137   135    1
   133   135   134    1
   134   229   230    2
   135   157   156   ar
   136   157   155   ar
   137    97    95    1
   138    85    84    2
   139   156   154   ar
   140    56    57    1
   141    82    83    1
   142   155   153   ar
   143   127   125   ar
   144   127   128   ar
   145    57    58    1
   146   134   131    1
   147    84    83    1
   148    84    90   am
   149   125   123   ar
   150    83    86    1
   151    91    90    1
   152    91    94    1
   153    91    92    1
   154    95    94    1
   155    95    96    1
   156   129   128    1
   157   154   152   ar
   158   128   126   ar
   159   153   152   ar
   160    92    93    2
   161    58    59    2
   162    58    64   am
   163   131   130    1
   164   131   132    1
   165   152   151    1
   166   123   122    1
   167   123   124   ar
   168   130   120   am
   169    86    87    1
   170   122   119    1
   171    88    87   ar
   172   126   124   ar
   173    64    65    1
   174   132   133    2
   175     9    11   ar
   176     9     7   ar
   177    87    89   ar
   178    11    10   ar
   179   120   119    1
   180   120   121    2
   181   151   148    1
   182   119   118    1
   183   143   142    1
   184   143   144    1
   185   142   139    1
   186     7     6   ar
   187    69    68    1
   188    65    68    1
   189    65    66    1
   190   148   147    1
   191   148   149    1
   192   147   140   am
   193    10     8   ar
   194   169   168    1
   195   144   146   am
   196   144   145    2
   197   140   139    1
   198   140   141    2
   199   139   138    1
   200   168   165    1
   201    66    67    2
   202     6     8   ar
   203     6     5    1
   204   149   150    2
   205    80    79    1
   206     5     2    1
   207     2     1    1
   208     2     3    1
   209   165   166    1
   210   165   164    1
   211    79    81    1
   212    79    78    1
   213    70    71    1
   214   166   167    2
   215     4     3    2
   216   164   161   am
   217    71    72    1
   218    78    75    1
   219    74    72   am
   220    74    75    1
   221   159   160    1
   222    72    73    2
   223   161   162    2
   224   161   160    1
   225    75    76    1
   226   163   160    1
   227    76    77    2
