@<TRIPOS>MOLECULE
tmp/5dm0B00.pdb
 205 196 0 0 0
SMALL
GASTEIGER

@<TRIPOS>ATOM
      1  N         -5.7250   51.9240    5.8800 N.3    20  GLN20      -0.1245
      2  CA        -4.9140   50.7140    5.8240 C.3    20  GLN20       0.1566
      3  C         -5.7410   49.4320    5.9820 C.2    20  GLN20       0.2260
      4  O         -5.2900   48.3600    5.5760 O.2    20  GLN20      -0.2867
      5  CB        -3.7500   50.7970    6.8300 C.3    20  GLN20       0.0367
      6  CG        -2.9220   49.5310    7.0520 C.3    20  GLN20       0.0905
      7  CD        -2.3330   48.9330    5.7830 C.2    20  GLN20       0.2608
      8  OE1       -2.2750   49.5760    4.7230 O.2    20  GLN20      -0.2717
      9  NE2       -1.8830   47.6890    5.8900 N.am   20  GLN20      -0.0878
     10  N         -6.0790   47.1710    3.0060 N.3    23  PHE23      -0.1241
     11  CA        -4.9680   46.3060    2.5910 C.3    23  PHE23       0.1605
     12  C         -4.6850   45.1390    3.5290 C.2    23  PHE23       0.2264
     13  O         -3.9340   44.2290    3.1800 O.2    23  PHE23      -0.2867
     14  CB        -3.7140   47.1520    2.3550 C.3    23  PHE23       0.0534
     15  CG        -3.9030   48.1510    1.2530 C.ar   23  PHE23      -0.0203
     16  CD1       -3.7770   47.7520   -0.0740 C.ar   23  PHE23      -0.0042
     17  CD2       -4.2860   49.4620    1.5370 C.ar   23  PHE23      -0.0042
     18  CE1       -3.9900   48.6540   -1.1080 C.ar   23  PHE23      -0.0003
     19  CE2       -4.5130   50.3680    0.5090 C.ar   23  PHE23      -0.0003
     20  CZ        -4.3580   49.9610   -0.8130 C.ar   23  PHE23      -0.0000
     21  N         -6.7870   49.2460   -7.8490 N.3    36  ASP36      -0.1239
     22  CA        -5.3960   49.6710   -8.0620 C.3    36  ASP36       0.1674
     23  C         -4.8410   49.1560   -9.3820 C.2    36  ASP36       0.2266
     24  O         -4.1680   49.8870  -10.0950 O.2    36  ASP36      -0.2867
     25  CB        -4.5010   49.2190   -6.9020 C.3    36  ASP36       0.1410
     26  CG        -4.7760   49.9830   -5.6160 C.2    36  ASP36       0.3668
     27  OD1       -5.5540   50.9710   -5.6410 O.co2  36  ASP36      -0.2456
     28  OD2       -4.1950   49.6050   -4.5730 O.co2  36  ASP36      -0.2456
     29  N         -4.4350   52.4560  -11.4550 N.3    40  THR40      -0.1218
     30  CA        -3.1510   53.0280  -11.0250 C.3    40  THR40       0.1862
     31  C         -1.9290   52.3660  -11.6650 C.2    40  THR40       0.2287
     32  O         -0.7940   52.7980  -11.4370 O.2    40  THR40      -0.2866
     33  CB        -2.9980   53.0030   -9.4890 C.3    40  THR40       0.1770
     34  OG1       -2.6220   51.6900   -9.0680 O.3    40  THR40      -0.2211
     35  CG2       -4.3050   53.3910   -8.8130 C.3    40  THR40       0.0375
     36  N          2.5680   53.8420  -13.3040 N.3    44  ARG44      -0.1245
     37  CA         3.8040   53.2260  -12.7740 C.3    44  ARG44       0.1563
     38  C          5.0370   53.5470  -13.5950 C.2    44  ARG44       0.2260
     39  O          6.0870   53.9350  -13.0430 O.2    44  ARG44      -0.2867
     40  CB         3.6630   51.7090  -12.6900 C.3    44  ARG44       0.0307
     41  CG         2.9380   51.2270  -11.4600 C.3    44  ARG44       0.0489
     42  CD         2.7610   49.7200  -11.5200 C.3    44  ARG44       0.2205
     43  NE         1.6110   49.3100  -10.7210 N.pl3  44  ARG44      -0.0865
     44  CZ         0.9100   48.2060  -10.9380 C.cat  44  ARG44       0.5346
     45  NH1        1.2330   47.4010  -11.9440 N.pl3  44  ARG44       0.1354
     46  NH2       -0.1220   47.9160  -10.1540 N.pl3  44  ARG44       0.1354
     47  N         12.1090   49.8500   -2.7710 N.3    68  ASP68      -0.1225
     48  CA        10.7080   50.1380   -3.0680 C.3    68  ASP68       0.1805
     49  C          9.8630   49.8820   -1.8170 C.2    68  ASP68       0.2598
     50  O          9.7790   48.7530   -1.3240 O.2    68  ASP68      -0.2718
     51  CB        10.2400   49.2800   -4.2490 C.3    68  ASP68       0.1424
     52  CG         8.8710   49.6800   -4.7580 C.2    68  ASP68       0.3668
     53  OD1        8.4840   50.8610   -4.6280 O.co2  68  ASP68      -0.2456
     54  OD2        8.1900   48.8010   -5.3110 O.co2  68  ASP68      -0.2456
     55  N          9.2600   50.9530   -1.3070 N.am   69  ILE69      -0.1966
     56  CA         8.5460   50.9530   -0.0250 C.3    69  ILE69       0.1727
     57  C          7.0690   50.7190   -0.2940 C.2    69  ILE69       0.2617
     58  O          6.4590   51.4650   -1.0570 O.2    69  ILE69      -0.2715
     59  CB         8.7420   52.3070    0.7130 C.3    69  ILE69       0.0290
     60  CG1       10.2330   52.5590    1.0280 C.3    69  ILE69       0.0022
     61  CG2        7.8960   52.3850    1.9790 C.3    69  ILE69       0.0023
     62  CD1       10.8960   51.4980    1.8890 C.3    69  ILE69       0.0001
     63  N          6.4910   49.7020    0.3410 N.am   70  GLY70      -0.1940
     64  CA         5.1010   49.3160    0.0390 C.3    70  GLY70       0.2014
     65  C          5.0120   48.7290   -1.3620 C.2    70  GLY70       0.2639
     66  O          4.1660   49.1270   -2.1690 O.2    70  GLY70      -0.2714
     67  N          5.8820   47.7640   -1.6440 N.am   71  CYS71      -0.1953
     68  CA         6.1320   47.2850   -3.0040 C.3    71  CYS71       0.1843
     69  C          5.0030   46.4670   -3.6440 C.2    71  CYS71       0.2626
     70  O          5.0970   46.0800   -4.8120 O.2    71  CYS71      -0.2714
     71  CB         7.4380   46.4830   -3.0380 C.3    71  CYS71       0.0997
     72  SG         7.3940   44.9370   -2.1020 S.3    71  CYS71      -0.0797
     73  N          3.9600   46.1610   -2.8790 N.am   72  GLY72      -0.1940
     74  CA         2.8430   45.3890   -3.4250 C.3    72  GLY72       0.2014
     75  C          3.3260   44.0600   -3.9700 C.2    72  GLY72       0.2638
     76  O          4.1670   43.3980   -3.3600 O.2    72  GLY72      -0.2714
     77  N          2.8150   43.6870   -5.1380 N.am   73  GLN73      -0.1977
     78  CA         3.1230   42.3930   -5.7420 C.3    73  GLN73       0.1601
     79  C          4.4160   42.3980   -6.5790 C.2    73  GLN73       0.2287
     80  O          4.6550   41.4970   -7.3790 O.2    73  GLN73      -0.2864
     81  CB         1.9260   41.9040   -6.5710 C.3    73  GLN73       0.0394
     82  CG         0.6140   41.7850   -5.7860 C.3    73  GLN73       0.0908
     83  CD        -0.0770   43.1270   -5.5220 C.2    73  GLN73       0.2608
     84  OE1        0.0930   44.1030   -6.2660 O.2    73  GLN73      -0.2717
     85  NE2       -0.8730   43.1750   -4.4630 N.am   73  GLN73      -0.0878
     86  N          6.7630   47.2220   -9.6560 N.3    76  VAL76      -0.1245
     87  CA         7.8220   48.2260   -9.8400 C.3    76  VAL76       0.1561
     88  C          9.2000   47.5690   -9.9170 C.2    76  VAL76       0.2260
     89  O          9.9940   47.8810  -10.8120 O.2    76  VAL76      -0.2867
     90  CB         7.7640   49.3280   -8.7500 C.3    76  VAL76       0.0252
     91  CG1        8.9940   50.2350   -8.8070 C.3    76  VAL76       0.0019
     92  CG2        6.4770   50.1320   -8.9000 C.3    76  VAL76       0.0019
     93  N          9.7450   46.0330    0.0570 N.3    92  ILE92      -0.1231
     94  CA         9.1910   45.6970    1.3770 C.3    92  ILE92       0.1692
     95  C          7.6920   46.0100    1.3940 C.2    92  ILE92       0.2592
     96  O          7.2600   47.0440    0.8980 O.2    92  ILE92      -0.2718
     97  CB         9.9770   46.3850    2.5400 C.3    92  ILE92       0.0266
     98  CG1        9.4430   45.9400    3.9140 C.3    92  ILE92       0.0019
     99  CG2        9.9710   47.9110    2.4090 C.3    92  ILE92       0.0020
    100  CD1       10.3930   46.1970    5.0740 C.3    92  ILE92       0.0001
    101  N          6.9000   45.0950    1.9410 N.am   93  ASP93      -0.1960
    102  CA         5.4660   45.2850    2.0250 C.3    93  ASP93       0.1840
    103  C          4.9860   44.4550    3.2020 C.2    93  ASP93       0.2623
    104  O          5.5100   43.3670    3.4400 O.2    93  ASP93      -0.2715
    105  CB         4.7850   44.8560    0.7190 C.3    93  ASP93       0.1450
    106  CG         3.3710   45.3980    0.5910 C.2    93  ASP93       0.3671
    107  OD1        2.4890   44.9500    1.3520 O.co2  93  ASP93      -0.2456
    108  OD2        3.1380   46.2910   -0.2530 O.co2  93  ASP93      -0.2456
    109  N          4.0190   44.9790    3.9470 N.am   94  SER94      -0.1936
    110  CA         3.5360   44.2910    5.1480 C.3    94  SER94       0.2055
    111  C          2.5380   43.1800    4.8120 C.2    94  SER94       0.2643
    112  O          2.2300   42.3430    5.6710 O.2    94  SER94      -0.2714
    113  CB         2.9360   45.2880    6.1440 C.3    94  SER94       0.2130
    114  OG         1.9670   46.1240    5.5320 O.3    94  SER94      -0.2179
    115  N          2.0540   43.1520    3.5710 N.am   95  SER95      -0.1949
    116  CA         1.1090   42.1040    3.1570 C.3    95  SER95       0.1924
    117  C          1.8040   40.7860    2.7840 C.2    95  SER95       0.2314
    118  O          2.5950   40.7220    1.8400 O.2    95  SER95      -0.2863
    119  CB         0.2060   42.5860    2.0160 C.3    95  SER95       0.2116
    120  OG        -0.4530   41.4860    1.4020 O.3    95  SER95      -0.2180
    121  N          0.8650   39.7670   -0.8090 N.3    98  ALA98      -0.1245
    122  CA         1.5630   40.5910   -1.7970 C.3    98  ALA98       0.1562
    123  C          2.9980   40.1050   -2.0030 C.2    98  ALA98       0.2260
    124  O          3.4440   39.9250   -3.1410 O.2    98  ALA98      -0.2867
    125  CB         1.5240   42.0620   -1.4010 C.3    98  ALA98       0.0290
    126  N          7.2780   42.7510    5.8770 N.3   114  SER114     -0.1202
    127  CA         7.3700   43.4410    7.1570 C.3   114  SER114      0.2020
    128  C          6.8090   44.8430    7.0020 C.2   114  SER114      0.2619
    129  O          6.7270   45.3620    5.8870 O.2   114  SER114     -0.2717
    130  CB         8.8330   43.5240    7.6050 C.3   114  SER114      0.2103
    131  OG         8.9330   44.0580    8.9130 O.3   114  SER114     -0.2182
    132  N          6.4160   45.4540    8.1150 N.am  115  ASN115     -0.1960
    133  CA         6.1420   46.8860    8.1230 C.3   115  ASN115      0.1819
    134  C          7.4100   47.5870    7.6480 C.2   115  ASN115      0.2621
    135  O          8.5000   47.2540    8.1060 O.2   115  ASN115     -0.2715
    136  CB         5.7810   47.3430    9.5370 C.3   115  ASN115      0.1195
    137  CG         4.3440   47.0300    9.9070 C.2   115  ASN115      0.2630
    138  OD1        3.5380   46.6380    9.0620 O.2   115  ASN115     -0.2716
    139  ND2        4.0100   47.2210   11.1760 N.am  115  ASN115     -0.0877
    140  N          7.2770   48.5320    6.7140 N.am  116  ALA116     -0.1963
    141  CA         8.4360   49.2560    6.1890 C.3   116  ALA116      0.1728
    142  C          9.1490   50.0110    7.3180 C.2   116  ALA116      0.2616
    143  O         10.3530   50.2620    7.2490 O.2   116  ALA116     -0.2715
    144  CB         8.0160   50.2010    5.0640 C.3   116  ALA116      0.0334
    145  N          8.4020   50.3280    8.3710 N.am  117  GLU117     -0.1977
    146  CA         8.9700   50.8820    9.6050 C.3   117  GLU117      0.1602
    147  C         10.1880   50.1070   10.1290 C.2   117  GLU117      0.2287
    148  O         11.0910   50.7010   10.7290 O.2   117  GLU117     -0.2864
    149  CB         7.9010   50.9600   10.6970 C.3   117  GLU117      0.0415
    150  CG         6.8280   52.0120   10.4430 C.3   117  GLU117      0.1163
    151  CD         5.6490   51.5240    9.6010 C.2   117  GLU117      0.3649
    152  OE1        4.5750   52.1450    9.7070 O.co2 117  GLU117     -0.2457
    153  OE2        5.7660   50.5370    8.8440 O.co2 117  GLU117     -0.2457
    154  N          5.6320   54.8290   -3.5450 N.3   133  HIS133     -0.1226
    155  CA         4.6390   55.0520   -4.5920 C.3   133  HIS133      0.1752
    156  C          3.2500   54.6690   -4.1040 C.2   133  HIS133      0.2596
    157  O          2.9750   53.4920   -3.8180 O.2   133  HIS133     -0.2718
    158  CB         4.9970   54.2500   -5.8340 C.3   133  HIS133      0.0759
    159  CG         4.2490   54.6540   -7.0740 C.ar  133  HIS133      0.0818
    160  ND1        4.4450   55.8600   -7.7150 N.ar  133  HIS133     -0.2268
    161  CD2        3.3640   53.9660   -7.8330 C.ar  133  HIS133      0.1154
    162  CE1        3.6800   55.9100   -8.7970 C.ar  133  HIS133      0.1986
    163  NE2        3.0220   54.7730   -8.8930 N.ar  133  HIS133     -0.2212
    164  N          2.3990   55.6900   -4.0020 N.am  134  LEU134     -0.1966
    165  CA         0.9800   55.5430   -3.6910 C.3   134  LEU134      0.1728
    166  C          0.7060   54.7710   -2.4010 C.2   134  LEU134      0.2616
    167  O         -0.2020   53.9330   -2.3530 O.2   134  LEU134     -0.2715
    168  CB         0.2420   54.9210   -4.8870 C.3   134  LEU134      0.0311
    169  CG         0.5110   55.5370   -6.2660 C.3   134  LEU134      0.0022
    170  CD1       -0.2380   54.7250   -7.3170 C.3   134  LEU134      0.0001
    171  CD2        0.0900   56.9990   -6.3150 C.3   134  LEU134      0.0001
    172  N          1.4780   55.0600   -1.3520 N.am  135  CYS135     -0.1968
    173  CA         1.2770   54.3960   -0.0570 C.3   135  CYS135      0.1712
    174  C          1.6150   55.2260    1.1870 C.2   135  CYS135      0.2296
    175  O          1.3720   54.7750    2.2990 O.2   135  CYS135     -0.2864
    176  CB         2.0080   53.0500   -0.0150 C.3   135  CYS135      0.0983
    177  SG         3.8140   53.1750   -0.0670 S.3   135  CYS135     -0.0798
    178  N         -0.7180   55.5540    4.1770 N.3   138  LEU138     -0.1231
    179  CA        -1.0760   54.3330    4.8960 C.3   138  LEU138      0.1693
    180  C         -0.2190   54.1300    6.1390 C.2   138  LEU138      0.2592
    181  O         -0.5420   53.3010    6.9880 O.2   138  LEU138     -0.2718
    182  CB        -0.9750   53.1030    3.9920 C.3   138  LEU138      0.0284
    183  CG        -1.8610   53.0800    2.7540 C.3   138  LEU138      0.0019
    184  CD1       -1.4910   51.8810    1.8980 C.3   138  LEU138      0.0001
    185  CD2       -3.3420   53.0760    3.1130 C.3   138  LEU138      0.0001
    186  N          0.8760   54.8690    6.2480 N.am  139  PHE139     -0.1962
    187  CA         1.7480   54.7150    7.4130 C.3   139  PHE139      0.1771
    188  C          1.1380   55.3280    8.6530 C.2   139  PHE139      0.2619
    189  O          0.6230   56.4380    8.6060 O.2   139  PHE139     -0.2715
    190  CB         3.1440   55.2650    7.1130 C.3   139  PHE139      0.0574
    191  CG         3.8390   54.4820    6.0430 C.ar  139  PHE139     -0.0200
    192  CD1        4.2900   53.1920    6.3050 C.ar  139  PHE139     -0.0042
    193  CD2        3.9770   54.9940    4.7640 C.ar  139  PHE139     -0.0042
    194  CE1        4.8980   52.4380    5.3070 C.ar  139  PHE139     -0.0003
    195  CE2        4.5770   54.2470    3.7650 C.ar  139  PHE139     -0.0003
    196  CZ         5.0270   52.9710    4.0340 C.ar  139  PHE139     -0.0000
    197  N          1.1830   54.5940    9.7620 N.am  140  LYS140     -0.1977
    198  CA         0.6490   55.1190   11.0170 C.3   140  LYS140      0.1596
    199  C          1.3580   56.4270   11.3980 C.2   140  LYS140      0.2287
    200  O          0.7130   57.3830   11.8170 O.2   140  LYS140     -0.2864
    201  CB         0.7380   54.0830   12.1370 C.3   140  LYS140      0.0298
    202  CG         0.2890   54.6140   13.4880 C.3   140  LYS140      0.0038
    203  CD         0.5060   53.5830   14.5890 C.3   140  LYS140      0.0206
    204  CE         0.9580   54.2750   15.8670 C.3   140  LYS140      0.1093
    205  NZ         1.0410   53.3130   17.0010 N.3   140  LYS140     -0.1314
@<TRIPOS>BOND
     1    38    39    2
     2    38    37    1
     3    36    37    1
     4    37    40    1
     5    40    41    1
     6    45    44    1
     7    31    32    2
     8    31    30    1
     9    42    41    1
    10    42    43    1
    11    29    30    1
    12    30    33    1
    13    44    43    2
    14    44    46    1
    15    89    88    2
    16    24    23    2
    17    88    87    1
    18    87    86    1
    19    87    90    1
    20    33    34    1
    21    33    35    1
    22    23    22    1
    23    92    90    1
    24   163   162   ar
    25   163   161   ar
    26    91    90    1
    27   162   160   ar
    28    22    21    1
    29    22    25    1
    30   161   159   ar
    31   160   159   ar
    32    80    79    2
    33   170   169    1
    34   159   158    1
    35    25    26    1
    36    79    78    1
    37    81    82    1
    38    81    78    1
    39   171   169    1
    40    84    83    2
    41   169   168    1
    42   158   155    1
    43    82    83    1
    44    78    77    1
    45    27    26   ar
    46    26    28   ar
    47    83    85   am
    48    54    52   ar
    49    77    75   am
    50   168   165    1
    51    70    69    2
    52    52    53   ar
    53    52    51    1
    54   155   156    1
    55   155   154    1
    56    51    48    1
    57   156   164   am
    58   156   157    2
    59   164   165    1
    60    75    74    1
    61    75    76    2
    62   165   166    1
    63    69    68    1
    64    69    73   am
    65    74    73    1
    66   124   123    2
    67    48    47    1
    68    48    49    1
    69    71    68    1
    70    71    72    1
    71    68    67    1
    72   166   167    2
    73   166   172   am
    74    66    65    2
    75   123   122    1
    76    49    50    2
    77    49    55   am
    78   122   125    1
    79   122   121    1
    80    67    65   am
    81    65    64    1
    82   172   173    1
    83    55    56    1
    84    18    20   ar
    85    18    16   ar
    86    58    57    2
    87    20    19   ar
    88    57    56    1
    89    57    63   am
    90   108   106   ar
    91    16    15   ar
    92   177   176    1
    93   173   176    1
    94   173   174    1
    95    56    59    1
    96    64    63    1
    97    93    94    1
    98    19    17   ar
    99   106   105    1
   100   106   107   ar
   101    59    60    1
   102    59    61    1
   103   105   102    1
   104    96    95    2
   105    60    62    1
   106   174   175    2
   107    15    17   ar
   108    15    14    1
   109    94    95    1
   110    94    97    1
   111    95   101   am
   112   120   119    1
   113   118   117    2
   114   184   183    1
   115   101   102    1
   116   119   116    1
   117   102   103    1
   118    14    11    1
   119    99    97    1
   120    97    98    1
   121    11    10    1
   122    11    12    1
   123   183   185    1
   124   183   182    1
   125   117   116    1
   126   116   115    1
   127    13    12    2
   128   103   104    2
   129   103   109   am
   130   115   111   am
   131   195   196   ar
   132   195   193   ar
   133    98   100    1
   134   109   110    1
   135   182   179    1
   136   196   194   ar
   137   178   179    1
   138     8     7    2
   139   193   191   ar
   140   111   110    1
   141   111   112    2
   142   179   180    1
   143   144   141    1
   144   110   113    1
   145   194   192   ar
   146   114   113    1
   147     4     3    2
   148     7     9   am
   149     7     6    1
   150     2     1    1
   151     2     3    1
   152     2     5    1
   153   126   127    1
   154   129   128    2
   155   191   192   ar
   156   191   190    1
   157   180   186   am
   158   180   181    2
   159   141   140    1
   160   141   142    1
   161   186   187    1
   162   140   134   am
   163     5     6    1
   164   128   127    1
   165   128   132   am
   166   190   187    1
   167   127   130    1
   168   143   142    2
   169   142   145   am
   170   187   188    1
   171   130   131    1
   172   134   135    2
   173   134   133    1
   174   132   133    1
   175   133   136    1
   176   145   146    1
   177   189   188    2
   178   188   197   am
   179   153   151   ar
   180   138   137    2
   181   136   137    1
   182   151   152   ar
   183   151   150    1
   184   146   147    1
   185   146   149    1
   186   197   198    1
   187   137   139   am
   188   147   148    2
   189   150   149    1
   190   198   199    1
   191   198   201    1
   192   199   200    2
   193   201   202    1
   194   202   203    1
   195   203   204    1
   196   204   205    1
