@<TRIPOS>MOLECULE
tmp/5dm3C01.pdb
 127 122 0 0 0
SMALL
GASTEIGER

@<TRIPOS>ATOM
      1  N         39.6160  -18.2450    5.2920 N.3   111  ILE111     -0.1231
      2  CA        38.7240  -19.3750    5.2810 C.3   111  ILE111      0.1692
      3  C         38.7840  -19.9870    6.6650 C.2   111  ILE111      0.2592
      4  O         39.8750  -20.3150    7.1610 O.2   111  ILE111     -0.2718
      5  CB        39.1140  -20.4060    4.2100 C.3   111  ILE111      0.0266
      6  CG1       38.9110  -19.8090    2.8180 C.3   111  ILE111      0.0019
      7  CG2       38.2810  -21.6590    4.3780 C.3   111  ILE111      0.0020
      8  CD1       37.4630  -19.7210    2.4060 C.3   111  ILE111      0.0001
      9  N         37.6210  -20.1070    7.3040 N.am  112  MET112     -0.1965
     10  CA        37.5600  -20.5550    8.6900 C.3   112  MET112      0.1736
     11  C         36.4200  -21.5430    8.9220 C.2   112  MET112      0.2616
     12  O         35.5260  -21.7010    8.0870 O.2   112  MET112     -0.2715
     13  CB        37.4340  -19.3500    9.6450 C.3   112  MET112      0.0427
     14  CG        38.3780  -18.1790    9.3090 C.3   112  MET112      0.0599
     15  SD        38.9350  -17.0950   10.6410 S.3   112  MET112     -0.1393
     16  CE        39.5640  -18.2510   11.8260 C.3   112  MET112      0.0692
     17  N         36.5060  -22.2410   10.0440 N.am  113  ALA113     -0.1977
     18  CA        35.4500  -23.1090   10.5300 C.3   113  ALA113      0.1597
     19  C         35.4810  -23.1940   12.0740 C.2   113  ALA113      0.2287
     20  O         36.5230  -23.0760   12.7090 O.2   113  ALA113     -0.2864
     21  CB        35.5640  -24.4950    9.9100 C.3   113  ALA113      0.0319
     22  N         33.8750  -25.5320   15.4360 N.3   115  GLU115     -0.1245
     23  CA        33.1390  -26.6880   15.9260 C.3   115  GLU115      0.1567
     24  C         32.5150  -26.3430   17.2630 C.2   115  GLU115      0.2260
     25  O         33.2180  -26.2960   18.2630 O.2   115  GLU115     -0.2867
     26  CB        34.0650  -27.8940   16.0690 C.3   115  GLU115      0.0388
     27  CG        35.1010  -28.0050   14.9680 C.3   115  GLU115      0.1160
     28  CD        35.9220  -29.2790   15.0530 C.2   115  GLU115      0.3649
     29  OE1       37.0750  -29.2220   15.5330 O.co2 115  GLU115     -0.2457
     30  OE2       35.4150  -30.3350   14.6360 O.co2 115  GLU115     -0.2457
     31  N         27.4590  -30.0870    8.0910 N.3   157  GLU157     -0.1245
     32  CA        28.0090  -31.3880    7.7220 C.3   157  GLU157      0.1567
     33  C         27.3120  -32.4810    8.5340 C.2   157  GLU157      0.2260
     34  O         27.0110  -33.5600    8.0210 O.2   157  GLU157     -0.2867
     35  CB        29.5130  -31.4210    7.9410 C.3   157  GLU157      0.0388
     36  CG        30.2430  -30.6250    6.9170 C.3   157  GLU157      0.1160
     37  CD        31.7050  -30.4740    7.2130 C.2   157  GLU157      0.3649
     38  OE1       32.1600  -30.9120    8.2890 O.co2 157  GLU157     -0.2457
     39  OE2       32.3980  -29.9000    6.3580 O.co2 157  GLU157     -0.2457
     40  N         28.8710  -29.9730   13.2790 N.3   171  ASN171     -0.1225
     41  CA        29.8820  -29.6490   12.2910 C.3   171  ASN171      0.1785
     42  C         29.3450  -28.9400   11.0430 C.2   171  ASN171      0.2597
     43  O         28.5700  -29.4940   10.2620 O.2   171  ASN171     -0.2718
     44  CB        30.6090  -30.9250   11.8980 C.3   171  ASN171      0.1169
     45  CG        31.3280  -31.5510   13.0780 C.2   171  ASN171      0.2627
     46  OD1       30.9170  -32.5880   13.5950 O.2   171  ASN171     -0.2716
     47  ND2       32.4090  -30.9270   13.5010 N.am  171  ASN171     -0.0877
     48  N         29.7760  -27.6990   10.8750 N.am  172  ILE172     -0.1966
     49  CA        29.3890  -26.8900    9.7480 C.3   172  ILE172      0.1727
     50  C         30.6050  -26.7050    8.8510 C.2   172  ILE172      0.2616
     51  O         31.7190  -26.5320    9.3470 O.2   172  ILE172     -0.2715
     52  CB        28.8160  -25.5440   10.2170 C.3   172  ILE172      0.0290
     53  CG1       27.5850  -25.7950   11.0850 C.3   172  ILE172      0.0022
     54  CG2       28.3980  -24.6570    9.0310 C.3   172  ILE172      0.0023
     55  CD1       26.9680  -24.5270   11.6430 C.3   172  ILE172      0.0001
     56  N         30.3950  -26.7600    7.5350 N.am  173  ARG173     -0.1963
     57  CA        31.5040  -26.7370    6.5860 C.3   173  ARG173      0.1729
     58  C         32.1320  -25.3550    6.5270 C.2   173  ARG173      0.2616
     59  O         31.4450  -24.3720    6.7620 O.2   173  ARG173     -0.2715
     60  CB        31.0340  -27.1650    5.1950 C.3   173  ARG173      0.0348
     61  CG        32.1560  -27.4030    4.1840 C.3   173  ARG173      0.0492
     62  CD        31.7200  -28.3080    3.0600 C.3   173  ARG173      0.2205
     63  NE        30.5000  -27.8270    2.4040 N.pl3 173  ARG173     -0.0865
     64  CZ        30.4540  -26.8270    1.5280 C.cat 173  ARG173      0.5346
     65  NH1       31.5600  -26.1690    1.1920 N.pl3 173  ARG173      0.1354
     66  NH2       29.3060  -26.5380    0.9240 N.pl3 173  ARG173      0.1354
     67  N         33.4270  -25.2860    6.2060 N.am  174  CYS174     -0.1968
     68  CA        34.1540  -24.0120    6.2010 C.3   174  CYS174      0.1712
     69  C         33.6280  -23.0570    5.1540 C.2   174  CYS174      0.2296
     70  O         32.8990  -23.4450    4.2420 O.2   174  CYS174     -0.2864
     71  CB        35.6510  -24.2130    5.9760 C.3   174  CYS174      0.0983
     72  SG        36.0640  -25.2700    4.6010 S.3   174  CYS174     -0.0798
     73  N         39.2240  -23.3320   13.0580 N.3   220  HIS220     -0.1226
     74  CA        40.1170  -23.6460   11.9440 C.3   220  HIS220      0.1752
     75  C         40.3080  -22.4150   11.0640 C.2   220  HIS220      0.2596
     76  O         39.3620  -21.6680   10.8250 O.2   220  HIS220     -0.2718
     77  CB        39.5690  -24.8170   11.1240 C.3   220  HIS220      0.0759
     78  CG        39.6180  -26.1290   11.8420 C.ar  220  HIS220      0.0818
     79  ND1       40.1710  -27.2620   11.2860 N.ar  220  HIS220     -0.2268
     80  CD2       39.2160  -26.4800   13.0880 C.ar  220  HIS220      0.1154
     81  CE1       40.1030  -28.2530   12.1570 C.ar  220  HIS220      0.1986
     82  NE2       39.5280  -27.8070   13.2570 N.ar  220  HIS220     -0.2212
     83  N         41.5310  -22.1880   10.5980 N.am  221  GLN221     -0.1965
     84  CA        41.7770  -21.0310    9.7440 C.3   221  GLN221      0.1733
     85  C         42.8300  -21.2580    8.6730 C.2   221  GLN221      0.2617
     86  O         43.8550  -21.8960    8.9120 O.2   221  GLN221     -0.2715
     87  CB        42.1820  -19.8220   10.5850 C.3   221  GLN221      0.0408
     88  CG        43.4090  -20.0230   11.4290 C.3   221  GLN221      0.0908
     89  CD        43.2660  -19.3810   12.7790 C.2   221  GLN221      0.2608
     90  OE1       43.5420  -18.2000   12.9530 O.2   221  GLN221     -0.2717
     91  NE2       42.7980  -20.1530   13.7410 N.am  221  GLN221     -0.0878
     92  N         42.5600  -20.7100    7.4920 N.am  222  SER222     -0.1950
     93  CA        43.5730  -20.6010    6.4530 C.3   222  SER222      0.1924
     94  C         43.3490  -19.3560    5.5890 C.2   222  SER222      0.2314
     95  O         42.2380  -18.8180    5.5160 O.2   222  SER222     -0.2863
     96  CB        43.5930  -21.8600    5.5980 C.3   222  SER222      0.2116
     97  OG        42.3080  -22.1490    5.1070 O.3   222  SER222     -0.2180
     98  N         43.8250  -17.4260    1.7660 N.3   224  TRP224     -0.1241
     99  CA        43.8690  -17.7520    0.3500 C.3   224  TRP224      0.1605
    100  C         44.0280  -16.4990   -0.5010 C.2   224  TRP224      0.2264
    101  O         43.4220  -15.4710   -0.2160 O.2   224  TRP224     -0.2867
    102  CB        42.6100  -18.5070   -0.0630 C.3   224  TRP224      0.0550
    103  CG        42.4810  -19.8900    0.5100 C.ar  224  TRP224      0.0003
    104  CD1       42.5010  -20.2430    1.8270 C.ar  224  TRP224      0.0946
    105  CD2       42.2650  -21.1010   -0.2230 C.ar  224  TRP224      0.0152
    106  NE1       42.3380  -21.6000    1.9590 N.ar  224  TRP224     -0.2442
    107  CE2       42.1830  -22.1490    0.7150 C.ar  224  TRP224      0.0810
    108  CE3       42.1360  -21.4010   -1.5800 C.ar  224  TRP224      0.0012
    109  CZ2       41.9840  -23.4770    0.3350 C.ar  224  TRP224      0.0191
    110  CZ3       41.9350  -22.7160   -1.9510 C.ar  224  TRP224      0.0001
    111  CH2       41.8600  -23.7370   -0.9980 C.ar  224  TRP224      0.0015
    112  N         45.3380  -27.8710    1.7690 N.3   299  ALA299     -0.1245
    113  CA        44.4840  -27.2980    2.7880 C.3   299  ALA299      0.1562
    114  C         45.1630  -27.2720    4.1590 C.2   299  ALA299      0.2260
    115  O         44.4890  -27.3390    5.1890 O.2   299  ALA299     -0.2867
    116  CB        43.1730  -28.0690    2.8580 C.3   299  ALA299      0.0290
    117  N         46.2850  -26.0260    7.4200 N.3   301  ARG301     -0.1245
    118  CA        45.6110  -24.9800    8.1800 C.3   301  ARG301      0.1563
    119  C         45.8550  -25.0840    9.6810 C.2   301  ARG301      0.2260
    120  O         46.3620  -26.0880   10.1820 O.2   301  ARG301     -0.2867
    121  CB        44.1120  -25.0250    7.9050 C.3   301  ARG301      0.0307
    122  CG        43.4820  -26.3160    8.3740 C.3   301  ARG301      0.0489
    123  CD        42.0540  -26.4380    7.9020 C.3   301  ARG301      0.2205
    124  NE        41.3020  -27.4940    8.5770 N.pl3 301  ARG301     -0.0865
    125  CZ        41.3130  -28.7710    8.2060 C.cat 301  ARG301      0.5346
    126  NH1       42.0540  -29.1570    7.1760 N.pl3 301  ARG301      0.1354
    127  NH2       40.5950  -29.6640    8.8750 N.pl3 301  ARG301      0.1354
@<TRIPOS>BOND
     1   110   108   ar
     2   110   111   ar
     3   108   105   ar
     4   111   109   ar
     5   100   101    2
     6   100    99    1
     7   105   103   ar
     8   105   107   ar
     9   102    99    1
    10   102   103    1
    11   109   107   ar
    12    99    98    1
    13   103   104   ar
    14   107   106   ar
    15    66    64    1
    16    65    64    1
    17    64    63    2
    18   112   113    1
    19   104   106   ar
    20    63    62    1
    21     8     6    1
    22   113   116    1
    23   113   114    1
    24     6     5    1
    25    62    61    1
    26   114   115    2
    27    61    60    1
    28     5     7    1
    29     5     2    1
    30    70    69    2
    31    72    71    1
    32    97    96    1
    33    69    68    1
    34    60    57    1
    35     2     1    1
    36     2     3    1
    37    95    94    2
    38    94    93    1
    39    96    93    1
    40    71    68    1
    41    68    67    1
    42    67    58   am
    43    39    37   ar
    44    93    92    1
    45    58    57    1
    46    58    59    2
    47    57    56    1
    48     3     4    2
    49     3     9   am
    50    36    37    1
    51    36    35    1
    52   126   125    1
    53    37    38   ar
    54     9    10    1
    55   117   118    1
    56    92    85   am
    57    56    50   am
    58    32    35    1
    59    32    31    1
    60    32    33    1
    61   123   122    1
    62   123   124    1
    63   121   118    1
    64   121   122    1
    65    34    33    2
    66    12    11    2
    67   118   119    1
    68   125   124    2
    69   125   127    1
    70    85    86    2
    71    85    84    1
    72    10    11    1
    73    10    13    1
    74    50    51    2
    75    50    49    1
    76    11    17   am
    77    54    52    1
    78    14    13    1
    79    14    15    1
    80   119   120    2
    81    84    87    1
    82    84    83    1
    83    49    52    1
    84    49    48    1
    85    21    18    1
    86    17    18    1
    87    52    53    1
    88    43    42    2
    89    18    19    1
    90    87    88    1
    91    83    75   am
    92    15    16    1
    93    76    75    2
    94    48    42   am
    95    42    41    1
    96    75    74    1
    97    53    55    1
    98    77    78    1
    99    77    74    1
   100    79    78   ar
   101    79    81   ar
   102    88    89    1
   103    78    80   ar
   104    44    41    1
   105    44    45    1
   106    74    73    1
   107    19    20    2
   108    81    82   ar
   109    41    40    1
   110    89    90    2
   111    89    91   am
   112    45    47   am
   113    45    46    2
   114    80    82   ar
   115    30    28   ar
   116    27    28    1
   117    27    26    1
   118    28    29   ar
   119    22    23    1
   120    23    26    1
   121    23    24    1
   122    24    25    2
