@<TRIPOS>MOLECULE
tmp/5dmfB01.pdb
 238 224 0 0 0
SMALL
GASTEIGER

@<TRIPOS>ATOM
      1  N        -23.8010  -15.0220  -40.4340 N.3    34  GLU34      -0.1245
      2  CA       -23.4200  -15.8830  -39.3210 C.3    34  GLU34       0.1567
      3  C        -22.4990  -16.9980  -39.8060 C.2    34  GLU34       0.2260
      4  O        -21.3530  -17.1140  -39.3670 O.2    34  GLU34      -0.2867
      5  CB       -24.6700  -16.4840  -38.6770 C.3    34  GLU34       0.0388
      6  CG       -24.4020  -17.6810  -37.7750 C.3    34  GLU34       0.1160
      7  CD       -24.1990  -17.2920  -36.3260 C.2    34  GLU34       0.3649
      8  OE1      -24.8070  -16.2950  -35.8850 O.co2  34  GLU34      -0.2457
      9  OE2      -23.4300  -17.9860  -35.6280 O.co2  34  GLU34      -0.2457
     10  N        -18.1530  -17.3360  -38.9910 N.3    38  MET38      -0.1245
     11  CA       -17.6970  -18.4550  -38.1780 C.3    38  MET38       0.1570
     12  C        -16.9720  -19.4730  -39.0450 C.2    38  MET38       0.2261
     13  O        -16.0860  -20.1820  -38.5750 O.2    38  MET38      -0.2867
     14  CB       -18.8640  -19.1130  -37.4410 C.3    38  MET38       0.0387
     15  CG       -19.4960  -18.2260  -36.3880 C.3    38  MET38       0.0595
     16  SD       -18.2640  -17.4940  -35.2970 S.3    38  MET38      -0.1393
     17  CE       -17.4700  -18.9550  -34.6330 C.3    38  MET38       0.0692
     18  N        -13.4660  -17.8080  -39.3810 N.3    41  LEU41      -0.1231
     19  CA       -12.6530  -17.9690  -38.1830 C.3    41  LEU41       0.1693
     20  C        -12.2960  -19.4340  -37.9570 C.2    41  LEU41       0.2592
     21  O        -11.1990  -19.7520  -37.4980 O.2    41  LEU41      -0.2718
     22  CB       -13.3790  -17.4040  -36.9590 C.3    41  LEU41       0.0284
     23  CG       -13.7860  -15.9310  -37.0310 C.3    41  LEU41       0.0019
     24  CD1      -14.4530  -15.4950  -35.7360 C.3    41  LEU41       0.0001
     25  CD2      -12.5820  -15.0560  -37.3360 C.3    41  LEU41       0.0001
     26  N        -13.2280  -20.3220  -38.2870 N.am   42  THR42      -0.1953
     27  CA       -13.0140  -21.7560  -38.1270 C.3    42  THR42       0.1897
     28  C        -11.9320  -22.2750  -39.0720 C.2    42  THR42       0.2313
     29  O        -11.0480  -23.0270  -38.6620 O.2    42  THR42      -0.2863
     30  CB       -14.3150  -22.5500  -38.3520 C.3    42  THR42       0.1794
     31  OG1      -15.2700  -22.1980  -37.3440 O.3    42  THR42      -0.2208
     32  CG2      -14.0490  -24.0440  -38.2900 C.3    42  THR42       0.0378
     33  N         -9.5210  -20.5280  -40.6540 N.3    44  LEU44      -0.1231
     34  CA        -8.2470  -19.9420  -40.2590 C.3    44  LEU44       0.1693
     35  C         -7.6460  -20.7190  -39.0970 C.2    44  LEU44       0.2591
     36  O         -6.4740  -21.0900  -39.1250 O.2    44  LEU44      -0.2718
     37  CB        -8.4300  -18.4780  -39.8600 C.3    44  LEU44       0.0284
     38  CG        -7.1760  -17.7860  -39.3220 C.3    44  LEU44       0.0019
     39  CD1       -6.0900  -17.7530  -40.3870 C.3    44  LEU44       0.0001
     40  CD2       -7.5000  -16.3810  -38.8340 C.3    44  LEU44       0.0001
     41  N         -8.4600  -20.9610  -38.0750 N.am   45  ALA45      -0.1980
     42  CA        -8.0170  -21.6900  -36.8950 C.3    45  ALA45       0.1597
     43  C         -7.5440  -23.0960  -37.2630 C.2    45  ALA45       0.2287
     44  O         -6.5130  -23.5580  -36.7740 O.2    45  ALA45      -0.2864
     45  CB        -9.1320  -21.7530  -35.8630 C.3    45  ALA45       0.0319
     46  N         -4.1740  -22.8600  -38.6880 N.3    48  GLU48      -0.1245
     47  CA        -3.2230  -22.4750  -37.6510 C.3    48  GLU48       0.1567
     48  C         -2.8510  -23.6680  -36.7770 C.2    48  GLU48       0.2260
     49  O         -1.6960  -23.8170  -36.3780 O.2    48  GLU48      -0.2867
     50  CB        -3.7820  -21.3460  -36.7860 C.3    48  GLU48       0.0388
     51  CG        -3.7440  -19.9780  -37.4420 C.3    48  GLU48       0.1160
     52  CD        -4.2980  -18.8920  -36.5420 C.2    48  GLU48       0.3649
     53  OE1       -5.5280  -18.8710  -36.3250 O.co2  48  GLU48      -0.2457
     54  OE2       -3.5050  -18.0640  -36.0480 O.co2  48  GLU48      -0.2457
     55  N         -4.9610  -25.6310  -26.8870 N.3    78  TRP78      -0.1227
     56  CA        -4.9750  -25.2070  -28.2870 C.3    78  TRP78       0.1737
     57  C         -5.7010  -23.8810  -28.5150 C.2    78  TRP78       0.2595
     58  O         -5.2440  -23.0490  -29.2990 O.2    78  TRP78      -0.2718
     59  CB        -5.5350  -26.3010  -29.2040 C.3    78  TRP78       0.0564
     60  CG        -7.0040  -26.5480  -29.0630 C.ar   78  TRP78       0.0003
     61  CD1       -7.6050  -27.4720  -28.2610 C.ar   78  TRP78       0.0946
     62  CD2       -8.0600  -25.8710  -29.7560 C.ar   78  TRP78       0.0152
     63  NE1       -8.9690  -27.4100  -28.4070 N.ar   78  TRP78      -0.2442
     64  CE2       -9.2750  -26.4350  -29.3180 C.ar   78  TRP78       0.0810
     65  CE3       -8.0970  -24.8410  -30.7020 C.ar   78  TRP78       0.0012
     66  CZ2      -10.5120  -26.0030  -29.7920 C.ar   78  TRP78       0.0191
     67  CZ3       -9.3270  -24.4140  -31.1700 C.ar   78  TRP78       0.0001
     68  CH2      -10.5170  -24.9950  -30.7150 C.ar   78  TRP78       0.0015
     69  N         -6.8200  -23.6780  -27.8280 N.am   79  LEU79      -0.1980
     70  CA        -7.5860  -22.4460  -27.9940 C.3    79  LEU79       0.1596
     71  C         -6.9310  -21.2700  -27.2720 C.2    79  LEU79       0.2287
     72  O         -6.9170  -20.1510  -27.7850 O.2    79  LEU79      -0.2864
     73  CB        -9.0340  -22.6270  -27.5320 C.3    79  LEU79       0.0297
     74  CG        -9.9660  -21.4470  -27.8240 C.3    79  LEU79       0.0022
     75  CD1       -9.7800  -20.9500  -29.2520 C.3    79  LEU79       0.0001
     76  CD2      -11.4170  -21.8240  -27.5680 C.3    79  LEU79       0.0001
     77  N         -4.1860  -20.1780  -29.5050 N.3    82  LEU82      -0.1231
     78  CA        -4.7680  -19.4600  -30.6330 C.3    82  LEU82       0.1693
     79  C         -5.1640  -18.0490  -30.2130 C.2    82  LEU82       0.2591
     80  O         -5.0040  -17.0960  -30.9750 O.2    82  LEU82      -0.2718
     81  CB        -5.9960  -20.1930  -31.1800 C.3    82  LEU82       0.0284
     82  CG        -5.7740  -21.4040  -32.0870 C.3    82  LEU82       0.0019
     83  CD1       -7.1040  -21.9060  -32.6280 C.3    82  LEU82       0.0001
     84  CD2       -4.8360  -21.0480  -33.2260 C.3    82  LEU82       0.0001
     85  N         -5.6770  -17.9240  -28.9920 N.am   83  MET83      -0.1979
     86  CA        -6.1740  -16.6450  -28.4950 C.3    83  MET83       0.1605
     87  C         -5.0650  -15.6620  -28.1200 C.2    83  MET83       0.2287
     88  O         -5.1160  -14.4950  -28.5070 O.2    83  MET83      -0.2864
     89  CB        -7.1300  -16.8560  -27.3190 C.3    83  MET83       0.0413
     90  CG        -8.5000  -17.3710  -27.7300 C.3    83  MET83       0.0598
     91  SD        -9.6390  -17.5100  -26.3400 S.3    83  MET83      -0.1393
     92  CE       -11.1720  -17.8790  -27.1900 C.3    83  MET83       0.0692
     93  N         -3.7210  -14.3740  -31.2760 N.3    86  LEU86      -0.1245
     94  CA        -4.6150  -13.3670  -31.8330 C.3    86  LEU86       0.1561
     95  C         -4.4600  -12.0390  -31.1030 C.2    86  LEU86       0.2260
     96  O         -4.3980  -10.9780  -31.7250 O.2    86  LEU86      -0.2867
     97  CB        -6.0670  -13.8390  -31.7380 C.3    86  LEU86       0.0270
     98  CG        -7.1420  -12.7770  -31.9800 C.3    86  LEU86       0.0019
     99  CD1       -7.0210  -12.1980  -33.3800 C.3    86  LEU86       0.0001
    100  CD2       -8.5310  -13.3550  -31.7500 C.3    86  LEU86       0.0001
    101  N         -1.1650  -10.2820  -31.9170 N.3    89  ARG89      -0.1245
    102  CA        -1.1840   -9.6960  -33.2540 C.3    89  ARG89       0.1563
    103  C         -1.9910   -8.4000  -33.2880 C.2    89  ARG89       0.2260
    104  O         -1.6270   -7.4490  -33.9790 O.2    89  ARG89      -0.2867
    105  CB        -1.7530  -10.6860  -34.2750 C.3    89  ARG89       0.0307
    106  CG        -0.9800  -11.9900  -34.3890 C.3    89  ARG89       0.0489
    107  CD        -1.4030  -12.7800  -35.6200 C.3    89  ARG89       0.2205
    108  NE        -2.8300  -13.0920  -35.6230 N.pl3  89  ARG89      -0.0865
    109  CZ        -3.3480  -14.2310  -35.1720 C.cat  89  ARG89       0.5346
    110  NH1       -2.5570  -15.1730  -34.6780 N.pl3  89  ARG89       0.1354
    111  NH2       -4.6590  -14.4290  -35.2170 N.pl3  89  ARG89       0.1354
    112  N         -7.3950  -11.0870  -36.7330 N.3    99  PHE99      -0.1241
    113  CA        -7.4170  -12.5280  -36.9530 C.3    99  PHE99       0.1605
    114  C         -6.4350  -12.8790  -38.0610 C.2    99  PHE99       0.2264
    115  O         -5.7050  -13.8670  -37.9770 O.2    99  PHE99      -0.2867
    116  CB        -8.8250  -12.9950  -37.3230 C.3    99  PHE99       0.0534
    117  CG        -9.8080  -12.9060  -36.1920 C.ar   99  PHE99      -0.0203
    118  CD1      -10.0230  -13.9920  -35.3590 C.ar   99  PHE99      -0.0042
    119  CD2      -10.5140  -11.7380  -35.9580 C.ar   99  PHE99      -0.0042
    120  CE1      -10.9260  -13.9150  -34.3160 C.ar   99  PHE99      -0.0003
    121  CE2      -11.4190  -11.6560  -34.9160 C.ar   99  PHE99      -0.0003
    122  CZ       -11.6240  -12.7460  -34.0940 C.ar   99  PHE99      -0.0000
    123  N        -22.5070  -12.3770  -35.0930 N.3   113  VAL113     -0.1231
    124  CA       -22.6610  -13.6960  -34.4910 C.3   113  VAL113      0.1692
    125  C        -23.0850  -13.5570  -33.0320 C.2   113  VAL113      0.2592
    126  O        -22.4040  -12.9110  -32.2350 O.2   113  VAL113     -0.2718
    127  CB       -21.3680  -14.5250  -34.5720 C.3   113  VAL113      0.0266
    128  CG1      -21.5940  -15.9200  -33.9940 C.3   113  VAL113      0.0020
    129  CG2      -20.8720  -14.6030  -36.0130 C.3   113  VAL113      0.0020
    130  N        -24.2140  -14.1690  -32.6900 N.am  114  GLU114     -0.1966
    131  CA       -24.7800  -14.0540  -31.3500 C.3   114  GLU114      0.1733
    132  C        -23.8590  -14.6320  -30.2800 C.2   114  GLU114      0.2617
    133  O        -23.4250  -15.7800  -30.3720 O.2   114  GLU114     -0.2715
    134  CB       -26.1490  -14.7350  -31.2900 C.3   114  GLU114      0.0429
    135  CG       -27.1260  -14.3380  -32.4030 C.3   114  GLU114      0.1163
    136  CD       -27.5370  -12.8710  -32.3730 C.2   114  GLU114      0.3649
    137  OE1      -27.5740  -12.2650  -31.2850 O.co2 114  GLU114     -0.2457
    138  OE2      -27.8410  -12.3210  -33.4440 O.co2 114  GLU114     -0.2457
    139  N        -23.5670  -13.8260  -29.2640 N.am  115  GLY115     -0.1940
    140  CA       -22.7270  -14.2580  -28.1630 C.3   115  GLY115      0.2014
    141  C        -21.2490  -14.0920  -28.4540 C.2   115  GLY115      0.2638
    142  O        -20.4010  -14.4490  -27.6370 O.2   115  GLY115     -0.2714
    143  N        -20.9410  -13.5490  -29.6270 N.am  116  MET116     -0.1976
    144  CA       -19.5580  -13.3250  -30.0320 C.3   116  MET116      0.1605
    145  C        -18.9960  -12.0610  -29.3880 C.2   116  MET116      0.2287
    146  O        -17.7850  -11.9270  -29.2080 O.2   116  MET116     -0.2864
    147  CB       -19.4670  -13.2190  -31.5560 C.3   116  MET116      0.0413
    148  CG       -18.0820  -12.8800  -32.0770 C.3   116  MET116      0.0598
    149  SD       -16.8990  -14.2120  -31.8130 S.3   116  MET116     -0.1393
    150  CE       -17.5860  -15.4710  -32.8790 C.3   116  MET116      0.0692
    151  N        -16.8550  -12.3630  -26.0840 N.3   119  ILE119     -0.1231
    152  CA       -15.5530  -12.9370  -26.3990 C.3   119  ILE119      0.1692
    153  C        -14.6330  -11.8890  -27.0140 C.2   119  ILE119      0.2592
    154  O        -13.4750  -11.7560  -26.6150 O.2   119  ILE119     -0.2718
    155  CB       -15.6840  -14.1270  -27.3660 C.3   119  ILE119      0.0266
    156  CG1      -16.5330  -15.2330  -26.7380 C.3   119  ILE119      0.0019
    157  CG2      -14.3100  -14.6600  -27.7440 C.3   119  ILE119      0.0020
    158  CD1      -15.9100  -15.8520  -25.5060 C.3   119  ILE119      0.0001
    159  N        -15.1530  -11.1450  -27.9850 N.am  120  PHE120     -0.1976
    160  CA       -14.3890  -10.0900  -28.6410 C.3   120  PHE120      0.1639
    161  C        -13.9090   -9.0340  -27.6490 C.2   120  PHE120      0.2290
    162  O        -12.8050   -8.5050  -27.7820 O.2   120  PHE120     -0.2864
    163  CB       -15.2280   -9.4310  -29.7420 C.3   120  PHE120      0.0560
    164  CG       -15.0060  -10.0140  -31.1070 C.ar  120  PHE120     -0.0200
    165  CD1      -14.7530   -9.1900  -32.1920 C.ar  120  PHE120     -0.0042
    166  CD2      -15.0330  -11.3830  -31.3060 C.ar  120  PHE120     -0.0042
    167  CE1      -14.5440   -9.7220  -33.4530 C.ar  120  PHE120     -0.0003
    168  CE2      -14.8210  -11.9210  -32.5650 C.ar  120  PHE120     -0.0003
    169  CZ       -14.5770  -11.0890  -33.6390 C.ar  120  PHE120     -0.0000
    170  N        -11.0670  -10.3570  -25.4400 N.3   123  LEU123     -0.1245
    171  CA        -9.8970  -10.3910  -26.3090 C.3   123  LEU123      0.1561
    172  C         -9.3260   -8.9910  -26.5150 C.2   123  LEU123      0.2260
    173  O         -8.1200   -8.7810  -26.3860 O.2   123  LEU123     -0.2867
    174  CB       -10.2520  -11.0250  -27.6550 C.3   123  LEU123      0.0270
    175  CG       -10.5420  -12.5260  -27.6350 C.3   123  LEU123      0.0019
    176  CD1      -11.0320  -12.9930  -28.9960 C.3   123  LEU123      0.0001
    177  CD2       -9.3080  -13.3070  -27.2060 C.3   123  LEU123      0.0001
    178  N        -14.9780  -19.7240  -24.8510 N.3   206  GLY206     -0.1225
    179  CA       -14.9020  -20.0170  -26.2700 C.3   206  GLY206      0.1811
    180  C        -15.3360  -21.4380  -26.5660 C.2   206  GLY206      0.2280
    181  O        -16.2170  -21.6660  -27.3960 O.2   206  GLY206     -0.2866
    182  N        -19.1610  -22.0400  -26.3950 N.3   209  HIS209     -0.1226
    183  CA       -19.9140  -21.6540  -27.5820 C.3   209  HIS209      0.1752
    184  C        -19.6810  -22.6210  -28.7390 C.2   209  HIS209      0.2595
    185  O        -20.6010  -22.9190  -29.5010 O.2   209  HIS209     -0.2718
    186  CB       -19.5620  -20.2250  -28.0010 C.3   209  HIS209      0.0759
    187  CG       -20.0120  -19.1820  -27.0250 C.ar  209  HIS209      0.0818
    188  ND1      -19.7670  -19.2740  -25.6720 N.ar  209  HIS209     -0.2268
    189  CD2      -20.6940  -18.0260  -27.2050 C.ar  209  HIS209      0.1154
    190  CE1      -20.2770  -18.2200  -25.0610 C.ar  209  HIS209      0.1986
    191  NE2      -20.8450  -17.4460  -25.9690 N.ar  209  HIS209     -0.2212
    192  N        -18.4520  -23.1100  -28.8670 N.am  210  LEU210     -0.1980
    193  CA       -18.1230  -24.0500  -29.9330 C.3   210  LEU210      0.1596
    194  C        -18.9410  -25.3360  -29.8280 C.2   210  LEU210      0.2287
    195  O        -19.3630  -25.8870  -30.8450 O.2   210  LEU210     -0.2864
    196  CB       -16.6230  -24.3550  -29.9660 C.3   210  LEU210      0.0297
    197  CG       -15.7320  -23.2180  -30.4700 C.3   210  LEU210      0.0022
    198  CD1      -14.3420  -23.7350  -30.8080 C.3   210  LEU210      0.0001
    199  CD2      -16.3580  -22.5490  -31.6850 C.3   210  LEU210      0.0001
    200  N        -22.0270  -25.6660  -28.4450 N.3   212  SER212     -0.1202
    201  CA       -23.3650  -25.2730  -28.8660 C.3   212  SER212      0.2020
    202  C        -23.4800  -25.3310  -30.3800 C.2   212  SER212      0.2618
    203  O        -24.2930  -26.0780  -30.9220 O.2   212  SER212     -0.2717
    204  CB       -23.6830  -23.8590  -28.3760 C.3   212  SER212      0.2103
    205  OG       -22.8450  -22.9020  -29.0020 O.3   212  SER212     -0.2182
    206  N        -22.6530  -24.5380  -31.0520 N.am  213  MET213     -0.1979
    207  CA       -22.6080  -24.5060  -32.5080 C.3   213  MET213      0.1605
    208  C        -22.6730  -25.9040  -33.1120 C.2   213  MET213      0.2287
    209  O        -23.6070  -26.2290  -33.8430 O.2   213  MET213     -0.2864
    210  CB       -21.3350  -23.8000  -32.9720 C.3   213  MET213      0.0413
    211  CG       -21.0570  -23.9210  -34.4570 C.3   213  MET213      0.0598
    212  SD       -19.5300  -23.0800  -34.9030 S.3   213  MET213     -0.1393
    213  CE       -19.8750  -21.4370  -34.2820 C.3   213  MET213      0.0692
    214  N        -26.0000  -28.0180  -33.2110 N.3   216  LYS216     -0.1245
    215  CA       -27.0560  -27.0160  -33.3320 C.3   216  LYS216      0.1561
    216  C        -27.3220  -26.5710  -34.7700 C.2   216  LYS216      0.2260
    217  O        -28.2160  -27.0950  -35.4350 O.2   216  LYS216     -0.2867
    218  CB       -26.7390  -25.7950  -32.4660 C.3   216  LYS216      0.0271
    219  CG       -27.9960  -25.0230  -32.0870 C.3   216  LYS216      0.0035
    220  CD       -27.5900  -23.8220  -31.2350 C.3   216  LYS216      0.0206
    221  CE       -27.2400  -22.5590  -32.0040 C.3   216  LYS216      0.1093
    222  NZ       -26.0090  -22.6760  -32.8440 N.3   216  LYS216     -0.1314
    223  N        -17.2440  -27.7260  -38.6570 N.3   221  LEU221     -0.1245
    224  CA       -15.9210  -27.6920  -38.0550 C.3   221  LEU221      0.1561
    225  C        -15.0190  -28.6950  -38.7550 C.2   221  LEU221      0.2260
    226  O        -15.4630  -29.7740  -39.1460 O.2   221  LEU221     -0.2867
    227  CB       -15.9910  -28.0200  -36.5620 C.3   221  LEU221      0.0270
    228  CG       -16.9580  -27.2220  -35.6860 C.3   221  LEU221      0.0019
    229  CD1      -18.3840  -27.7130  -35.8740 C.3   221  LEU221      0.0001
    230  CD2      -16.5510  -27.3330  -34.2280 C.3   221  LEU221      0.0001
    231  N        -10.4400  -29.8100  -35.5900 N.3   225  LEU225     -0.1245
    232  CA       -11.1100  -28.9850  -34.5890 C.3   225  LEU225      0.1561
    233  C        -12.1520  -29.7830  -33.8130 C.2   225  LEU225      0.2260
    234  O        -12.3570  -29.5580  -32.6200 O.2   225  LEU225     -0.2867
    235  CB       -11.7630  -27.7650  -35.2430 C.3   225  LEU225      0.0270
    236  CG       -10.8520  -26.5640  -35.5020 C.3   225  LEU225      0.0019
    237  CD1      -11.5590  -25.5250  -36.3550 C.3   225  LEU225      0.0001
    238  CD2      -10.3910  -25.9580  -34.1870 C.3   225  LEU225      0.0001
@<TRIPOS>BOND
     1    33    34    1
     2     1     2    1
     3    39    38    1
     4    34    37    1
     5    34    35    1
     6    37    38    1
     7     3     4    2
     8     3     2    1
     9    18    19    1
    10    38    40    1
    11     2     5    1
    12   226   225    2
    13    36    35    2
    14    35    41   am
    15    28    29    2
    16    28    27    1
    17    12    13    2
    18    12    11    1
    19    10    11    1
    20   225   224    1
    21    46    47    1
    22     5     6    1
    23   223   224    1
    24    30    32    1
    25    30    27    1
    26    30    31    1
    27    26    27    1
    28    26    20   am
    29    19    20    1
    30    19    22    1
    31    11    14    1
    32    41    42    1
    33   114   115    2
    34   114   113    1
    35   224   227    1
    36    20    21    2
    37     6     7    1
    38    47    50    1
    39    47    48    1
    40    51    50    1
    41    51    52    1
    42    14    15    1
    43    25    23    1
    44   116   113    1
    45   116   117    1
    46    43    42    1
    47    43    44    2
    48    23    22    1
    49    23    24    1
    50   113   112    1
    51    42    45    1
    52    48    49    2
    53   227   228    1
    54    52    53   ar
    55    52    54   ar
    56    15    16    1
    57   237   236    1
    58     7     8   ar
    59     7     9   ar
    60   117   119   ar
    61   117   118   ar
    62   129   127    1
    63   119   121   ar
    64   229   228    1
    65   228   230    1
    66   108   107    1
    67   108   109    2
    68   107   106    1
    69   231   232    1
    70   236   235    1
    71   236   238    1
    72   217   216    2
    73   118   120   ar
    74    16    17    1
    75   235   232    1
    76   111   109    1
    77   109   110    1
    78   123   124    1
    79   121   122   ar
    80   212   211    1
    81   212   213    1
    82   216   215    1
    83   232   233    1
    84   127   124    1
    85   127   128    1
    86   124   125    1
    87   211   210    1
    88   106   105    1
    89   120   122   ar
    90   105   102    1
    91   104   103    2
    92   209   208    2
    93   233   234    2
    94   169   167   ar
    95   169   168   ar
    96   167   165   ar
    97   138   136   ar
    98    99    98    1
    99   215   214    1
   100   215   218    1
   101   103   102    1
   102   102   101    1
   103    84    82    1
   104   208   207    1
   105   125   130   am
   106   125   126    2
   107   210   207    1
   108   150   149    1
   109   222   221    1
   110   130   131    1
   111    83    82    1
   112   168   166   ar
   113   207   206    1
   114   218   219    1
   115   135   136    1
   116   135   134    1
   117   136   137   ar
   118   165   164   ar
   119    82    81    1
   120   219   220    1
   121   148   149    1
   122   148   147    1
   123   221   220    1
   124    98   100    1
   125    98    97    1
   126    94    97    1
   127    94    93    1
   128    94    95    1
   129    96    95    2
   130   199   197    1
   131   147   144    1
   132   131   134    1
   133   131   132    1
   134   166   164   ar
   135    81    78    1
   136    67    68   ar
   137    67    65   ar
   138   164   163    1
   139   206   202   am
   140    80    79    2
   141   203   202    2
   142   195   194    2
   143   198   197    1
   144    68    66   ar
   145    65    62   ar
   146    78    79    1
   147    78    77    1
   148   197   196    1
   149   202   201    1
   150   133   132    2
   151   132   139   am
   152    79    85   am
   153   144   143    1
   154   144   145    1
   155   196   193    1
   156   193   194    1
   157   193   192    1
   158    66    64   ar
   159    62    64   ar
   160    62    60   ar
   161   163   160    1
   162   143   141   am
   163   185   184    2
   164   145   146    2
   165    64    63   ar
   166    58    57    2
   167   139   140    1
   168    75    74    1
   169    59    60    1
   170    59    56    1
   171    60    61   ar
   172   205   204    1
   173   176   175    1
   174    85    86    1
   175   192   184   am
   176   201   200    1
   177   201   204    1
   178   184   183    1
   179   160   159    1
   180   160   161    1
   181    57    56    1
   182    57    69   am
   183    88    87    2
   184    86    87    1
   185    86    89    1
   186   141   140    1
   187   141   142    2
   188    63    61   ar
   189    56    55    1
   190   186   183    1
   191   186   187    1
   192    70    69    1
   193    70    73    1
   194    70    71    1
   195   159   153   am
   196    74    76    1
   197    74    73    1
   198    72    71    2
   199   162   161    2
   200   157   155    1
   201    90    89    1
   202    90    91    1
   203   174   175    1
   204   174   171    1
   205   175   177    1
   206   183   182    1
   207   181   180    2
   208   155   156    1
   209   155   152    1
   210   189   187   ar
   211   189   191   ar
   212    92    91    1
   213   187   188   ar
   214   153   154    2
   215   153   152    1
   216   156   158    1
   217   180   179    1
   218   172   173    2
   219   172   171    1
   220   152   151    1
   221   171   170    1
   222   179   178    1
   223   191   190   ar
   224   188   190   ar
