@<TRIPOS>MOLECULE
tmp/5dmgD00.pdb
 122 116 0 0 0
SMALL
GASTEIGER

@<TRIPOS>ATOM
      1  N        -27.2690   -0.3750  -18.8870 N.3    29  ARG29      -0.1245
      2  CA       -26.5510   -1.0530  -19.9640 C.3    29  ARG29       0.1563
      3  C        -25.7880   -2.2210  -19.3190 C.2    29  ARG29       0.2260
      4  O        -25.0880   -2.0420  -18.3180 O.2    29  ARG29      -0.2867
      5  CB       -25.6410   -0.0700  -20.7080 C.3    29  ARG29       0.0307
      6  CG       -25.1610   -0.5390  -22.0780 C.3    29  ARG29       0.0489
      7  CD       -23.8050   -1.2360  -21.9800 C.3    29  ARG29       0.2205
      8  NE       -22.8750   -0.9140  -23.0670 N.pl3  29  ARG29      -0.0865
      9  CZ       -22.3500    0.2910  -23.3040 C.cat  29  ARG29       0.5346
     10  NH1      -22.6770    1.3500  -22.5680 N.pl3  29  ARG29       0.1354
     11  NH2      -21.5020    0.4470  -24.3090 N.pl3  29  ARG29       0.1354
     12  N        -24.2320   -4.9790  -17.2110 N.3    31  ASN31      -0.1225
     13  CA       -22.9650   -5.1890  -16.5080 C.3    31  ASN31       0.1785
     14  C        -22.1000   -3.9280  -16.4650 C.2    31  ASN31       0.2597
     15  O        -20.8710   -4.0060  -16.3510 O.2    31  ASN31      -0.2718
     16  CB       -22.1980   -6.3300  -17.1870 C.3    31  ASN31       0.1169
     17  CG       -21.0780   -6.8760  -16.3330 C.2    31  ASN31       0.2627
     18  OD1      -21.3150   -7.5780  -15.3490 O.2    31  ASN31      -0.2716
     19  ND2      -19.8440   -6.5660  -16.7120 N.am   31  ASN31      -0.0877
     20  N        -22.7460   -2.7660  -16.5490 N.am   32  LYS32      -0.1966
     21  CA       -22.0360   -1.5090  -16.7680 C.3    32  LYS32       0.1728
     22  C        -22.4540   -0.5100  -15.6970 C.2    32  LYS32       0.2616
     23  O        -23.1620    0.4710  -15.9570 O.2    32  LYS32      -0.2715
     24  CB       -22.3280   -0.9840  -18.1760 C.3    32  LYS32       0.0311
     25  CG       -21.1090   -0.5280  -18.9580 C.3    32  LYS32       0.0038
     26  CD       -20.5260   -1.6440  -19.8130 C.3    32  LYS32       0.0206
     27  CE       -19.6770   -1.0790  -20.9450 C.3    32  LYS32       0.1093
     28  NZ       -18.9990   -2.1430  -21.7380 N.3    32  LYS32      -0.1314
     29  N        -22.0100   -0.7910  -14.4790 N.am   33  LEU33      -0.1963
     30  CA       -22.3090    0.0410  -13.3430 C.3    33  LEU33       0.1728
     31  C        -21.1020    0.0790  -12.4220 C.2    33  LEU33       0.2616
     32  O        -20.3740   -0.8930  -12.2980 O.2    33  LEU33      -0.2715
     33  CB       -23.5480   -0.4870  -12.6160 C.3    33  LEU33       0.0311
     34  CG       -24.0670    0.3810  -11.4550 C.3    33  LEU33       0.0022
     35  CD1      -25.5420    0.6750  -11.6050 C.3    33  LEU33       0.0001
     36  CD2      -23.7960   -0.2640  -10.1080 C.3    33  LEU33       0.0001
     37  N        -20.8940    1.2160  -11.7820 N.am   34  ALA34      -0.1977
     38  CA       -19.7370    1.4220  -10.9200 C.3    34  ALA34       0.1597
     39  C        -20.1730    2.0660   -9.6300 C.2    34  ALA34       0.2287
     40  O        -21.1880    2.7390   -9.5970 O.2    34  ALA34      -0.2864
     41  CB       -18.7290    2.3180  -11.6140 C.3    34  ALA34       0.0319
     42  N        -18.6050    4.5300   -6.3810 N.3    36  PHE36      -0.1241
     43  CA       -17.5620    5.4910   -6.0420 C.3    36  PHE36       0.1605
     44  C        -17.6480    5.8990   -4.5820 C.2    36  PHE36       0.2264
     45  O        -18.7280    5.9850   -4.0240 O.2    36  PHE36      -0.2867
     46  CB       -17.7120    6.7380   -6.9020 C.3    36  PHE36       0.0534
     47  CG       -17.2550    6.5610   -8.3190 C.ar   36  PHE36      -0.0203
     48  CD1      -15.9960    6.9760   -8.7060 C.ar   36  PHE36      -0.0042
     49  CD2      -18.0910    5.9910   -9.2660 C.ar   36  PHE36      -0.0042
     50  CE1      -15.5710    6.8220  -10.0150 C.ar   36  PHE36      -0.0003
     51  CE2      -17.6730    5.8250  -10.5750 C.ar   36  PHE36      -0.0003
     52  CZ       -16.4090    6.2420  -10.9520 C.ar   36  PHE36      -0.0000
     53  N        -12.9830    5.3350   -7.3100 N.3    46  ARG46      -0.1245
     54  CA       -13.7400    4.1860   -7.7700 C.3    46  ARG46       0.1563
     55  C        -13.4150    2.9470   -6.9420 C.2    46  ARG46       0.2260
     56  O        -12.2480    2.6550   -6.6860 O.2    46  ARG46      -0.2867
     57  CB       -13.4580    3.9240   -9.2410 C.3    46  ARG46       0.0307
     58  CG       -14.5230    3.0700   -9.8940 C.3    46  ARG46       0.0489
     59  CD       -14.2980    2.9560  -11.3860 C.3    46  ARG46       0.2205
     60  NE       -13.1490    2.1130  -11.6790 N.pl3  46  ARG46      -0.0865
     61  CZ       -12.8300    1.6710  -12.8890 C.cat  46  ARG46       0.5346
     62  NH1      -13.5600    1.9970  -13.9560 N.pl3  46  ARG46       0.1354
     63  NH2      -11.7650    0.8950  -13.0350 N.pl3  46  ARG46       0.1354
     64  N        -16.3390   -1.6180  -10.4660 N.3    49  TYR49      -0.1227
     65  CA       -16.7130   -1.4140  -11.8520 C.3    49  TYR49       0.1736
     66  C        -17.2140   -2.7370  -12.3810 C.2    49  TYR49       0.2596
     67  O        -16.9430   -3.7870  -11.7870 O.2    49  TYR49      -0.2718
     68  CB       -15.5250   -0.9330  -12.6660 C.3    49  TYR49       0.0548
     69  CG       -14.4100   -1.9450  -12.8000 C.ar   49  TYR49      -0.0200
     70  CD1      -14.3540   -2.8170  -13.8920 C.ar   49  TYR49      -0.0009
     71  CD2      -13.3940   -2.0160  -11.8470 C.ar   49  TYR49      -0.0009
     72  CE1      -13.3260   -3.7360  -14.0240 C.ar   49  TYR49       0.0417
     73  CE2      -12.3580   -2.9300  -11.9700 C.ar   49  TYR49       0.0417
     74  CZ       -12.3330   -3.7910  -13.0550 C.ar   49  TYR49       0.1957
     75  OH       -11.3030   -4.6920  -13.1720 O.3    49  TYR49      -0.2866
     76  N        -17.9510   -2.6760  -13.4880 N.am   50  SER50      -0.1952
     77  CA       -18.6180   -3.8420  -14.0700 C.3    50  SER50       0.1924
     78  C        -19.5340   -4.5330  -13.0550 C.2    50  SER50       0.2314
     79  O        -19.6270   -5.7580  -13.0330 O.2    50  SER50      -0.2863
     80  CB       -17.6000   -4.8360  -14.6420 C.3    50  SER50       0.2116
     81  OG       -16.7860   -4.2240  -15.6300 O.3    50  SER50      -0.2180
     82  N        -12.0000   -2.7140   -7.7900 N.3    55  ASP55      -0.1239
     83  CA       -10.9120   -1.9820   -8.4130 C.3    55  ASP55       0.1674
     84  C         -9.6350   -2.2530   -7.6330 C.2    55  ASP55       0.2266
     85  O         -9.6940   -2.6940   -6.4830 O.2    55  ASP55      -0.2867
     86  CB       -11.2180   -0.4820   -8.4320 C.3    55  ASP55       0.1410
     87  CG       -10.7690    0.1870   -9.7090 C.2    55  ASP55       0.3668
     88  OD1      -10.1420   -0.4750  -10.5640 O.co2  55  ASP55      -0.2456
     89  OD2      -11.0600    1.3840   -9.8720 O.co2  55  ASP55      -0.2456
     90  N        -22.8920    4.6220  -10.3610 N.3    89  LEU89      -0.1245
     91  CA       -22.8470    5.3130  -11.6540 C.3    89  LEU89       0.1561
     92  C        -23.2180    4.3300  -12.7590 C.2    89  LEU89       0.2260
     93  O        -22.5850    3.2920  -12.9030 O.2    89  LEU89      -0.2867
     94  CB       -21.4610    5.8780  -11.9050 C.3    89  LEU89       0.0270
     95  CG       -21.2510    6.6250  -13.2220 C.3    89  LEU89       0.0019
     96  CD1      -22.1350    7.8520  -13.3090 C.3    89  LEU89       0.0001
     97  CD2      -19.8050    7.0430  -13.3600 C.3    89  LEU89       0.0001
     98  N        -24.4690    3.3530  -16.8690 N.3    91  TYR91      -0.1241
     99  CA       -24.4920    3.6520  -18.2930 C.3    91  TYR91       0.1605
    100  C        -25.8910    3.3560  -18.7990 C.2    91  TYR91       0.2264
    101  O        -26.5450    2.4240  -18.3270 O.2    91  TYR91      -0.2867
    102  CB       -23.5240    2.7560  -19.0560 C.3    91  TYR91       0.0534
    103  CG       -22.0590    3.1020  -18.9590 C.ar   91  TYR91      -0.0201
    104  CD1      -21.1850    2.6770  -19.9500 C.ar   91  TYR91      -0.0009
    105  CD2      -21.5400    3.8330  -17.9010 C.ar   91  TYR91      -0.0009
    106  CE1      -19.8380    2.9500  -19.8950 C.ar   91  TYR91       0.0417
    107  CE2      -20.1860    4.1230  -17.8420 C.ar   91  TYR91       0.0417
    108  CZ       -19.3430    3.6740  -18.8490 C.ar   91  TYR91       0.1957
    109  OH       -17.9990    3.9300  -18.8300 O.3    91  TYR91      -0.2866
    110  N        -26.4510    9.4470  -21.2870 N.3    99  CYS99      -0.1221
    111  CA       -25.4970    8.3330  -21.4500 C.3    99  CYS99       0.1808
    112  C        -24.9820    7.7880  -20.1110 C.2    99  CYS99       0.2601
    113  O        -24.7630    6.5830  -19.9450 O.2    99  CYS99      -0.2717
    114  CB       -24.2760    8.7770  -22.2720 C.3    99  CYS99       0.0970
    115  SG       -24.5990    9.3590  -23.9570 S.3    99  CYS99      -0.0800
    116  N        -24.7670    8.7030  -19.1730 N.am  100  VAL100     -0.1979
    117  CA       -24.1870    8.3940  -17.8850 C.3   100  VAL100      0.1595
    118  C        -24.9910    9.1350  -16.8200 C.2   100  VAL100      0.2287
    119  O        -25.4950   10.2250  -17.0690 O.2   100  VAL100     -0.2864
    120  CB       -22.7070    8.8240  -17.8720 C.3   100  VAL100      0.0276
    121  CG1      -22.1120    8.7860  -16.4800 C.3   100  VAL100      0.0022
    122  CG2      -21.8980    7.9350  -18.7920 C.3   100  VAL100      0.0022
@<TRIPOS>BOND
     1    11     9    1
     2   115   114    1
     3     9     8    2
     4     9    10    1
     5     8     7    1
     6   114   111    1
     7     6     7    1
     8     6     5    1
     9    28    27    1
    10   111   110    1
    11   111   112    1
    12    27    26    1
    13     5     2    1
    14   112   113    2
    15   112   116   am
    16     2     3    1
    17     2     1    1
    18   104   106   ar
    19   104   103   ar
    20   106   108   ar
    21    26    25    1
    22     3     4    2
    23   116   117    1
    24   102   103    1
    25   102    99    1
    26   103   105   ar
    27    25    24    1
    28   108   109    1
    29   108   107   ar
    30   100   101    2
    31   100    99    1
    32   122   120    1
    33    99    98    1
    34    24    21    1
    35   105   107   ar
    36   117   120    1
    37   117   118    1
    38   120   121    1
    39    12    13    1
    40    16    13    1
    41    16    17    1
    42   119   118    2
    43    21    20    1
    44    21    22    1
    45    19    17   am
    46    20    14   am
    47    13    14    1
    48    14    15    2
    49    17    18    2
    50    23    22    2
    51    22    29   am
    52    81    80    1
    53    80    77    1
    54    29    30    1
    55    77    76    1
    56    77    78    1
    57    72    70   ar
    58    72    74   ar
    59    62    61    1
    60    70    69   ar
    61    76    66   am
    62    97    95    1
    63    30    33    1
    64    30    31    1
    65    96    95    1
    66    95    94    1
    67    75    74    1
    68    78    79    2
    69    74    73   ar
    70    63    61    1
    71    93    92    2
    72    61    60    2
    73    69    68    1
    74    69    71   ar
    75    92    91    1
    76    68    65    1
    77    33    34    1
    78    31    32    2
    79    31    37   am
    80    66    65    1
    81    66    67    2
    82    73    71   ar
    83    94    91    1
    84    65    64    1
    85    37    38    1
    86    60    59    1
    87    91    90    1
    88    41    38    1
    89    35    34    1
    90    34    36    1
    91    59    58    1
    92    52    51   ar
    93    52    50   ar
    94    38    39    1
    95    51    49   ar
    96    88    87   ar
    97    50    48   ar
    98    58    57    1
    99    89    87   ar
   100    87    86    1
   101    39    40    2
   102    49    47   ar
   103    57    54    1
   104    48    47   ar
   105    86    83    1
   106    83    82    1
   107    83    84    1
   108    47    46    1
   109    54    53    1
   110    54    55    1
   111    84    85    2
   112    55    56    2
   113    46    43    1
   114    42    43    1
   115    43    44    1
   116    44    45    2
