@<TRIPOS>MOLECULE
tmp/5dmgA00.pdb
 160 157 0 0 0
SMALL
GASTEIGER

@<TRIPOS>ATOM
      1  N        -16.4400   62.9820  -12.3060 N.3    26  PHE26      -0.1241
      2  CA       -17.4270   63.5920  -11.4130 C.3    26  PHE26       0.1605
      3  C        -17.8640   62.5850  -10.3490 C.2    26  PHE26       0.2264
      4  O        -17.3610   61.4590  -10.3210 O.2    26  PHE26      -0.2867
      5  CB       -18.6200   64.1460  -12.2050 C.3    26  PHE26       0.0534
      6  CG       -19.4540   63.0900  -12.8830 C.ar   26  PHE26      -0.0203
      7  CD1      -20.6610   62.6740  -12.3260 C.ar   26  PHE26      -0.0042
      8  CD2      -19.0390   62.5170  -14.0800 C.ar   26  PHE26      -0.0042
      9  CE1      -21.4350   61.7090  -12.9480 C.ar   26  PHE26      -0.0003
     10  CE2      -19.8100   61.5510  -14.7080 C.ar   26  PHE26      -0.0003
     11  CZ       -21.0080   61.1480  -14.1410 C.ar   26  PHE26      -0.0000
     12  N        -22.0050   61.0840   -5.5030 N.3    29  SER29      -0.1202
     13  CA       -22.5420   61.6750   -4.2840 C.3    29  SER29       0.2020
     14  C        -23.3490   62.9470   -4.5640 C.2    29  SER29       0.2619
     15  O        -24.2630   63.2850   -3.8090 O.2    29  SER29      -0.2717
     16  CB       -21.4000   61.9870   -3.3190 C.3    29  SER29       0.2103
     17  OG       -20.4570   60.9290   -3.3140 O.3    29  SER29      -0.2182
     18  N        -23.0040   63.6480   -5.6430 N.am   30  SER30      -0.1937
     19  CA       -23.7100   64.8660   -6.0390 C.3    30  SER30       0.2055
     20  C        -24.4930   64.7130   -7.3530 C.2    30  SER30       0.2643
     21  O        -25.2210   65.6280   -7.7460 O.2    30  SER30      -0.2714
     22  CB       -22.7170   66.0300   -6.1440 C.3    30  SER30       0.2130
     23  OG       -21.5900   65.6840   -6.9340 O.3    30  SER30      -0.2179
     24  N        -24.3730   63.5600   -8.0120 N.am   31  ASN31      -0.1957
     25  CA       -24.9970   63.3580   -9.3160 C.3    31  ASN31       0.1819
     26  C        -25.8650   62.0990   -9.3880 C.2    31  ASN31       0.2621
     27  O        -25.5750   61.0940   -8.7390 O.2    31  ASN31      -0.2715
     28  CB       -23.9200   63.3090  -10.4030 C.3    31  ASN31       0.1195
     29  CG       -23.1120   64.5970  -10.4890 C.2    31  ASN31       0.2630
     30  OD1      -23.3160   65.4050  -11.3960 O.2    31  ASN31      -0.2716
     31  ND2      -22.1900   64.7930   -9.5480 N.am   31  ASN31      -0.0877
     32  N        -26.9300   62.1690  -10.1850 N.am   32  ALA32      -0.1977
     33  CA       -27.8090   61.0290  -10.4340 C.3    32  ALA32       0.1597
     34  C        -27.4010   60.3610  -11.7450 C.2    32  ALA32       0.2287
     35  O        -26.7430   60.9920  -12.5730 O.2    32  ALA32      -0.2864
     36  CB       -29.2520   61.4910  -10.5090 C.3    32  ALA32       0.0319
     37  N        -28.9220   57.7080  -14.9980 N.3    34  ASN34      -0.1240
     38  CA       -30.0710   57.1070  -15.6700 C.3    34  ASN34       0.1653
     39  C        -29.6670   55.9650  -16.5910 C.2    34  ASN34       0.2266
     40  O        -28.5970   55.9920  -17.1940 O.2    34  ASN34      -0.2867
     41  CB       -30.7980   58.1430  -16.5290 C.3    34  ASN34       0.1155
     42  CG       -31.4200   59.2580  -15.7200 C.2    34  ASN34       0.2627
     43  OD1      -32.6370   59.2700  -15.5040 O.2    34  ASN34      -0.2716
     44  ND2      -30.6020   60.2160  -15.2900 N.am   34  ASN34      -0.0877
     45  N        -30.9320   54.1320  -20.0530 N.3    36  VAL36      -0.1245
     46  CA       -31.7580   54.2960  -21.2410 C.3    36  VAL36       0.1561
     47  C        -31.3990   53.1640  -22.1860 C.2    36  VAL36       0.2260
     48  O        -30.2830   52.6460  -22.1380 O.2    36  VAL36      -0.2867
     49  CB       -31.5040   55.6660  -21.9110 C.3    36  VAL36       0.0252
     50  CG1      -32.3620   55.8420  -23.1530 C.3    36  VAL36       0.0019
     51  CG2      -31.7820   56.8090  -20.9330 C.3    36  VAL36       0.0019
     52  N        -36.7040   55.2000  -21.6810 N.3    46  TRP46      -0.1241
     53  CA       -36.2050   55.4110  -20.3350 C.3    46  TRP46       0.1605
     54  C        -36.5640   54.2070  -19.4720 C.2    46  TRP46       0.2264
     55  O        -37.7170   53.7770  -19.4430 O.2    46  TRP46      -0.2867
     56  CB       -36.8060   56.6840  -19.7470 C.3    46  TRP46       0.0550
     57  CG       -36.2760   57.0600  -18.3910 C.ar   46  TRP46       0.0003
     58  CD1      -35.0780   57.6540  -18.1100 C.ar   46  TRP46       0.0946
     59  CD2      -36.9420   56.8910  -17.1360 C.ar   46  TRP46       0.0152
     60  NE1      -34.9560   57.8570  -16.7600 N.ar   46  TRP46      -0.2442
     61  CE2      -36.0850   57.3950  -16.1380 C.ar   46  TRP46       0.0810
     62  CE3      -38.1820   56.3580  -16.7550 C.ar   46  TRP46       0.0012
     63  CZ2      -36.4280   57.3890  -14.7910 C.ar   46  TRP46       0.0191
     64  CZ3      -38.5190   56.3520  -15.4070 C.ar   46  TRP46       0.0001
     65  CH2      -37.6450   56.8630  -14.4450 C.ar   46  TRP46       0.0015
     66  N        -33.8010   55.5630  -12.9870 N.3    49  TYR49      -0.1241
     67  CA       -32.6070   56.2480  -12.4720 C.3    49  TYR49       0.1605
     68  C        -32.3950   55.9670  -10.9990 C.2    49  TYR49       0.2264
     69  O        -33.2390   55.3660  -10.3380 O.2    49  TYR49      -0.2867
     70  CB       -32.6750   57.7630  -12.7120 C.3    49  TYR49       0.0534
     71  CG       -33.4490   58.5770  -11.6880 C.ar   49  TYR49      -0.0201
     72  CD1      -34.8320   58.6540  -11.7390 C.ar   49  TYR49      -0.0009
     73  CD2      -32.7920   59.3130  -10.6970 C.ar   49  TYR49      -0.0009
     74  CE1      -35.5490   59.4130  -10.8310 C.ar   49  TYR49       0.0417
     75  CE2      -33.5040   60.0820   -9.7800 C.ar   49  TYR49       0.0417
     76  CZ       -34.8860   60.1230   -9.8530 C.ar   49  TYR49       0.1957
     77  OH       -35.6270   60.8640   -8.9580 O.3    49  TYR49      -0.2866
     78  N        -31.2300   58.3020   -7.6960 N.3    51  ALA51      -0.1231
     79  CA       -30.9320   59.6300   -7.1890 C.3    51  ALA51       0.1694
     80  C        -29.6180   59.6140   -6.4250 C.2    51  ALA51       0.2592
     81  O        -29.0410   58.5500   -6.1800 O.2    51  ALA51      -0.2718
     82  CB       -32.0580   60.1140   -6.2900 C.3    51  ALA51       0.0304
     83  N        -29.1400   60.8000   -6.0640 N.am   52  VAL52      -0.1966
     84  CA       -27.9810   60.9190   -5.1800 C.3    52  VAL52       0.1727
     85  C        -28.2430   60.2260   -3.8330 C.2    52  VAL52       0.2616
     86  O        -27.3500   59.5820   -3.2800 O.2    52  VAL52      -0.2715
     87  CB       -27.5650   62.3910   -4.9520 C.3    52  VAL52       0.0290
     88  CG1      -27.1370   63.0310   -6.2660 C.3    52  VAL52       0.0023
     89  CG2      -28.6850   63.1920   -4.3020 C.3    52  VAL52       0.0023
     90  N        -29.4730   60.3320   -3.3290 N.am   53  SER53      -0.1950
     91  CA       -29.8580   59.6790   -2.0750 C.3    53  SER53       0.1924
     92  C        -29.6840   58.1590   -2.1280 C.2    53  SER53       0.2314
     93  O        -29.3700   57.5370   -1.1160 O.2    53  SER53      -0.2863
     94  CB       -31.3080   60.0280   -1.6980 C.3    53  SER53       0.2116
     95  OG       -32.2350   59.4250   -2.5830 O.3    53  SER53      -0.2180
     96  N        -32.2060   56.3970   -3.6960 N.3    55  ASN55      -0.1240
     97  CA       -33.5530   56.0730   -4.1580 C.3    55  ASN55       0.1653
     98  C        -33.6080   55.7780   -5.6520 C.2    55  ASN55       0.2266
     99  O        -33.1540   56.5850   -6.4710 O.2    55  ASN55      -0.2867
    100  CB       -34.5150   57.2250   -3.8640 C.3    55  ASN55       0.1155
    101  CG       -34.9760   57.2480   -2.4270 C.2    55  ASN55       0.2627
    102  OD1      -35.3810   56.2230   -1.8770 O.2    55  ASN55      -0.2716
    103  ND2      -34.9380   58.4230   -1.8130 N.am   55  ASN55      -0.0877
    104  N        -35.8790   54.8920   -9.1300 N.3    57  TYR57      -0.1241
    105  CA       -37.1810   55.0670   -9.7770 C.3    57  TYR57       0.1605
    106  C        -37.1720   54.3490  -11.1230 C.2    57  TYR57       0.2264
    107  O        -36.1460   54.3290  -11.7960 O.2    57  TYR57      -0.2867
    108  CB       -37.4870   56.5460   -9.9800 C.3    57  TYR57       0.0534
    109  CG       -37.6590   57.3470   -8.7030 C.ar   57  TYR57      -0.0201
    110  CD1      -38.9310   57.6290   -8.1950 C.ar   57  TYR57      -0.0009
    111  CD2      -36.5530   57.8510   -8.0170 C.ar   57  TYR57      -0.0009
    112  CE1      -39.0910   58.3810   -7.0380 C.ar   57  TYR57       0.0417
    113  CE2      -36.7050   58.5980   -6.8590 C.ar   57  TYR57       0.0417
    114  CZ       -37.9730   58.8610   -6.3700 C.ar   57  TYR57       0.1957
    115  OH       -38.1200   59.6040   -5.2130 O.3    57  TYR57      -0.2866
    116  N        -26.5620   61.0190  -17.6470 N.3    94  LYS94      -0.1231
    117  CA       -27.5150   62.0490  -17.2980 C.3    94  LYS94       0.1693
    118  C        -27.2340   63.2830  -18.1250 C.2    94  LYS94       0.2593
    119  O        -26.0980   63.5280  -18.4880 O.2    94  LYS94      -0.2718
    120  CB       -27.4050   62.3850  -15.8160 C.3    94  LYS94       0.0285
    121  CG       -26.0150   62.7910  -15.3740 C.3    94  LYS94       0.0035
    122  CD       -26.0690   63.7030  -14.1620 C.3    94  LYS94       0.0206
    123  CE       -24.8510   64.6010  -14.0920 C.3    94  LYS94       0.1093
    124  NZ       -25.1750   65.9450  -13.5460 N.3    94  LYS94      -0.1314
    125  N        -28.2600   64.0640  -18.4310 N.am   95  SER95      -0.1938
    126  CA       -28.0380   65.3890  -18.9810 C.3    95  SER95       0.2055
    127  C        -27.1280   65.3350  -20.2030 C.2    95  SER95       0.2643
    128  O        -27.4240   64.6750  -21.1850 O.2    95  SER95      -0.2714
    129  CB       -27.5280   66.3550  -17.9080 C.3    95  SER95       0.2130
    130  OG       -26.1210   66.3670  -17.8300 O.3    95  SER95      -0.2179
    131  N        -26.0290   66.0670  -20.1110 N.am   96  ASN96      -0.1957
    132  CA       -24.9750   66.1260  -21.1110 C.3    96  ASN96       0.1819
    133  C        -24.3020   64.7950  -21.3690 C.2    96  ASN96       0.2621
    134  O        -23.8530   64.5280  -22.4660 O.2    96  ASN96      -0.2715
    135  CB       -23.8740   67.0660  -20.6230 C.3    96  ASN96       0.1195
    136  CG       -24.0870   68.4970  -21.0390 C.2    96  ASN96       0.2630
    137  OD1      -23.4870   68.9700  -21.9960 O.2    96  ASN96      -0.2716
    138  ND2      -24.9200   69.2050  -20.3020 N.am   96  ASN96      -0.0877
    139  N        -24.1480   64.0010  -20.3230 N.am   97  ILE97      -0.1963
    140  CA       -23.1720   62.9130  -20.2940 C.3    97  ILE97       0.1727
    141  C        -23.8040   61.5670  -20.6030 C.2    97  ILE97       0.2616
    142  O        -24.6520   61.0930  -19.8580 O.2    97  ILE97      -0.2715
    143  CB       -22.4560   62.8220  -18.9260 C.3    97  ILE97       0.0290
    144  CG1      -21.9390   64.1980  -18.4800 C.3    97  ILE97       0.0022
    145  CG2      -21.3020   61.8320  -18.9970 C.3    97  ILE97       0.0023
    146  CD1      -22.7800   64.8530  -17.4070 C.3    97  ILE97       0.0001
    147  N        -23.3700   60.9580  -21.7030 N.am   98  TRP98      -0.1974
    148  CA       -23.8660   59.6500  -22.1190 C.3    98  TRP98       0.1640
    149  C        -22.7310   58.8440  -22.7330 C.2    98  TRP98       0.2290
    150  O        -21.9190   59.3710  -23.4840 O.2    98  TRP98      -0.2864
    151  CB       -25.0080   59.8070  -23.1290 C.3    98  TRP98       0.0576
    152  CG       -26.1440   60.6040  -22.5940 C.ar   98  TRP98       0.0006
    153  CD1      -26.3440   61.9480  -22.7300 C.ar   98  TRP98       0.0946
    154  CD2      -27.2200   60.1140  -21.7990 C.ar   98  TRP98       0.0152
    155  NE1      -27.4910   62.3230  -22.0790 N.ar   98  TRP98      -0.2442
    156  CE2      -28.0480   61.2150  -21.4950 C.ar   98  TRP98       0.0810
    157  CE3      -27.5690   58.8480  -21.3110 C.ar   98  TRP98       0.0012
    158  CZ2      -29.2100   61.0850  -20.7300 C.ar   98  TRP98       0.0191
    159  CZ3      -28.7170   58.7210  -20.5520 C.ar   98  TRP98       0.0001
    160  CH2      -29.5250   59.8360  -20.2680 C.ar   98  TRP98       0.0015
@<TRIPOS>BOND
     1   150   149    2
     2    50    49    1
     3   151   152    1
     4   151   148    1
     5   149   148    1
     6   153   152   ar
     7   153   155   ar
     8   152   154   ar
     9   134   133    2
    10    47    48    2
    11    47    46    1
    12   148   147    1
    13   155   156   ar
    14   137   136    2
    15    49    46    1
    16    49    51    1
    17   154   156   ar
    18   154   157   ar
    19   147   141   am
    20    52    53    1
    21   156   158   ar
    22   133   132    1
    23   133   139   am
    24   157   159   ar
    25    46    45    1
    26   128   127    2
    27   132   135    1
    28   132   131    1
    29   136   135    1
    30   136   138   am
    31   158   160   ar
    32   141   140    1
    33   141   142    2
    34   159   160   ar
    35    53    56    1
    36    53    54    1
    37   139   140    1
    38   140   143    1
    39   127   131   am
    40   127   126    1
    41    56    57    1
    42    54    55    2
    43   145   143    1
    44   126   125    1
    45   126   129    1
    46   143   144    1
    47   119   118    2
    48   144   146    1
    49   125   118   am
    50    57    58   ar
    51    57    59   ar
    52   118   117    1
    53    58    60   ar
    54   129   130    1
    55   116   117    1
    56   117   120    1
    57    40    39    2
    58    59    62   ar
    59    59    61   ar
    60    60    61   ar
    61    62    64   ar
    62    39    38    1
    63    41    42    1
    64    41    38    1
    65    61    63   ar
    66   120   121    1
    67    42    43    2
    68    42    44   am
    69    38    37    1
    70    64    65   ar
    71   121   122    1
    72    63    65   ar
    73    10    11   ar
    74    10     8   ar
    75   122   123    1
    76    11     9   ar
    77   123   124    1
    78     8     6   ar
    79    66    67    1
    80     9     7   ar
    81     6     7   ar
    82     6     5    1
    83    70    67    1
    84    70    71    1
    85    35    34    2
    86    67    68    1
    87     1     2    1
    88     5     2    1
    89   107   106    2
    90    34    33    1
    91    72    71   ar
    92    72    74   ar
    93    71    73   ar
    94     2     3    1
    95    30    29    2
    96   106   105    1
    97    68    69    2
    98    74    76   ar
    99    73    75   ar
   100    36    33    1
   101    29    28    1
   102    29    31   am
   103    33    32    1
   104    28    25    1
   105     3     4    2
   106    32    26   am
   107   108   105    1
   108   108   109    1
   109    76    75   ar
   110    76    77    1
   111   105   104    1
   112    26    25    1
   113    26    27    2
   114    25    24    1
   115   109   110   ar
   116   109   111   ar
   117   110   112   ar
   118   111   113   ar
   119    24    20   am
   120    21    20    2
   121    78    79    1
   122    20    19    1
   123    79    80    1
   124    79    82    1
   125   112   114   ar
   126    23    22    1
   127   113   114   ar
   128    99    98    2
   129    80    81    2
   130    80    83   am
   131   114   115    1
   132    88    87    1
   133    22    19    1
   134    83    84    1
   135    19    18    1
   136    98    97    1
   137    18    14   am
   138    12    13    1
   139    84    87    1
   140    84    85    1
   141    87    89    1
   142    14    13    1
   143    14    15    2
   144    13    16    1
   145    97   100    1
   146    97    96    1
   147   100   101    1
   148    85    90   am
   149    85    86    2
   150    90    91    1
   151    16    17    1
   152    95    94    1
   153   101   102    2
   154   101   103   am
   155    92    91    1
   156    92    93    2
   157    91    94    1
