@<TRIPOS>MOLECULE
tmp/5dmhA00.pdb
 187 177 0 0 0
SMALL
GASTEIGER

@<TRIPOS>ATOM
      1  N         24.2590   85.8350  118.1450 N.3    55  ARG55      -0.1245
      2  CA        25.0280   85.4550  119.3130 C.3    55  ARG55       0.1563
      3  C         26.5460   85.3800  119.0980 C.2    55  ARG55       0.2260
      4  O         27.3070   85.6400  120.0190 O.2    55  ARG55      -0.2867
      5  CB        24.5050   84.1110  119.8420 C.3    55  ARG55       0.0307
      6  CG        25.2880   83.5390  121.0280 C.3    55  ARG55       0.0489
      7  CD        24.6320   82.2200  121.4510 C.3    55  ARG55       0.2205
      8  NE        23.3630   82.5820  122.0570 N.pl3  55  ARG55      -0.0865
      9  CZ        22.4590   81.7390  122.5330 C.cat  55  ARG55       0.5346
     10  NH1       22.6310   80.4180  122.4400 N.pl3  55  ARG55       0.1354
     11  NH2       21.3590   82.2410  123.0750 N.pl3  55  ARG55       0.1354
     12  N         26.1250   82.8020  127.0410 N.3    90  ASP90      -0.1239
     13  CA        26.9500   82.4470  125.9020 C.3    90  ASP90       0.1674
     14  C         27.4980   83.6820  125.1830 C.2    90  ASP90       0.2266
     15  O         26.7530   84.4880  124.6370 O.2    90  ASP90      -0.2867
     16  CB        26.1710   81.5680  124.9130 C.3    90  ASP90       0.1410
     17  CG        25.6960   80.2710  125.5170 C.2    90  ASP90       0.3668
     18  OD1       25.4370   80.2510  126.7460 O.co2  90  ASP90      -0.2456
     19  OD2       25.5820   79.2520  124.7770 O.co2  90  ASP90      -0.2456
     20  N         31.6960   74.2070  125.4820 N.3   145  HIS145     -0.1227
     21  CA        30.8660   74.6260  124.3310 C.3   145  HIS145      0.1737
     22  C         31.7510   74.8390  123.0920 C.2   145  HIS145      0.2438
     23  O         32.8120   75.4270  123.1820 O.2   145  HIS145     -0.2733
     24  CB        30.0620   75.8810  124.6540 C.3   145  HIS145      0.0758
     25  CG        28.9820   76.1730  123.6610 C.ar  145  HIS145      0.0818
     26  ND1       29.2350   76.8350  122.4780 N.ar  145  HIS145     -0.2268
     27  CD2       27.6630   75.8640  123.6310 C.ar  145  HIS145      0.1154
     28  CE1       28.1260   76.9430  121.7820 C.ar  145  HIS145      0.1986
     29  NE2       27.1520   76.3610  122.4570 N.ar  145  HIS145     -0.2212
     30  N         31.3120   74.3680  121.9100 N.am  146  PRO146     -0.2718
     31  CA        32.1910   74.4540  120.7230 C.3   146  PRO146      0.1535
     32  C         32.5830   75.8680  120.2780 C.2   146  PRO146      0.2598
     33  O         33.6950   76.0690  119.7570 O.2   146  PRO146     -0.2715
     34  CB        31.3610   73.8060  119.6000 C.3   146  PRO146      0.0310
     35  CG        30.2040   73.1460  120.2670 C.3   146  PRO146      0.0237
     36  CD        30.0070   73.7580  121.6140 C.3   146  PRO146      0.0939
     37  N         31.6620   76.8050  120.4560 N.am  147  LEU147     -0.1978
     38  CA        31.8180   78.1920  120.0180 C.3   147  LEU147      0.1596
     39  C         32.1420   79.2220  121.0990 C.2   147  LEU147      0.2287
     40  O         32.9420   80.1310  120.8520 O.2   147  LEU147     -0.2864
     41  CB        30.5230   78.6360  119.3520 C.3   147  LEU147      0.0297
     42  CG        30.3240   78.4310  117.8540 C.3   147  LEU147      0.0022
     43  CD1       31.0730   77.2740  117.2990 C.3   147  LEU147      0.0001
     44  CD2       28.8260   78.3790  117.5120 C.3   147  LEU147      0.0001
     45  N         22.4010   69.9200  115.5730 N.3   255  GLY255     -0.1210
     46  CA        23.6920   70.5500  115.4430 C.3   255  GLY255      0.1956
     47  C         24.3160   70.9790  116.7620 C.2   255  GLY255      0.2613
     48  O         25.4580   71.4020  116.7790 O.2   255  GLY255     -0.2717
     49  N         23.5710   70.8770  117.8590 N.am  256  SER256     -0.1938
     50  CA        24.1290   71.0740  119.1970 C.3   256  SER256      0.2055
     51  C         25.0990   69.9470  119.5730 C.2   256  SER256      0.2643
     52  O         24.8520   68.7920  119.2590 O.2   256  SER256     -0.2714
     53  CB        22.9780   71.1370  120.2040 C.3   256  SER256      0.2130
     54  OG        23.4410   71.2770  121.5620 O.3   256  SER256     -0.2179
     55  N         26.1680   70.2890  120.2750 N.am  257  ALA257     -0.1963
     56  CA        27.1110   69.3210  120.8330 C.3   257  ALA257      0.1728
     57  C         26.9890   69.1610  122.3600 C.2   257  ALA257      0.2616
     58  O         27.9100   68.6590  123.0120 O.2   257  ALA257     -0.2715
     59  CB        28.5220   69.7420  120.5020 C.3   257  ALA257      0.0334
     60  N         25.8710   69.6020  122.9130 N.am  258  SER258     -0.1950
     61  CA        25.6900   69.6190  124.3560 C.3   258  SER258      0.1924
     62  C         25.5070   68.2190  124.8900 C.2   258  SER258      0.2314
     63  O         25.1940   67.2780  124.1550 O.2   258  SER258     -0.2863
     64  CB        24.4640   70.4290  124.7070 C.3   258  SER258      0.2116
     65  OG        23.3160   69.6880  124.3590 O.3   258  SER258     -0.2180
     66  N         31.9670   66.5750  109.7920 N.3   280  PRO280     -0.2116
     67  CA        32.4040   67.8920  109.3010 C.3   280  PRO280      0.1372
     68  C         33.6040   67.7940  108.3540 C.2   280  PRO280      0.2244
     69  O         33.7780   68.6140  107.4550 O.2   280  PRO280     -0.2868
     70  CB        32.7850   68.6290  110.5790 C.3   280  PRO280      0.0268
     71  CG        31.9610   67.9710  111.6520 C.3   280  PRO280      0.0207
     72  CD        31.9710   66.5180  111.2580 C.3   280  PRO280      0.0892
     73  N         25.1620   66.0500  113.7850 N.3   308  ALA308     -0.1231
     74  CA        26.5990   66.2360  113.8620 C.3   308  ALA308      0.1694
     75  C         27.0610   66.0860  115.3040 C.2   308  ALA308      0.2593
     76  O         28.2590   66.0280  115.5810 O.2   308  ALA308     -0.2718
     77  CB        26.9670   67.5950  113.3360 C.3   308  ALA308      0.0304
     78  N         26.0900   66.0710  116.2150 N.am  309  THR309     -0.1939
     79  CA        26.3140   65.8990  117.6550 C.3   309  THR309      0.2028
     80  C         27.4210   64.9160  117.9880 C.2   309  THR309      0.2642
     81  O         27.3790   63.7580  117.5700 O.2   309  THR309     -0.2714
     82  CB        24.9970   65.4760  118.3150 C.3   309  THR309      0.1808
     83  OG1       23.9490   66.3370  117.8480 O.3   309  THR309     -0.2208
     84  CG2       25.0790   65.5390  119.8450 C.3   309  THR309      0.0379
     85  N         28.4180   65.3900  118.7380 N.am  310  SER310     -0.1949
     86  CA        29.6550   64.6480  119.0140 C.3   310  SER310      0.1924
     87  C         30.1940   64.9760  120.4200 C.2   310  SER310      0.2314
     88  O         29.7990   65.9700  121.0150 O.2   310  SER310     -0.2863
     89  CB        30.7550   65.0340  118.0190 C.3   310  SER310      0.2116
     90  OG        30.3890   64.7610  116.6730 O.3   310  SER310     -0.2180
     91  N         34.7810   67.0390  118.7780 N.3   315  VAL315     -0.1245
     92  CA        34.6370   68.4140  118.3050 C.3   315  VAL315      0.1561
     93  C         36.0050   69.0930  118.2540 C.2   315  VAL315      0.2260
     94  O         36.3600   69.7380  117.2500 O.2   315  VAL315     -0.2867
     95  CB        33.6770   69.1960  119.2000 C.3   315  VAL315      0.0252
     96  CG1       33.7030   70.6800  118.8700 C.3   315  VAL315      0.0019
     97  CG2       32.2670   68.6460  119.0520 C.3   315  VAL315      0.0019
     98  N         37.9910   68.0110  115.2250 N.3   318  VAL318     -0.1231
     99  CA        37.5010   68.6020  113.9960 C.3   318  VAL318      0.1692
    100  C         37.9900   70.0580  113.9210 C.2   318  VAL318      0.2591
    101  O         38.4580   70.5340  112.8990 O.2   318  VAL318     -0.2718
    102  CB        35.9480   68.5730  113.9660 C.3   318  VAL318      0.0266
    103  CG1       35.4190   69.4620  112.8370 C.3   318  VAL318      0.0020
    104  CG2       35.4160   67.1400  113.8490 C.3   318  VAL318      0.0020
    105  N         37.8780   70.7650  115.0320 N.am  319  GLN319     -0.1979
    106  CA        38.2180   72.1710  115.0570 C.3   319  GLN319      0.1601
    107  C         39.7030   72.4100  114.8350 C.2   319  GLN319      0.2287
    108  O         40.0630   73.3730  114.1540 O.2   319  GLN319     -0.2864
    109  CB        37.7540   72.8130  116.3620 C.3   319  GLN319      0.0394
    110  CG        36.2270   72.8770  116.5230 C.3   319  GLN319      0.0908
    111  CD        35.8470   73.4850  117.8640 C.2   319  GLN319      0.2608
    112  OE1       36.5980   73.3450  118.8410 O.2   319  GLN319     -0.2717
    113  NE2       34.7040   74.1420  117.9330 N.am  319  GLN319     -0.0878
    114  N         37.4240   76.7320  114.2950 N.3   324  VAL324     -0.1245
    115  CA        36.1600   76.7050  115.0320 C.3   324  VAL324      0.1561
    116  C         34.9980   77.2430  114.2040 C.2   324  VAL324      0.2260
    117  O         33.9570   76.5940  114.0460 O.2   324  VAL324     -0.2867
    118  CB        36.3020   77.5100  116.3680 C.3   324  VAL324      0.0252
    119  CG1       34.9750   77.7160  117.0500 C.3   324  VAL324      0.0019
    120  CG2       37.3310   76.8160  117.3070 C.3   324  VAL324      0.0019
    121  N         34.2600   75.0380  110.8630 N.3   327  ALA327     -0.1231
    122  CA        33.5720   73.7760  111.1420 C.3   327  ALA327      0.1694
    123  C         32.1350   74.0010  111.5390 C.2   327  ALA327      0.2592
    124  O         31.2430   73.2840  111.1000 O.2   327  ALA327     -0.2718
    125  CB        34.3010   72.9770  112.2140 C.3   327  ALA327      0.0304
    126  N         31.9100   75.0040  112.3840 N.am  328  GLY328     -0.1957
    127  CA        30.5890   75.2590  112.9030 C.3   328  GLY328      0.1869
    128  C         29.6750   75.6590  111.7620 C.2   328  GLY328      0.2309
    129  O         28.5580   75.1860  111.6770 O.2   328  GLY328     -0.2863
    130  N         28.6810   72.7350  109.3080 N.3   331  VAL331     -0.1231
    131  CA        27.6330   71.9020  109.8690 C.3   331  VAL331      0.1692
    132  C         26.2620   72.5810  109.8180 C.2   331  VAL331      0.2591
    133  O         25.2790   71.9530  109.4400 O.2   331  VAL331     -0.2718
    134  CB        27.9600   71.4650  111.3020 C.3   331  VAL331      0.0266
    135  CG1       26.7210   70.7830  111.9710 C.3   331  VAL331      0.0020
    136  CG2       29.2160   70.5700  111.3200 C.3   331  VAL331      0.0020
    137  N         26.1980   73.8570  110.2170 N.am  332  GLU332     -0.1979
    138  CA        24.9810   74.6250  110.1620 C.3   332  GLU332      0.1602
    139  C         24.4300   74.6440  108.7430 C.2   332  GLU332      0.2287
    140  O         23.2360   74.4290  108.5450 O.2   332  GLU332     -0.2864
    141  CB        25.2270   76.0740  110.6520 C.3   332  GLU332      0.0415
    142  CG        25.4910   76.1920  112.1480 C.3   332  GLU332      0.1163
    143  CD        25.8610   77.5930  112.5890 C.2   332  GLU332      0.3649
    144  OE1       25.5170   78.5600  111.8660 O.co2 332  GLU332     -0.2457
    145  OE2       26.5360   77.7260  113.6440 O.co2 332  GLU332     -0.2457
    146  N         19.7200   72.9870  118.9060 N.3   354  GLY354     -0.1210
    147  CA        20.8050   73.9380  118.8320 C.3   354  GLY354      0.1956
    148  C         20.3380   75.3350  118.4180 C.2   354  GLY354      0.2612
    149  O         19.5230   75.5010  117.5090 O.2   354  GLY354     -0.2717
    150  N         20.8520   76.3410  119.1070 N.am  355  GLY355     -0.1942
    151  CA        20.5000   77.7370  118.8310 C.3   355  GLY355      0.2014
    152  C         20.9050   78.2530  117.4540 C.2   355  GLY355      0.2639
    153  O         20.0610   78.6740  116.6200 O.2   355  GLY355     -0.2714
    154  N         22.2100   78.2390  117.2030 N.am  356  GLU356     -0.1963
    155  CA        22.7370   78.6200  115.9000 C.3   356  GLU356      0.1733
    156  C         22.1790   77.6970  114.8370 C.2   356  GLU356      0.2617
    157  O         21.8950   78.1170  113.7160 O.2   356  GLU356     -0.2715
    158  CB        24.2610   78.5310  115.8750 C.3   356  GLU356      0.0429
    159  CG        24.9430   79.4160  116.8880 C.3   356  GLU356      0.1163
    160  CD        24.6780   80.8910  116.6740 C.2   356  GLU356      0.3649
    161  OE1       24.6250   81.3320  115.5120 O.co2 356  GLU356     -0.2457
    162  OE2       24.5150   81.5930  117.6770 O.co2 356  GLU356     -0.2457
    163  N         22.0550   76.4250  115.1850 N.am  357  THR357     -0.1951
    164  CA        21.5610   75.4630  114.2350 C.3   357  THR357      0.1897
    165  C         20.1470   75.8930  113.8010 C.2   357  THR357      0.2313
    166  O         19.8060   75.8710  112.6130 O.2   357  THR357     -0.2863
    167  CB        21.5630   74.0090  114.8000 C.3   357  THR357      0.1794
    168  OG1       22.8990   73.6230  115.1460 O.3   357  THR357     -0.2208
    169  CG2       21.0070   73.0140  113.7580 C.3   357  THR357      0.0378
    170  N         16.9010   74.8470  122.3530 N.3   397  SER397     -0.1202
    171  CA        18.2050   75.2380  122.8640 C.3   397  SER397      0.2020
    172  C         19.0030   74.0080  123.2670 C.2   397  SER397      0.2619
    173  O         18.4680   73.0530  123.8380 O.2   397  SER397     -0.2717
    174  CB        18.0410   76.1750  124.0530 C.3   397  SER397      0.2103
    175  OG        19.2710   76.8230  124.3260 O.3   397  SER397     -0.2182
    176  N         20.2930   74.0220  122.9660 N.am  398  GLY398     -0.1942
    177  CA        21.1090   72.8440  123.1180 C.3   398  GLY398      0.2014
    178  C         21.0380   72.1630  124.4730 C.2   398  GLY398      0.2638
    179  O         21.0060   70.9290  124.5590 O.2   398  GLY398     -0.2714
    180  N         21.0120   72.9500  125.5400 N.am  399  ASN399     -0.1972
    181  CA        21.0050   72.3890  126.8720 C.3   399  ASN399      0.1688
    182  C         19.6210   71.9240  127.3770 C.2   399  ASN399      0.2292
    183  O         19.5170   71.3750  128.4870 O.2   399  ASN399     -0.2864
    184  CB        21.5870   73.4150  127.8620 C.3   399  ASN399      0.1181
    185  CG        23.0740   73.6270  127.6840 C.2   399  ASN399      0.2629
    186  OD1       23.8360   72.6890  127.4680 O.2   399  ASN399     -0.2716
    187  ND2       23.4970   74.8650  127.8050 N.am  399  ASN399     -0.0877
@<TRIPOS>BOND
     1    69    68    2
     2    68    67    1
     3   140   139    2
     4   139   138    1
     5    67    66    1
     6    67    70    1
     7   130   131    1
     8   133   132    2
     9    66    72    1
    10   132   131    1
    11   132   137   am
    12   131   134    1
    13   138   137    1
    14   138   141    1
    15    70    71    1
    16   141   142    1
    17   121   122    1
    18   124   123    2
    19   122   123    1
    20   122   125    1
    21    72    71    1
    22   134   136    1
    23   134   135    1
    24   123   126   am
    25   129   128    2
    26   128   127    1
    27   144   143   ar
    28   142   143    1
    29   126   127    1
    30   143   145   ar
    31   166   165    2
    32   103   102    1
    33   101   100    2
    34    77    74    1
    35   157   156    2
    36   169   167    1
    37    73    74    1
    38   165   164    1
    39   104   102    1
    40    74    75    1
    41   100    99    1
    42   100   105   am
    43   102    99    1
    44    99    98    1
    45   117   116    2
    46   108   107    2
    47   116   115    1
    48   164   167    1
    49   164   163    1
    50   114   115    1
    51   167   168    1
    52   107   106    1
    53   156   163   am
    54   156   155    1
    55   105   106    1
    56   115   118    1
    57   106   109    1
    58    75    76    2
    59    75    78   am
    60    46    45    1
    61    46    47    1
    62   161   160   ar
    63   158   155    1
    64   158   159    1
    65   155   154    1
    66    78    79    1
    67   109   110    1
    68   118   119    1
    69   118   120    1
    70   110   111    1
    71   153   152    2
    72    90    89    1
    73   160   159    1
    74   160   162   ar
    75    47    48    2
    76    47    49   am
    77   154   152   am
    78    94    93    2
    79    43    42    1
    80   152   151    1
    81   149   148    2
    82    44    42    1
    83    81    80    2
    84    79    80    1
    85    79    82    1
    86    83    82    1
    87    42    41    1
    88    49    50    1
    89   111   113   am
    90   111   112    2
    91    80    85   am
    92    89    86    1
    93     1     2    1
    94    93    92    1
    95    92    91    1
    96    92    95    1
    97    82    84    1
    98   148   147    1
    99   148   150   am
   100    85    86    1
   101   151   150    1
   102   147   146    1
   103    96    95    1
   104    86    87    1
   105    97    95    1
   106     3     2    1
   107     3     4    2
   108    50    51    1
   109    50    53    1
   110    52    51    2
   111     2     5    1
   112    41    38    1
   113    51    55   am
   114    34    35    1
   115    34    31    1
   116    33    32    2
   117     5     6    1
   118    38    37    1
   119    38    39    1
   120    53    54    1
   121    35    36    1
   122    55    56    1
   123    32    37   am
   124    32    31    1
   125    87    88    2
   126    59    56    1
   127    31    30    1
   128    56    57    1
   129    40    39    2
   130     6     7    1
   131     7     8    1
   132    36    30    1
   133    28    29   ar
   134    28    26   ar
   135    30    22   am
   136     8     9    2
   137   170   171    1
   138    57    60   am
   139    57    58    2
   140    10     9    1
   141    29    27   ar
   142    26    25   ar
   143     9    11    1
   144   171   172    1
   145   171   174    1
   146    60    61    1
   147   176   177    1
   148   176   172   am
   149    22    23    2
   150    22    21    1
   151   177   178    1
   152   172   173    2
   153    27    25   ar
   154    25    24    1
   155   174   175    1
   156    63    62    2
   157    21    24    1
   158    21    20    1
   159    61    64    1
   160    61    62    1
   161    65    64    1
   162   178   179    2
   163   178   180   am
   164    15    14    2
   165    19    17   ar
   166    16    17    1
   167    16    13    1
   168    14    13    1
   169    17    18   ar
   170   180   181    1
   171    13    12    1
   172   181   182    1
   173   181   184    1
   174   182   183    2
   175   186   185    2
   176   185   187   am
   177   185   184    1
