@<TRIPOS>MOLECULE
tmp/5dmmA00.pdb
 118 112 0 0 0
SMALL
GASTEIGER

@<TRIPOS>ATOM
      1  N          4.9660   20.1450   18.6030 N.3    18  ALA18      -0.1245
      2  CA         5.1960   21.4130   17.9150 C.3    18  ALA18       0.1562
      3  C          4.8320   22.6350   18.7690 C.2    18  ALA18       0.2260
      4  O          3.8570   22.6390   19.5220 O.2    18  ALA18      -0.2867
      5  CB         4.4220   21.4420   16.5960 C.3    18  ALA18       0.0290
      6  N         11.6640   20.9060   24.0960 N.3    63  ILE63      -0.1231
      7  CA        12.6480   21.3080   23.0880 C.3    63  ILE63       0.1692
      8  C         12.5000   22.8060   22.8440 C.2    63  ILE63       0.2593
      9  O         11.4180   23.2650   22.5180 O.2    63  ILE63      -0.2718
     10  CB        12.4800   20.5310   21.7740 C.3    63  ILE63       0.0266
     11  CG1       12.6330   19.0310   22.0500 C.3    63  ILE63       0.0019
     12  CG2       13.5050   21.0050   20.7350 C.3    63  ILE63       0.0020
     13  CD1       12.3690   18.1160   20.8490 C.3    63  ILE63       0.0001
     14  N         13.5880   23.5560   23.0050 N.am   64  THR64      -0.1939
     15  CA        13.5130   25.0270   22.9680 C.3    64  THR64       0.2028
     16  C         13.1740   25.5570   21.5780 C.2    64  THR64       0.2642
     17  O         13.3380   24.8620   20.5690 O.2    64  THR64      -0.2714
     18  CB        14.8290   25.6690   23.4400 C.3    64  THR64       0.1808
     19  OG1       15.9090   25.2460   22.5910 O.3    64  THR64      -0.2208
     20  CG2       15.1270   25.2590   24.8770 C.3    64  THR64       0.0379
     21  N         12.6980   26.8030   21.5330 N.am   65  ALA65      -0.1977
     22  CA        12.3040   27.4230   20.2690 C.3    65  ALA65       0.1597
     23  C         13.4920   28.0260   19.5210 C.2    65  ALA65       0.2287
     24  O         13.4340   29.1840   19.1000 O.2    65  ALA65      -0.2864
     25  CB        11.2500   28.4990   20.5300 C.3    65  ALA65       0.0319
     26  N         15.2450   26.3940   16.8830 N.3    67  TYR67      -0.1241
     27  CA        15.4970   25.6480   15.6440 C.3    67  TYR67       0.1605
     28  C         16.0640   26.5080   14.5100 C.2    67  TYR67       0.2264
     29  O         16.9280   26.0560   13.7310 O.2    67  TYR67      -0.2867
     30  CB        14.1960   24.9940   15.1860 C.3    67  TYR67       0.0534
     31  CG        14.2980   24.2120   13.8950 C.ar   67  TYR67      -0.0201
     32  CD1       14.9540   22.9900   13.8550 C.ar   67  TYR67      -0.0009
     33  CD2       13.7220   24.6940   12.7220 C.ar   67  TYR67      -0.0009
     34  CE1       15.0410   22.2670   12.6840 C.ar   67  TYR67       0.0417
     35  CE2       13.8020   23.9780   11.5450 C.ar   67  TYR67       0.0417
     36  CZ        14.4550   22.7610   11.5340 C.ar   67  TYR67       0.1957
     37  OH        14.5410   22.0430   10.3640 O.3    67  TYR67      -0.2866
     38  N         17.2700   23.1860   21.0060 N.3   117  SER117     -0.1217
     39  CA        17.1180   22.8280   19.6010 C.3   117  SER117      0.1889
     40  C         18.2450   23.3870   18.7310 C.2   117  SER117      0.2288
     41  O         18.5080   24.6040   18.7150 O.2   117  SER117     -0.2866
     42  CB        15.7900   23.3190   19.0520 C.3   117  SER117      0.2089
     43  OG        15.7880   23.1210   17.6560 O.3   117  SER117     -0.2183
     44  N         16.2380   21.3490    4.4930 N.3   130  GLU130     -0.1231
     45  CA        16.4460   20.4560    5.6260 C.3   130  GLU130      0.1699
     46  C         15.9200   19.0550    5.3160 C.2   130  GLU130      0.2592
     47  O         16.0160   18.1460    6.1500 O.2   130  GLU130     -0.2718
     48  CB        15.7810   21.0070    6.8850 C.3   130  GLU130      0.0402
     49  CG        14.2990   21.2430    6.7500 C.3   130  GLU130      0.1161
     50  CD        13.9510   22.7100    6.8120 C.2   130  GLU130      0.3649
     51  OE1       14.1150   23.3980    5.7830 O.co2 130  GLU130     -0.2457
     52  OE2       13.5210   23.1730    7.8930 O.co2 130  GLU130     -0.2457
     53  N         15.3810   18.8920    4.1080 N.am  131  TYR131     -0.1976
     54  CA        14.8420   17.6180    3.6510 C.3   131  TYR131      0.1639
     55  C         15.5610   17.0930    2.4130 C.2   131  TYR131      0.2290
     56  O         15.3230   15.9610    1.9930 O.2   131  TYR131     -0.2864
     57  CB        13.3450   17.7440    3.3550 C.3   131  TYR131      0.0560
     58  CG        12.5530   18.3540    4.4840 C.ar  131  TYR131     -0.0198
     59  CD1       12.3390   17.6530    5.6620 C.ar  131  TYR131     -0.0009
     60  CD2       12.0230   19.6340    4.3740 C.ar  131  TYR131     -0.0009
     61  CE1       11.6210   18.2070    6.6980 C.ar  131  TYR131      0.0417
     62  CE2       11.3000   20.1960    5.4060 C.ar  131  TYR131      0.0417
     63  CZ        11.1050   19.4780    6.5670 C.ar  131  TYR131      0.1957
     64  OH        10.3870   20.0330    7.6000 O.3   131  TYR131     -0.2866
     65  N         18.7060   18.2620   15.3360 N.3   164  GLU164     -0.1231
     66  CA        17.5300   17.6270   14.7410 C.3   164  GLU164      0.1699
     67  C         17.2430   18.0290   13.3020 C.2   164  GLU164      0.2592
     68  O         17.7210   19.0610   12.8210 O.2   164  GLU164     -0.2718
     69  CB        16.3070   17.9480   15.5920 C.3   164  GLU164      0.0402
     70  CG        16.0180   19.4590   15.6720 C.3   164  GLU164      0.1161
     71  CD        14.8270   19.7870   16.5520 C.2   164  GLU164      0.3649
     72  OE1       14.1350   18.8470   17.0010 O.co2 164  GLU164     -0.2457
     73  OE2       14.5810   20.9950   16.7910 O.co2 164  GLU164     -0.2457
     74  N         16.4280   17.2170   12.6300 N.am  165  THR165     -0.1953
     75  CA        16.0230   17.4670   11.2490 C.3   165  THR165      0.1897
     76  C         17.2540   17.5610   10.3270 C.2   165  THR165      0.2313
     77  O         17.2640   18.3120    9.3480 O.2   165  THR165     -0.2863
     78  CB        15.1720   18.7720   11.1350 C.3   165  THR165      0.1794
     79  OG1       14.3850   18.9410   12.3210 O.3   165  THR165     -0.2208
     80  CG2       14.2440   18.7310    9.9260 C.3   165  THR165      0.0378
     81  N         13.1340   12.5160   12.9030 N.3   224  ASN224     -0.1225
     82  CA        12.0430   13.4390   13.1850 C.3   224  ASN224      0.1785
     83  C         11.6240   14.1680   11.9200 C.2   224  ASN224      0.2597
     84  O         12.3410   14.1440   10.9190 O.2   224  ASN224     -0.2718
     85  CB        12.4400   14.4440   14.2790 C.3   224  ASN224      0.1169
     86  CG        13.4700   15.4650   13.7970 C.2   224  ASN224      0.2627
     87  OD1       14.6430   15.1370   13.5960 O.2   224  ASN224     -0.2716
     88  ND2       13.0340   16.7190   13.6340 N.am  224  ASN224     -0.0877
     89  N         10.4630   14.8070   11.9750 N.am  225  CYS225     -0.1970
     90  CA         9.9320   15.5600   10.8430 C.3   225  CYS225      0.1712
     91  C          9.7730   14.6580    9.6260 C.2   225  CYS225      0.2296
     92  O         10.0850   15.0340    8.5040 O.2   225  CYS225     -0.2864
     93  CB        10.8330   16.7550   10.5290 C.3   225  CYS225      0.0983
     94  SG         9.9750   18.0840    9.6400 S.3   225  CYS225     -0.0798
     95  N         10.1740   11.4370   16.6200 N.3   249  TYR249     -0.1241
     96  CA         9.0700   12.3690   16.7170 C.3   249  TYR249      0.1605
     97  C          8.6470   12.8220   15.3260 C.2   249  TYR249      0.2264
     98  O          9.2610   13.7090   14.7280 O.2   249  TYR249     -0.2867
     99  CB         9.3910   13.5650   17.6350 C.3   249  TYR249      0.0534
    100  CG        10.7420   14.2750   17.5640 C.ar  249  TYR249     -0.0201
    101  CD1       10.8070   15.6300   17.2490 C.ar  249  TYR249     -0.0009
    102  CD2       11.9270   13.6320   17.9180 C.ar  249  TYR249     -0.0009
    103  CE1       12.0210   16.3200   17.2310 C.ar  249  TYR249      0.0417
    104  CE2       13.1490   14.3110   17.8960 C.ar  249  TYR249      0.0417
    105  CZ        13.1850   15.6540   17.5590 C.ar  249  TYR249      0.1957
    106  OH        14.3830   16.3370   17.5330 O.3   249  TYR249     -0.2866
    107  N          6.3940   16.0780   15.9780 N.3   273  CYS273     -0.1221
    108  CA         6.9800   17.1780   15.2260 C.3   273  CYS273      0.1808
    109  C          5.8510   18.0350   14.6220 C.2   273  CYS273      0.2601
    110  O          4.9170   18.4190   15.3310 O.2   273  CYS273     -0.2717
    111  CB         7.9350   16.6390   14.1500 C.3   273  CYS273      0.0970
    112  SG         9.3800   17.6980   13.7740 S.3   273  CYS273     -0.0800
    113  N          5.9170   18.3040   13.3240 N.am  274  CYS274     -0.1970
    114  CA         5.0240   19.2810   12.6870 C.3   274  CYS274      0.1712
    115  C          3.5520   18.9410   12.8380 C.2   274  CYS274      0.2296
    116  O          3.1350   17.8010   12.6220 O.2   274  CYS274     -0.2864
    117  CB         5.3600   19.4280   11.1990 C.3   274  CYS274      0.0983
    118  SG         6.8490   20.4040   10.8450 S.3   274  CYS274     -0.0798
@<TRIPOS>BOND
     1    56    55    2
     2    55    54    1
     3    57    54    1
     4    57    58    1
     5    54    53    1
     6    53    46   am
     7    60    58   ar
     8    60    62   ar
     9    58    59   ar
    10    44    45    1
    11    46    45    1
    12    46    47    2
    13    62    63   ar
    14    45    48    1
    15    59    61   ar
    16    51    50   ar
    17    63    61   ar
    18    63    64    1
    19    49    50    1
    20    49    48    1
    21    50    52   ar
    22    92    91    2
    23    77    76    2
    24    91    90    1
    25    94    93    1
    26    80    78    1
    27    76    75    1
    28    37    36    1
    29    93    90    1
    30    90    89    1
    31   118   117    1
    32    84    83    2
    33    78    75    1
    34    78    79    1
    35   117   114    1
    36    75    74    1
    37    36    35   ar
    38    36    34   ar
    39    35    33   ar
    40    83    89   am
    41    83    82    1
    42   116   115    2
    43    74    67   am
    44    34    32   ar
    45   114   115    1
    46   114   113    1
    47    33    31   ar
    48    68    67    2
    49    81    82    1
    50    82    85    1
    51    67    66    1
    52   113   109   am
    53    87    86    2
    54    88    86   am
    55    29    28    2
    56   112   111    1
    57    86    85    1
    58    32    31   ar
    59    31    30    1
    60   111   108    1
    61    28    27    1
    62   109   108    1
    63   109   110    2
    64    98    97    2
    65    66    65    1
    66    66    69    1
    67    30    27    1
    68   108   107    1
    69    97    96    1
    70    69    70    1
    71    27    26    1
    72    70    71    1
    73    71    73   ar
    74    71    72   ar
    75     5     2    1
    76    95    96    1
    77    96    99    1
    78   103   101   ar
    79   103   105   ar
    80   101   100   ar
    81   106   105    1
    82   105   104   ar
    83   100    99    1
    84   100   102   ar
    85    43    42    1
    86   104   102   ar
    87     2     1    1
    88     2     3    1
    89    41    40    2
    90    40    39    1
    91     3     4    2
    92    42    39    1
    93    24    23    2
    94    23    22    1
    95    39    38    1
    96    22    25    1
    97    22    21    1
    98    17    16    2
    99    12    10    1
   100    13    11    1
   101    21    16   am
   102    16    15    1
   103    10    11    1
   104    10     7    1
   105     9     8    2
   106    19    18    1
   107     8    14   am
   108     8     7    1
   109    15    14    1
   110    15    18    1
   111     7     6    1
   112    18    20    1
