@<TRIPOS>MOLECULE
tmp/5dmzB00.pdb
 183 172 0 0 0
SMALL
GASTEIGER

@<TRIPOS>ATOM
      1  N        -18.5590   25.1980  -15.1950 N.3    59  LEU59      -0.1231
      2  CA       -19.6180   24.1990  -15.1410 C.3    59  LEU59       0.1693
      3  C        -20.5930   24.4980  -14.0090 C.2    59  LEU59       0.2593
      4  O        -21.8060   24.3410  -14.1590 O.2    59  LEU59      -0.2718
      5  CB       -19.0260   22.8000  -14.9700 C.3    59  LEU59       0.0284
      6  CG       -18.1920   22.3020  -16.1520 C.3    59  LEU59       0.0019
      7  CD1      -17.4580   21.0270  -15.7810 C.3    59  LEU59       0.0001
      8  CD2      -19.0770   22.0800  -17.3690 C.3    59  LEU59       0.0001
      9  N        -20.0590   24.9300  -12.8740 N.am   60  GLY60      -0.1942
     10  CA       -20.8930   25.2210  -11.7250 C.3    60  GLY60       0.2014
     11  C        -20.1780   25.9530  -10.6110 C.2    60  GLY60       0.2639
     12  O        -18.9480   25.9650  -10.5400 O.2    60  GLY60      -0.2714
     13  N        -20.9740   26.5570   -9.7350 N.am   61  GLU61      -0.1963
     14  CA       -20.4680   27.3100   -8.5990 C.3    61  GLU61       0.1733
     15  C        -21.1370   26.8410   -7.3150 C.2    61  GLU61       0.2617
     16  O        -22.3070   26.4530   -7.3120 O.2    61  GLU61      -0.2715
     17  CB       -20.7070   28.8050   -8.8020 C.3    61  GLU61       0.0429
     18  CG       -20.1080   29.6750   -7.7190 C.3    61  GLU61       0.1163
     19  CD       -19.7930   31.0730   -8.2090 C.2    61  GLU61       0.3649
     20  OE1      -20.3770   31.4970   -9.2310 O.co2  61  GLU61      -0.2457
     21  OE2      -18.9540   31.7460   -7.5750 O.co2  61  GLU61      -0.2457
     22  N        -20.3780   26.8710   -6.2280 N.am   62  GLY62      -0.1940
     23  CA       -20.9030   26.5380   -4.9200 C.3    62  GLY62       0.2014
     24  C        -20.5250   27.6110   -3.9250 C.2    62  GLY62       0.2639
     25  O        -19.8950   28.6080   -4.2830 O.2    62  GLY62      -0.2714
     26  N        -20.9090   27.4080   -2.6710 N.am   63  ALA63      -0.1963
     27  CA       -20.5910   28.3580   -1.6190 C.3    63  ALA63       0.1728
     28  C        -19.0970   28.3380   -1.3150 C.2    63  ALA63       0.2616
     29  O        -18.5540   29.3200   -0.8130 O.2    63  ALA63      -0.2715
     30  CB       -21.4020   28.0510   -0.3630 C.3    63  ALA63       0.0334
     31  N        -18.4370   27.2290   -1.6440 N.am   64  PHE64      -0.1960
     32  CA       -17.0300   27.0350   -1.3030 C.3    64  PHE64       0.1771
     33  C        -16.1150   27.1210   -2.5160 C.2    64  PHE64       0.2619
     34  O        -14.9900   27.6080   -2.4060 O.2    64  PHE64      -0.2715
     35  CB       -16.8360   25.6790   -0.6190 C.3    64  PHE64       0.0574
     36  CG       -17.6180   25.5290    0.6560 C.ar   64  PHE64      -0.0200
     37  CD1      -18.9530   25.1590    0.6280 C.ar   64  PHE64      -0.0042
     38  CD2      -17.0190   25.7640    1.8810 C.ar   64  PHE64      -0.0042
     39  CE1      -19.6740   25.0270    1.7990 C.ar   64  PHE64      -0.0003
     40  CE2      -17.7340   25.6330    3.0540 C.ar   64  PHE64      -0.0003
     41  CZ       -19.0630   25.2640    3.0140 C.ar   64  PHE64      -0.0000
     42  N        -16.6000   26.6640   -3.6680 N.am   65  ALA65      -0.1977
     43  CA       -15.7370   26.4710   -4.8310 C.3    65  ALA65       0.1597
     44  C        -16.4010   26.7890   -6.1670 C.2    65  ALA65       0.2287
     45  O        -17.6270   26.8100   -6.2940 O.2    65  ALA65      -0.2864
     46  CB       -15.2260   25.0390   -4.8500 C.3    65  ALA65       0.0319
     47  N        -16.1220   25.4390  -10.2650 N.3    67  VAL67      -0.1245
     48  CA       -15.6720   24.2790  -11.0340 C.3    67  VAL67       0.1561
     49  C        -15.6380   24.5900  -12.5270 C.2    67  VAL67       0.2260
     50  O        -16.6580   24.9390  -13.1210 O.2    67  VAL67      -0.2867
     51  CB       -16.5720   23.0540  -10.7910 C.3    67  VAL67       0.0252
     52  CG1      -15.9660   21.8150  -11.4380 C.3    67  VAL67       0.0019
     53  CG2      -16.7670   22.8350   -9.2980 C.3    67  VAL67       0.0019
     54  N        -12.3140   18.3380  -14.8910 N.3    76  VAL76      -0.1245
     55  CA       -12.7730   19.5190  -14.1720 C.3    76  VAL76       0.1561
     56  C        -11.7560   19.9790  -13.1420 C.2    76  VAL76       0.2260
     57  O        -11.0090   19.1700  -12.5910 O.2    76  VAL76      -0.2867
     58  CB       -14.1140   19.2650  -13.4510 C.3    76  VAL76       0.0252
     59  CG1      -15.1640   18.7830  -14.4360 C.3    76  VAL76       0.0019
     60  CG2      -13.9390   18.2640  -12.3110 C.3    76  VAL76       0.0019
     61  N        -11.6910   21.8800   -9.5500 N.3    78  LYS78      -0.1245
     62  CA       -12.3530   22.4490   -8.3910 C.3    78  LYS78       0.1561
     63  C        -11.3940   23.3960   -7.6940 C.2    78  LYS78       0.2260
     64  O        -10.3770   22.9660   -7.1480 O.2    78  LYS78      -0.2867
     65  CB       -12.8120   21.3580   -7.4310 C.3    78  LYS78       0.0271
     66  CG       -13.8940   21.8180   -6.4880 C.3    78  LYS78       0.0035
     67  CD       -14.2680   20.7290   -5.5120 C.3    78  LYS78       0.0206
     68  CE       -15.2810   21.2270   -4.5110 C.3    78  LYS78       0.1093
     69  NZ       -16.6350   21.2060   -5.0930 N.3    78  LYS78      -0.1314
     70  N        -17.3390   10.8780   -7.6310 N.3   107  MET107     -0.1245
     71  CA       -16.3510   11.6090   -8.3970 C.3   107  MET107      0.1570
     72  C        -14.9550   11.1780   -8.0050 C.2   107  MET107      0.2261
     73  O        -14.6340   11.0470   -6.8240 O.2   107  MET107     -0.2867
     74  CB       -16.5110   13.1120   -8.1980 C.3   107  MET107      0.0387
     75  CG       -15.4760   13.9340   -8.9380 C.3   107  MET107      0.0595
     76  SD       -15.7060   15.6980   -8.6940 S.3   107  MET107     -0.1393
     77  CE       -14.2640   16.3280   -9.5350 C.3   107  MET107      0.0692
     78  N        -12.6840   13.8670  -12.2800 N.3   124  GLU124     -0.1231
     79  CA       -13.5010   13.3460  -13.3660 C.3   124  GLU124      0.1699
     80  C        -14.5810   14.3530  -13.7420 C.2   124  GLU124      0.2592
     81  O        -14.9690   15.1710  -12.9200 O.2   124  GLU124     -0.2718
     82  CB       -14.1260   12.0120  -12.9490 C.3   124  GLU124      0.0402
     83  CG       -14.8900   11.2930  -14.0450 C.3   124  GLU124      0.1161
     84  CD       -15.3550    9.9100  -13.6190 C.2   124  GLU124      0.3649
     85  OE1      -15.3930    9.6390  -12.3980 O.co2 124  GLU124     -0.2457
     86  OE2      -15.6780    9.0930  -14.5080 O.co2 124  GLU124     -0.2457
     87  N        -15.0480   14.2930  -14.9870 N.am  125  LEU125     -0.1966
     88  CA       -16.0540   15.2200  -15.4980 C.3   125  LEU125      0.1728
     89  C        -17.3930   14.5310  -15.7530 C.2   125  LEU125      0.2616
     90  O        -17.4370   13.4150  -16.2660 O.2   125  LEU125     -0.2715
     91  CB       -15.5500   15.8730  -16.7910 C.3   125  LEU125      0.0311
     92  CG       -16.5670   16.5650  -17.7040 C.3   125  LEU125      0.0022
     93  CD1      -17.1960   17.7740  -17.0180 C.3   125  LEU125      0.0001
     94  CD2      -15.9050   16.9610  -19.0120 C.3   125  LEU125      0.0001
     95  N        -18.4780   15.2130  -15.3950 N.am  126  TYR126     -0.1974
     96  CA       -19.8290   14.7620  -15.7140 C.3   126  TYR126      0.1639
     97  C        -20.5370   15.8880  -16.4570 C.2   126  TYR126      0.2290
     98  O        -20.8410   16.9310  -15.8780 O.2   126  TYR126     -0.2864
     99  CB       -20.5930   14.3670  -14.4460 C.3   126  TYR126      0.0560
    100  CG       -19.9600   13.2240  -13.6790 C.ar  126  TYR126     -0.0198
    101  CD1      -18.8650   13.4370  -12.8490 C.ar  126  TYR126     -0.0009
    102  CD2      -20.4590   11.9330  -13.7820 C.ar  126  TYR126     -0.0009
    103  CE1      -18.2840   12.3970  -12.1510 C.ar  126  TYR126      0.0417
    104  CE2      -19.8840   10.8860  -13.0860 C.ar  126  TYR126      0.0417
    105  CZ       -18.7960   11.1240  -12.2730 C.ar  126  TYR126      0.1957
    106  OH       -18.2150   10.0920  -11.5750 O.3   126  TYR126     -0.2866
    107  N        -26.3410   18.8480  -13.1460 N.3   130  THR130     -0.1218
    108  CA       -26.8060   18.3810  -11.8430 C.3   130  THR130      0.1862
    109  C        -28.2450   17.8930  -11.8530 C.2   130  THR130      0.2287
    110  O        -29.0030   18.1500  -12.7860 O.2   130  THR130     -0.2866
    111  CB       -26.6970   19.4890  -10.7800 C.3   130  THR130      0.1770
    112  OG1      -27.5770   20.5700  -11.1120 O.3   130  THR130     -0.2211
    113  CG2      -25.2850   20.0040  -10.6970 C.3   130  THR130      0.0375
    114  N        -23.6520   16.7540    3.1100 N.3   174  ASP174     -0.1239
    115  CA       -24.2170   17.8000    2.2690 C.3   174  ASP174      0.1674
    116  C        -24.9140   17.2100    1.0520 C.2   174  ASP174      0.2266
    117  O        -24.5580   17.5140   -0.0840 O.2   174  ASP174     -0.2867
    118  CB       -23.1220   18.7740    1.8280 C.3   174  ASP174      0.1410
    119  CG       -23.6840   20.0590    1.2630 C.2   174  ASP174      0.3668
    120  OD1      -24.7660   20.4730    1.7250 O.co2 174  ASP174     -0.2456
    121  OD2      -23.0490   20.6470    0.3630 O.co2 174  ASP174     -0.2456
    122  N        -27.6360   17.1420   -1.4290 N.3   176  LYS176     -0.1245
    123  CA       -28.6300   18.0080   -2.0460 C.3   176  LYS176      0.1561
    124  C        -28.7540   17.6810   -3.5300 C.2   176  LYS176      0.2260
    125  O        -27.8470   17.0870   -4.1120 O.2   176  LYS176     -0.2867
    126  CB       -28.2470   19.4750   -1.8790 C.3   176  LYS176      0.0271
    127  CG       -28.2560   20.0030   -0.4540 C.3   176  LYS176      0.0035
    128  CD       -27.8790   21.4850   -0.4330 C.3   176  LYS176      0.0206
    129  CE       -26.4320   21.7180   -0.8750 C.3   176  LYS176      0.1093
    130  NZ       -26.1360   23.1450   -1.1670 N.3   176  LYS176     -0.1314
    131  N        -28.2730   19.5500   -5.9210 N.3   178  ASP178     -0.1225
    132  CA       -27.1810   20.1820   -6.6570 C.3   178  ASP178      0.1805
    133  C        -25.8280   19.5140   -6.4000 C.2   178  ASP178      0.2597
    134  O        -24.8210   19.9260   -6.9780 O.2   178  ASP178     -0.2718
    135  CB       -27.0930   21.6790   -6.3260 C.3   178  ASP178      0.1424
    136  CG       -27.1540   21.9600   -4.8400 C.2   178  ASP178      0.3668
    137  OD1      -28.1470   21.5580   -4.1970 O.co2 178  ASP178     -0.2456
    138  OD2      -26.2110   22.5890   -4.3140 O.co2 178  ASP178     -0.2456
    139  N        -25.7990   18.4900   -5.5500 N.am  179  ASN179     -0.1974
    140  CA       -24.5710   17.7200   -5.3380 C.3   179  ASN179      0.1688
    141  C        -24.6650   16.3340   -5.9890 C.2   179  ASN179      0.2292
    142  O        -23.7780   15.4900   -5.8360 O.2   179  ASN179     -0.2864
    143  CB       -24.2580   17.6090   -3.8420 C.3   179  ASN179      0.1181
    144  CG       -23.6260   18.8770   -3.2850 C.2   179  ASN179      0.2629
    145  OD1      -23.0200   19.6590   -4.0210 O.2   179  ASN179     -0.2716
    146  ND2      -23.7590   19.0810   -1.9800 N.am  179  ASN179     -0.0877
    147  N        -24.9220   14.6530   -9.7970 N.3   181  ILE181     -0.1245
    148  CA       -24.5950   15.0410  -11.1600 C.3   181  ILE181      0.1561
    149  C        -24.8140   13.8950  -12.1350 C.2   181  ILE181      0.2260
    150  O        -24.6550   12.7270  -11.7830 O.2   181  ILE181     -0.2867
    151  CB       -23.1400   15.5430  -11.2560 C.3   181  ILE181      0.0252
    152  CG1      -22.9590   16.3880  -12.5160 C.3   181  ILE181      0.0019
    153  CG2      -22.1420   14.3760  -11.1970 C.3   181  ILE181      0.0019
    154  CD1      -21.7460   17.2570  -12.4760 C.3   181  ILE181      0.0001
    155  N        -21.2440   14.0140   -5.7810 N.3   202  ILE202     -0.1231
    156  CA       -20.0520   14.8470   -5.6400 C.3   202  ILE202      0.1692
    157  C        -20.0700   15.6900   -4.3610 C.2   202  ILE202      0.2592
    158  O        -20.9220   15.5100   -3.4920 O.2   202  ILE202     -0.2718
    159  CB       -19.8930   15.7940   -6.8570 C.3   202  ILE202      0.0266
    160  CG1      -21.0600   16.7840   -6.9280 C.3   202  ILE202      0.0019
    161  CG2      -19.8230   14.9940   -8.1420 C.3   202  ILE202      0.0020
    162  CD1      -20.8660   17.8990   -7.9260 C.3   202  ILE202      0.0001
    163  N        -19.1150   16.6140   -4.2760 N.am  203  ASP203     -0.1974
    164  CA       -18.9890   17.5420   -3.1560 C.3   203  ASP203      0.1709
    165  C        -18.7310   16.8170   -1.8320 C.2   203  ASP203      0.2293
    166  O        -19.6610   16.4730   -1.1010 O.2   203  ASP203     -0.2864
    167  CB       -20.2400   18.4150   -3.0390 C.3   203  ASP203      0.1436
    168  CG       -19.9850   19.6920   -2.2620 C.2   203  ASP203      0.3671
    169  OD1      -18.8860   19.8260   -1.6830 O.co2 203  ASP203     -0.2456
    170  OD2      -20.8820   20.5610   -2.2320 O.co2 203  ASP203     -0.2456
    171  N        -16.5650   18.1310    0.4630 N.3   205  GLY205     -0.1210
    172  CA       -15.9190   19.1320    1.2940 C.3   205  GLY205      0.1956
    173  C        -16.4280   19.1490    2.7220 C.2   205  GLY205      0.2611
    174  O        -15.6570   19.3760    3.6550 O.2   205  GLY205     -0.2717
    175  N        -17.7250   18.9070    2.8980 N.am  206  GLN206     -0.1979
    176  CA       -18.3280   18.9060    4.2260 C.3   206  GLN206      0.1601
    177  C        -18.5150   17.4770    4.7370 C.2   206  GLN206      0.2287
    178  O        -19.2900   17.2350    5.6630 O.2   206  GLN206     -0.2864
    179  CB       -19.6700   19.6440    4.2050 C.3   206  GLN206      0.0394
    180  CG       -19.6140   20.9960    3.5140 C.3   206  GLN206      0.0908
    181  CD       -18.5680   21.9160    4.1120 C.2   206  GLN206      0.2608
    182  OE1      -17.7470   22.4890    3.3960 O.2   206  GLN206     -0.2717
    183  NE2      -18.5990   22.0680    5.4320 N.am  206  GLN206     -0.0878
@<TRIPOS>BOND
     1    94    92    1
     2    92    93    1
     3    92    91    1
     4     8     6    1
     5    91    88    1
     6    97    98    2
     7    97    96    1
     8    90    89    2
     9     6     7    1
    10     6     5    1
    11    89    88    1
    12    89    95   am
    13    96    95    1
    14    96    99    1
    15    88    87    1
    16     1     2    1
    17     2     5    1
    18     2     3    1
    19    87    80   am
    20    54    55    1
    21    86    84   ar
    22    99   100    1
    23    59    58    1
    24    55    58    1
    25    55    56    1
    26     4     3    2
    27    83    84    1
    28    83    82    1
    29     3     9   am
    30   102   100   ar
    31   102   104   ar
    32    80    79    1
    33    80    81    2
    34   100   101   ar
    35    84    85   ar
    36    58    60    1
    37    79    82    1
    38    79    78    1
    39   107   108    1
    40    56    57    2
    41    50    49    2
    42   104   105   ar
    43     9    10    1
    44   101   103   ar
    45   110   109    2
    46    49    48    1
    47   152   154    1
    48   152   151    1
    49   105   103   ar
    50   105   106    1
    51   149   150    2
    52   149   148    1
    53   109   108    1
    54   108   111    1
    55    10    11    1
    56    52    51    1
    57   151   153    1
    58   151   148    1
    59   148   147    1
    60   112   111    1
    61    48    51    1
    62    48    47    1
    63    51    53    1
    64   111   113    1
    65    11    12    2
    66    11    13   am
    67    13    14    1
    68    61    62    1
    69    77    76    1
    70    20    19   ar
    71    75    76    1
    72    75    74    1
    73    17    14    1
    74    17    18    1
    75    14    15    1
    76    71    74    1
    77    71    72    1
    78    71    70    1
    79    62    63    1
    80    62    65    1
    81    19    18    1
    82    19    21   ar
    83   161   159    1
    84    72    73    2
    85   162   160    1
    86    63    64    2
    87    65    66    1
    88    15    16    2
    89    15    22   am
    90   134   133    2
    91   160   159    1
    92   159   156    1
    93   132   133    1
    94   132   135    1
    95   132   131    1
    96    66    67    1
    97   133   139   am
    98   135   136    1
    99    45    44    2
   100    22    23    1
   101    44    43    1
   102   141   142    2
   103   141   140    1
   104   155   156    1
   105   156   157    1
   106   139   140    1
   107    67    68    1
   108   140   143    1
   109    69    68    1
   110    23    24    1
   111    46    43    1
   112   136   138   ar
   113   136   137   ar
   114    43    42    1
   115   157   163   am
   116   157   158    2
   117    25    24    2
   118   163   164    1
   119   125   124    2
   120   145   144    2
   121    24    26   am
   122   143   144    1
   123    42    33   am
   124   124   123    1
   125   144   146   am
   126   164   167    1
   127   164   165    1
   128   167   168    1
   129    26    27    1
   130    33    34    2
   131    33    32    1
   132   168   170   ar
   133   168   169   ar
   134   123   126    1
   135   123   122    1
   136   126   127    1
   137   165   166    2
   138    31    28   am
   139    31    32    1
   140    27    28    1
   141    27    30    1
   142    28    29    2
   143    32    35    1
   144   130   129    1
   145   129   128    1
   146    35    36    1
   147   127   128    1
   148   117   116    2
   149   121   119   ar
   150   171   172    1
   151    37    36   ar
   152    37    39   ar
   153    36    38   ar
   154   116   115    1
   155   119   120   ar
   156   119   118    1
   157   172   173    1
   158    39    41   ar
   159   118   115    1
   160    38    40   ar
   161   115   114    1
   162   173   175   am
   163   173   174    2
   164   175   176    1
   165    41    40   ar
   166   182   181    2
   167   180   181    1
   168   180   179    1
   169   181   183   am
   170   179   176    1
   171   176   177    1
   172   177   178    2
