@<TRIPOS>MOLECULE
tmp/5dn6D00.pdb
 153 148 0 0 0
SMALL
GASTEIGER

@<TRIPOS>ATOM
      1  N        108.4040  -45.6330   47.9560 N.3   149  LEU149     -0.1245
      2  CA       107.6680  -44.3790   47.9640 C.3   149  LEU149      0.1561
      3  C        108.3540  -43.4440   46.9780 C.2   149  LEU149      0.2260
      4  O        109.5240  -43.0960   47.1520 O.2   149  LEU149     -0.2867
      5  CB       107.6510  -43.7630   49.3650 C.3   149  LEU149      0.0270
      6  CG       107.0200  -44.6060   50.4810 C.3   149  LEU149      0.0019
      7  CD1      107.2800  -43.9700   51.8390 C.3   149  LEU149      0.0001
      8  CD2      105.5260  -44.8010   50.2550 C.3   149  LEU149      0.0001
      9  N        103.6050  -35.5950   65.8680 N.3   170  ARG170     -0.1231
     10  CA       102.8440  -36.8160   66.1900 C.3   170  ARG170      0.1694
     11  C        102.1500  -37.4930   64.9890 C.2   170  ARG170      0.2591
     12  O        102.7010  -38.4220   64.4370 O.2   170  ARG170     -0.2718
     13  CB       101.8270  -36.5730   67.3140 C.3   170  ARG170      0.0321
     14  CG       102.3320  -35.8660   68.5580 C.3   170  ARG170      0.0489
     15  CD       101.2320  -35.6680   69.5940 C.3   170  ARG170      0.2205
     16  NE       100.5120  -34.4000   69.4200 N.pl3 170  ARG170     -0.0865
     17  CZ        99.4100  -34.2060   68.6860 C.cat 170  ARG170      0.5346
     18  NH1       98.8920  -32.9860   68.6320 N.pl3 170  ARG170      0.1354
     19  NH2       98.8030  -35.1890   68.0090 N.pl3 170  ARG170      0.1354
     20  N        101.0030  -37.0050   64.5440 N.am  171  GLN171     -0.1979
     21  CA       100.1870  -37.7510   63.6170 C.3   171  GLN171      0.1601
     22  C        100.6030  -37.5590   62.1440 C.2   171  GLN171      0.2287
     23  O         99.7480  -37.4550   61.2850 O.2   171  GLN171     -0.2864
     24  CB        98.7480  -37.2990   63.8490 C.3   171  GLN171      0.0394
     25  CG        97.6650  -38.1810   63.2490 C.3   171  GLN171      0.0908
     26  CD        96.9280  -37.5880   62.0420 C.2   171  GLN171      0.2608
     27  OE1       97.0950  -36.4190   61.6760 O.2   171  GLN171     -0.2717
     28  NE2       96.1010  -38.4120   61.4180 N.am  171  GLN171     -0.0878
     29  N        102.6640  -39.5250   60.0430 N.3   173  GLY173     -0.1210
     30  CA       102.8440  -40.7220   59.2160 C.3   173  GLY173      0.1956
     31  C        104.2530  -41.2850   59.1480 C.2   173  GLY173      0.2612
     32  O        104.6060  -41.9510   58.1690 O.2   173  GLY173     -0.2717
     33  N        105.0640  -41.0450   60.1720 N.am  174  LYS174     -0.1965
     34  CA       106.4620  -41.4340   60.0700 C.3   174  LYS174      0.1728
     35  C        106.6610  -42.9490   60.2240 C.2   174  LYS174      0.2617
     36  O        107.3940  -43.5290   59.4310 O.2   174  LYS174     -0.2715
     37  CB       107.3530  -40.5410   60.9350 C.3   174  LYS174      0.0311
     38  CG       107.3100  -40.7230   62.4060 C.3   174  LYS174      0.0038
     39  CD       108.0800  -39.5720   63.0820 C.3   174  LYS174      0.0206
     40  CE       107.1730  -38.4960   63.5960 C.3   174  LYS174      0.1093
     41  NZ       106.0030  -38.9610   64.3920 N.3   174  LYS174     -0.1314
     42  N        105.9600  -43.5980   61.1530 N.am  175  THR175     -0.1937
     43  CA       105.9620  -45.0780   61.2230 C.3   175  THR175      0.2028
     44  C        105.5250  -45.7190   59.9010 C.2   175  THR175      0.2642
     45  O        106.1450  -46.6720   59.4240 O.2   175  THR175     -0.2714
     46  CB       105.0450  -45.6040   62.3500 C.3   175  THR175      0.1808
     47  OG1      105.5140  -45.1180   63.6080 O.3   175  THR175     -0.2208
     48  CG2      105.0140  -47.1420   62.3940 C.3   175  THR175      0.0379
     49  N        104.4550  -45.1830   59.3210 N.am  176  ALA176     -0.1963
     50  CA       103.9260  -45.6630   58.0420 C.3   176  ALA176      0.1728
     51  C        105.0010  -45.7360   56.9590 C.2   176  ALA176      0.2616
     52  O        105.0160  -46.6730   56.1680 O.2   176  ALA176     -0.2715
     53  CB       102.7750  -44.7790   57.5750 C.3   176  ALA176      0.0334
     54  N        105.8940  -44.7500   56.9280 N.am  177  ILE177     -0.1977
     55  CA       106.9810  -44.7480   55.9510 C.3   177  ILE177      0.1596
     56  C        107.8740  -45.9630   56.1510 C.2   177  ILE177      0.2287
     57  O        108.2780  -46.5880   55.1830 O.2   177  ILE177     -0.2864
     58  CB       107.8110  -43.4620   56.0290 C.3   177  ILE177      0.0276
     59  CG1      106.9390  -42.2930   55.5790 C.3   177  ILE177      0.0022
     60  CG2      109.0600  -43.5460   55.1520 C.3   177  ILE177      0.0022
     61  CD1      107.4130  -40.9670   56.0750 C.3   177  ILE177      0.0001
     62  N        105.7820  -49.3110   55.0870 N.3   180  ASP180     -0.1239
     63  CA       105.7100  -49.4250   53.6250 C.3   180  ASP180      0.1674
     64  C        107.0620  -49.7910   53.0210 C.2   180  ASP180      0.2266
     65  O        107.1180  -50.5020   52.0210 O.2   180  ASP180     -0.2867
     66  CB       105.1710  -48.1320   52.9920 C.3   180  ASP180      0.1410
     67  CG       103.6860  -47.9290   53.2490 C.2   180  ASP180      0.3668
     68  OD1      103.0550  -48.8300   53.8370 O.co2 180  ASP180     -0.2456
     69  OD2      103.1230  -46.8820   52.8540 O.co2 180  ASP180     -0.2456
     70  N        111.7180  -41.8700   72.4900 N.3   268  LYS268     -0.1245
     71  CA       111.3150  -42.6350   73.6740 C.3   268  LYS268      0.1561
     72  C        112.5000  -43.3550   74.3100 C.2   268  LYS268      0.2260
     73  O        112.5250  -43.5480   75.5240 O.2   268  LYS268     -0.2867
     74  CB       110.1970  -43.6330   73.3450 C.3   268  LYS268      0.0271
     75  CG       108.8430  -42.9800   73.0780 C.3   268  LYS268      0.0035
     76  CD       107.7500  -44.0100   72.8250 C.3   268  LYS268      0.0206
     77  CE       106.9310  -43.7430   71.5670 C.3   268  LYS268      0.1093
     78  NZ       106.4930  -42.3270   71.4090 N.3   268  LYS268     -0.1314
     79  N        110.1810  -38.0300   67.1030 N.3   323  GLU323     -0.1245
     80  CA       108.9390  -37.2660   67.1910 C.3   323  GLU323      0.1567
     81  C        109.2620  -35.8520   67.6500 C.2   323  GLU323      0.2260
     82  O        109.7500  -35.6660   68.7630 O.2   323  GLU323     -0.2867
     83  CB       107.9490  -37.9040   68.1690 C.3   323  GLU323      0.0388
     84  CG       106.6390  -37.1200   68.2740 C.3   323  GLU323      0.1160
     85  CD       105.6240  -37.7660   69.1980 C.2   323  GLU323      0.3649
     86  OE1      104.7260  -38.4710   68.6930 O.co2 323  GLU323     -0.2457
     87  OE2      105.7250  -37.5640   70.4320 O.co2 323  GLU323     -0.2457
     88  N         99.7320  -33.2290   55.1600 N.3   352  PHE352     -0.1241
     89  CA        98.9400  -34.4470   55.3250 C.3   352  PHE352      0.1605
     90  C         97.4520  -34.2030   55.1030 C.2   352  PHE352      0.2264
     91  O         96.8580  -34.8210   54.2330 O.2   352  PHE352     -0.2867
     92  CB        99.1550  -35.0660   56.7120 C.3   352  PHE352      0.0534
     93  CG        98.7130  -36.5060   56.8110 C.ar  352  PHE352     -0.0203
     94  CD1       97.3680  -36.8500   56.9290 C.ar  352  PHE352     -0.0042
     95  CD2       99.6540  -37.5230   56.7940 C.ar  352  PHE352     -0.0042
     96  CE1       96.9760  -38.1730   57.0340 C.ar  352  PHE352     -0.0003
     97  CE2       99.2700  -38.8520   56.9000 C.ar  352  PHE352     -0.0003
     98  CZ        97.9280  -39.1780   57.0200 C.ar  352  PHE352     -0.0000
     99  N        100.0360  -37.0020   50.7150 N.3   357  ARG357     -0.1231
    100  CA       100.3940  -38.1660   51.5010 C.3   357  ARG357      0.1679
    101  C        101.1200  -39.1300   50.5650 C.2   357  ARG357      0.2434
    102  O        100.5780  -39.4640   49.5080 O.2   357  ARG357     -0.2733
    103  CB        99.1350  -38.7890   52.0870 C.3   357  ARG357      0.0321
    104  CG        98.3920  -37.8820   53.0560 C.3   357  ARG357      0.0489
    105  CD        97.1350  -38.5620   53.5230 C.3   357  ARG357      0.2205
    106  NE        96.1760  -37.6080   54.0360 N.pl3 357  ARG357     -0.0865
    107  CZ        94.9050  -37.8830   54.3060 C.cat 357  ARG357      0.5346
    108  NH1       94.4040  -39.1020   54.1110 N.pl3 357  ARG357      0.1354
    109  NH2       94.1210  -36.9210   54.7910 N.pl3 357  ARG357      0.1354
    110  N        102.3400  -39.5530   50.9010 N.am  358  PRO358     -0.2729
    111  CA       103.0460  -39.2050   52.1410 C.3   358  PRO358      0.1401
    112  C        103.3020  -37.7050   52.3100 C.2   358  PRO358      0.2269
    113  O        103.5440  -36.9940   51.3350 O.2   358  PRO358     -0.2865
    114  CB       104.3720  -39.9650   52.0170 C.3   358  PRO358      0.0296
    115  CG       104.0730  -41.0930   51.0930 C.3   358  PRO358      0.0237
    116  CD       103.0480  -40.5820   50.1260 C.3   358  PRO358      0.0939
    117  N        100.3890  -40.9250   47.1630 N.3   425  GLN425     -0.1231
    118  CA       100.5250  -42.3760   47.1190 C.3   425  GLN425      0.1683
    119  C         99.8110  -42.9850   48.3060 C.2   425  GLN425      0.2434
    120  O         99.9800  -42.4940   49.4240 O.2   425  GLN425     -0.2733
    121  CB       102.0020  -42.7330   47.1630 C.3   425  GLN425      0.0380
    122  CG       102.3330  -44.2050   47.0650 C.3   425  GLN425      0.0905
    123  CD       103.7960  -44.4500   46.7130 C.2   425  GLN425      0.2608
    124  OE1      104.6270  -43.5290   46.6310 O.2   425  GLN425     -0.2717
    125  NE2      104.1210  -45.7070   46.5040 N.am  425  GLN425     -0.0878
    126  N         99.0110  -44.0420   48.0730 N.am  426  PRO426     -0.2718
    127  CA        98.2930  -44.6680   49.1810 C.3   426  PRO426      0.1535
    128  C         99.1980  -45.5520   50.0320 C.2   426  PRO426      0.2598
    129  O        100.3220  -45.8740   49.6250 O.2   426  PRO426     -0.2715
    130  CB        97.2090  -45.4940   48.4820 C.3   426  PRO426      0.0310
    131  CG        97.7690  -45.8010   47.1400 C.3   426  PRO426      0.0237
    132  CD        98.6670  -44.6570   46.7750 C.3   426  PRO426      0.0939
    133  N         98.6820  -45.9270   51.2010 N.am  427  GLN427     -0.1964
    134  CA        99.3990  -46.7290   52.1840 C.3   427  GLN427      0.1733
    135  C         99.4550  -48.1920   51.7580 C.2   427  GLN427      0.2616
    136  O         98.5360  -48.6930   51.1110 O.2   427  GLN427     -0.2715
    137  CB        98.6860  -46.5950   53.5380 C.3   427  GLN427      0.0408
    138  CG        99.2550  -47.3520   54.7080 C.3   427  GLN427      0.0908
    139  CD       100.1200  -46.5960   55.6710 C.2   427  GLN427      0.2608
    140  OE1      100.8240  -45.6720   55.3070 O.2   427  GLN427     -0.2717
    141  NE2      100.1040  -47.0330   56.9150 N.am  427  GLN427     -0.0878
    142  N        100.5410  -48.8610   52.1400 N.am  428  TYR428     -0.1974
    143  CA       100.7730  -50.2770   51.8550 C.3   428  TYR428      0.1639
    144  C        100.8380  -50.5670   50.3470 C.2   428  TYR428      0.2290
    145  O        100.4830  -51.6630   49.8950 O.2   428  TYR428     -0.2864
    146  CB        99.7100  -51.1470   52.5510 C.3   428  TYR428      0.0560
    147  CG        99.3910  -50.7040   53.9690 C.ar  428  TYR428     -0.0198
    148  CD1      100.3570  -50.7720   54.9720 C.ar  428  TYR428     -0.0009
    149  CD2       98.1290  -50.2110   54.3060 C.ar  428  TYR428     -0.0009
    150  CE1      100.0840  -50.3560   56.2650 C.ar  428  TYR428      0.0417
    151  CE2       97.8460  -49.7990   55.6040 C.ar  428  TYR428      0.0417
    152  CZ        98.8260  -49.8790   56.5790 C.ar  428  TYR428      0.1957
    153  OH        98.5460  -49.4620   57.8550 O.3   428  TYR428     -0.2866
@<TRIPOS>BOND
     1   125   123   am
     2   124   123    2
     3   123   122    1
     4   132   131    1
     5   132   126    1
     6     3     4    2
     7     3     2    1
     8   122   121    1
     9   118   121    1
    10   118   117    1
    11   118   119    1
    12   131   130    1
    13     1     2    1
    14     2     5    1
    15   126   119   am
    16   126   127    1
    17   119   120    2
    18   130   127    1
    19   127   128    1
    20     5     6    1
    21   102   101    2
    22   129   128    2
    23   145   144    2
    24   128   133   am
    25   116   110    1
    26   116   115    1
    27     8     6    1
    28   144   143    1
    29     6     7    1
    30   101   110   am
    31   101   100    1
    32    99   100    1
    33   110   111    1
    34   115   114    1
    35   136   135    2
    36   133   134    1
    37   113   112    2
    38   100   103    1
    39   135   142   am
    40   135   134    1
    41   143   142    1
    42   143   146    1
    43   114   111    1
    44    65    64    2
    45   103   104    1
    46   111   112    1
    47   134   137    1
    48   146   147    1
    49    69    67   ar
    50    66    67    1
    51    66    63    1
    52    64    63    1
    53   104   105    1
    54    67    68   ar
    55   105   106    1
    56   137   138    1
    57    63    62    1
    58   147   149   ar
    59   147   148   ar
    60   106   107    2
    61   108   107    1
    62    91    90    2
    63   107   109    1
    64   149   151   ar
    65   138   139    1
    66   148   150   ar
    67    90    89    1
    68    60    58    1
    69    88    89    1
    70    57    56    2
    71   140   139    2
    72    89    92    1
    73    59    58    1
    74    59    61    1
    75   151   152   ar
    76   139   141   am
    77    55    58    1
    78    55    56    1
    79    55    54    1
    80    52    51    2
    81   150   152   ar
    82   152   153    1
    83    92    93    1
    84    95    93   ar
    85    95    97   ar
    86    93    94   ar
    87    97    98   ar
    88    54    51   am
    89    94    96   ar
    90    51    50    1
    91    98    96   ar
    92    53    50    1
    93    50    49    1
    94    32    31    2
    95    31    30    1
    96    31    33   am
    97    30    29    1
    98    49    44   am
    99    45    44    2
   100    36    35    2
   101    44    43    1
   102    34    33    1
   103    34    35    1
   104    34    37    1
   105    35    42   am
   106    37    38    1
   107    42    43    1
   108    43    46    1
   109    23    22    2
   110    28    26   am
   111    27    26    2
   112    26    25    1
   113    22    21    1
   114    46    48    1
   115    46    47    1
   116    38    39    1
   117    39    40    1
   118    25    24    1
   119    40    41    1
   120    21    24    1
   121    21    20    1
   122    12    11    2
   123    20    11   am
   124    11    10    1
   125     9    10    1
   126    10    13    1
   127    79    80    1
   128    80    81    1
   129    80    83    1
   130    13    14    1
   131    81    82    2
   132    19    17    1
   133    83    84    1
   134    84    85    1
   135    14    15    1
   136    18    17    1
   137    17    16    2
   138    86    85   ar
   139    85    87   ar
   140    16    15    1
   141    78    77    1
   142    77    76    1
   143    70    71    1
   144    76    75    1
   145    75    74    1
   146    74    71    1
   147    71    72    1
   148    72    73    2
