@<TRIPOS>MOLECULE
tmp/5dn6E00.pdb
 129 125 0 0 0
SMALL
GASTEIGER

@<TRIPOS>ATOM
      1  N        136.4040   13.1000   68.3000 N.3   144  LEU144     -0.1245
      2  CA       135.3970   12.6300   67.3570 C.3   144  LEU144      0.1561
      3  C        134.3030   13.6840   67.2470 C.2   144  LEU144      0.2260
      4  O        133.6290   14.0020   68.2320 O.2   144  LEU144     -0.2867
      5  CB       134.8050   11.2890   67.7930 C.3   144  LEU144      0.0270
      6  CG       135.7690   10.0990   67.8180 C.3   144  LEU144      0.0019
      7  CD1      135.1120    8.9120   68.4990 C.3   144  LEU144      0.0001
      8  CD2      136.2270    9.7150   66.4180 C.3   144  LEU144      0.0001
      9  N        128.6610   -6.2480   67.8940 N.3   165  ARG165     -0.1231
     10  CA       130.0190   -6.5350   67.4650 C.3   165  ARG165      0.1694
     11  C        130.2940   -5.9120   66.0930 C.2   165  ARG165      0.2592
     12  O        129.3710   -5.7140   65.3050 O.2   165  ARG165     -0.2718
     13  CB       130.1760   -8.0450   67.4180 C.3   165  ARG165      0.0321
     14  CG       131.5470   -8.5730   67.0670 C.3   165  ARG165      0.0489
     15  CD       131.5510  -10.1010   66.9800 C.3   165  ARG165      0.2205
     16  NE       130.3320  -10.6700   66.3820 N.pl3 165  ARG165     -0.0865
     17  CZ       129.9920  -10.6060   65.0910 C.cat 165  ARG165      0.5346
     18  NH1      130.7730  -10.0080   64.1970 N.pl3 165  ARG165      0.1354
     19  NH2      128.8500  -11.1590   64.6850 N.pl3 165  ARG165      0.1354
     20  N        131.5580   -5.5850   65.8310 N.am  166  GLN166     -0.1966
     21  CA       131.9790   -4.9440   64.5800 C.3   166  GLN166      0.1733
     22  C        131.2270   -3.6460   64.2260 C.2   166  GLN166      0.2617
     23  O        130.9550   -3.3800   63.0570 O.2   166  GLN166     -0.2715
     24  CB       131.8960   -5.9380   63.4390 C.3   166  GLN166      0.0408
     25  CG       132.9140   -7.0400   63.5740 C.3   166  GLN166      0.0908
     26  CD       132.9110   -7.9280   62.3700 C.2   166  GLN166      0.2608
     27  OE1      131.9410   -8.6400   62.1190 O.2   166  GLN166     -0.2717
     28  NE2      133.9920   -7.8870   61.5990 N.am  166  GLN166     -0.0878
     29  N        130.8870   -2.8490   65.2340 N.am  167  THR167     -0.1937
     30  CA       130.2690   -1.5410   65.0020 C.3   167  THR167      0.2028
     31  C        131.2500   -0.4000   65.2310 C.2   167  THR167      0.2643
     32  O        130.9290    0.7520   64.9420 O.2   167  THR167     -0.2714
     33  CB       129.0240   -1.3330   65.8850 C.3   167  THR167      0.1808
     34  OG1      129.3370   -1.6420   67.2490 O.3   167  THR167     -0.2208
     35  CG2      127.8690   -2.2100   65.3990 C.3   167  THR167      0.0379
     36  N        132.4410   -0.7150   65.7380 N.am  168  GLY168     -0.1939
     37  CA       133.4860    0.2820   65.9640 C.3   168  GLY168      0.2014
     38  C        133.5630    0.8360   67.3770 C.2   168  GLY168      0.2639
     39  O        133.9150    2.0010   67.5660 O.2   168  GLY168     -0.2714
     40  N        133.2670    0.0010   68.3700 N.am  169  LYS169     -0.1963
     41  CA       133.3040    0.4280   69.7690 C.3   169  LYS169      0.1728
     42  C        134.7260    0.7220   70.2290 C.2   169  LYS169      0.2617
     43  O        134.9950    1.8050   70.7480 O.2   169  LYS169     -0.2715
     44  CB       132.6680   -0.6300   70.6630 C.3   169  LYS169      0.0311
     45  CG       131.1810   -0.7830   70.4180 C.3   169  LYS169      0.0038
     46  CD       130.5120   -1.6600   71.4630 C.3   169  LYS169      0.0206
     47  CE       131.0930   -3.0680   71.5340 C.3   169  LYS169      0.1093
     48  NZ       131.3380   -3.7090   70.2130 N.3   169  LYS169     -0.1314
     49  N        135.6260   -0.2340   70.0060 N.am  170  THR170     -0.1937
     50  CA       137.0390   -0.1130   70.3840 C.3   170  THR170      0.2028
     51  C        137.7310    1.0780   69.7130 C.2   170  THR170      0.2642
     52  O        138.5530    1.7610   70.3350 O.2   170  THR170     -0.2714
     53  CB       137.8000   -1.4160   70.0390 C.3   170  THR170      0.1808
     54  OG1      137.1910   -2.5170   70.7240 O.3   170  THR170     -0.2208
     55  CG2      139.2720   -1.3370   70.4250 C.3   170  THR170      0.0379
     56  N        137.3830    1.3170   68.4490 N.am  171  ALA171     -0.1977
     57  CA       137.9550    2.4060   67.6570 C.3   171  ALA171      0.1597
     58  C        137.6940    3.7660   68.2830 C.2   171  ALA171      0.2287
     59  O        138.5700    4.6180   68.2930 O.2   171  ALA171     -0.2864
     60  CB       137.4070    2.3730   66.2370 C.3   171  ALA171      0.0319
     61  N        140.8650    6.2330   69.3010 N.3   175  ASP175     -0.1239
     62  CA       140.9840    7.6220   68.8310 C.3   175  ASP175      0.1674
     63  C        140.9770    8.5950   70.0020 C.2   175  ASP175      0.2266
     64  O        141.7060    9.5870   69.9850 O.2   175  ASP175     -0.2867
     65  CB       139.8760    7.9850   67.8220 C.3   175  ASP175      0.1410
     66  CG       140.1170    7.3850   66.4400 C.2   175  ASP175      0.3668
     67  OD1      140.8890    6.4070   66.3360 O.co2 175  ASP175     -0.2456
     68  OD2      139.5450    7.8790   65.4420 O.co2 175  ASP175     -0.2456
     69  N        144.8470   -8.3160   68.8230 N.3   203  THR203     -0.1218
     70  CA       144.1720   -7.0160   68.8740 C.3   203  THR203      0.1862
     71  C        144.9170   -6.0490   69.7980 C.2   203  THR203      0.2287
     72  O        145.1500   -4.8830   69.4450 O.2   203  THR203     -0.2866
     73  CB       142.7020   -7.1450   69.3480 C.3   203  THR203      0.1770
     74  OG1      142.0230   -8.1420   68.5730 O.3   203  THR203     -0.2211
     75  CG2      141.9570   -5.8120   69.2190 C.3   203  THR203      0.0375
     76  N        126.6940    1.4500   60.3090 N.3   348  PHE348     -0.1241
     77  CA       127.9950    0.9070   59.9350 C.3   348  PHE348      0.1605
     78  C        127.9500    0.2240   58.5650 C.2   348  PHE348      0.2264
     79  O        128.7470    0.5390   57.6770 O.2   348  PHE348     -0.2867
     80  CB       128.4780   -0.0670   61.0130 C.3   348  PHE348      0.0534
     81  CG       129.9040   -0.4910   60.8490 C.ar  348  PHE348     -0.0203
     82  CD1      130.9390    0.3160   61.3140 C.ar  348  PHE348     -0.0042
     83  CD2      130.2160   -1.6980   60.2320 C.ar  348  PHE348     -0.0042
     84  CE1      132.2610   -0.0790   61.1670 C.ar  348  PHE348     -0.0003
     85  CE2      131.5340   -2.0940   60.0780 C.ar  348  PHE348     -0.0003
     86  CZ       132.5570   -1.2860   60.5460 C.ar  348  PHE348     -0.0000
     87  N        130.4950    6.0400   59.5000 N.3   353  ARG353     -0.1231
     88  CA       131.5190    5.6280   60.4520 C.3   353  ARG353      0.1679
     89  C        132.2250    6.8750   60.9870 C.2   353  ARG353      0.2434
     90  O        132.6850    7.6890   60.1920 O.2   353  ARG353     -0.2733
     91  CB       132.5010    4.6810   59.7770 C.3   353  ARG353      0.0321
     92  CG       131.8090    3.4570   59.1950 C.3   353  ARG353      0.0489
     93  CD       132.7770    2.4090   58.6800 C.3   353  ARG353      0.2205
     94  NE       132.0830    1.3810   57.8970 N.pl3 353  ARG353     -0.0865
     95  CZ       132.6090    0.2170   57.5120 C.cat 353  ARG353      0.5346
     96  NH1      133.8600   -0.1170   57.8340 N.pl3 353  ARG353      0.1354
     97  NH2      131.8710   -0.6320   56.7990 N.pl3 353  ARG353      0.1354
     98  N        132.2960    7.0540   62.3110 N.am  354  PRO354     -0.2729
     99  CA       131.7500    6.1190   63.3020 C.3   354  PRO354      0.1401
    100  C        130.2270    5.9680   63.2310 C.2   354  PRO354      0.2269
    101  O        129.5090    6.9180   62.9040 O.2   354  PRO354     -0.2865
    102  CB       132.1660    6.7340   64.6550 C.3   354  PRO354      0.0296
    103  CG       133.1550    7.8070   64.3330 C.3   354  PRO354      0.0237
    104  CD       132.8320    8.2690   62.9450 C.3   354  PRO354      0.0939
    105  N        134.1530   10.1920   59.7440 N.3   416  GLN416     -0.1231
    106  CA       135.5280   10.4390   60.1550 C.3   416  GLN416      0.1683
    107  C        136.3490    9.1680   59.9770 C.2   416  GLN416      0.2434
    108  O        135.8300    8.0770   60.2180 O.2   416  GLN416     -0.2733
    109  CB       135.5390   10.8730   61.6180 C.3   416  GLN416      0.0380
    110  CG       136.8510   11.4730   62.0850 C.3   416  GLN416      0.0905
    111  CD       136.7370   12.1850   63.4270 C.2   416  GLN416      0.2608
    112  OE1      135.6570   12.6210   63.8510 O.2   416  GLN416     -0.2717
    113  NE2      137.8670   12.3220   64.0950 N.am  416  GLN416     -0.0878
    114  N        137.6170    9.2910   59.5350 N.am  417  PRO417     -0.2718
    115  CA       138.4870    8.1060   59.5370 C.3   417  PRO417      0.1535
    116  C        138.9650    7.7190   60.9350 C.2   417  PRO417      0.2598
    117  O        138.7110    8.4410   61.9050 O.2   417  PRO417     -0.2715
    118  CB       139.6820    8.5350   58.6710 C.3   417  PRO417      0.0310
    119  CG       139.1970    9.6890   57.8680 C.3   417  PRO417      0.0237
    120  CD       138.2010   10.3890   58.7390 C.3   417  PRO417      0.0939
    121  N        139.6620    6.5900   61.0140 N.am  418  GLN418     -0.1978
    122  CA       140.2980    6.1370   62.2540 C.3   418  GLN418      0.1601
    123  C        141.6950    6.7070   62.4060 C.2   418  GLN418      0.2287
    124  O        142.4020    6.9100   61.4210 O.2   418  GLN418     -0.2864
    125  CB       140.4210    4.6170   62.2790 C.3   418  GLN418      0.0394
    126  CG       139.1960    3.9040   62.7890 C.3   418  GLN418      0.0908
    127  CD       139.3990    2.4020   62.8230 C.2   418  GLN418      0.2608
    128  OE1      139.1880    1.7190   61.8210 O.2   418  GLN418     -0.2717
    129  NE2      139.8220    1.8820   63.9720 N.am  418  GLN418     -0.0878
@<TRIPOS>BOND
     1    97    95    1
     2    95    96    1
     3    95    94    2
     4    79    78    2
     5   119   118    1
     6   119   120    1
     7    94    93    1
     8    78    77    1
     9   118   115    1
    10    93    92    1
    11   120   114    1
    12    92    91    1
    13    87    88    1
    14   114   115    1
    15   114   107   am
    16   115   116    1
    17   105   106    1
    18    91    88    1
    19    77    76    1
    20    77    80    1
    21   107   106    1
    22   107   108    2
    23    85    83   ar
    24    85    86   ar
    25   106   109    1
    26    90    89    2
    27    83    81   ar
    28    88    89    1
    29    86    84   ar
    30    81    80    1
    31    81    82   ar
    32   116   121   am
    33   116   117    2
    34    89    98   am
    35   121   122    1
    36    84    82   ar
    37   124   123    2
    38    28    26   am
    39   109   110    1
    40   128   127    2
    41   110   111    1
    42    27    26    2
    43   122   125    1
    44   122   123    1
    45   125   126    1
    46    98   104    1
    47    98    99    1
    48    26    25    1
    49   126   127    1
    50   127   129   am
    51   101   100    2
    52   104   103    1
    53    23    22    2
    54   100    99    1
    55    99   102    1
    56   111   112    2
    57   111   113   am
    58    24    25    1
    59    24    21    1
    60    18    17    1
    61    22    21    1
    62    22    29   am
    63   103   102    1
    64    21    20    1
    65    19    17    1
    66    32    31    2
    67    30    31    1
    68    30    29    1
    69    30    33    1
    70    17    16    2
    71    31    36   am
    72    12    11    2
    73    35    33    1
    74    68    66   ar
    75    36    37    1
    76    20    11   am
    77    33    34    1
    78    37    38    1
    79    11    10    1
    80    60    57    1
    81    67    66   ar
    82    16    15    1
    83     8     6    1
    84    66    65    1
    85    15    14    1
    86    14    13    1
    87     3     2    1
    88     3     4    2
    89     2     5    1
    90     2     1    1
    91    38    39    2
    92    38    40   am
    93    13    10    1
    94    10     9    1
    95    57    58    1
    96    57    56    1
    97     5     6    1
    98     6     7    1
    99    65    62    1
   100    58    59    2
   101    40    41    1
   102    56    51   am
   103    74    73    1
   104    69    70    1
   105    62    61    1
   106    62    63    1
   107    70    73    1
   108    70    71    1
   109    75    73    1
   110    72    71    2
   111    51    52    2
   112    51    50    1
   113    41    42    1
   114    41    44    1
   115    64    63    2
   116    49    42   am
   117    49    50    1
   118    53    50    1
   119    53    55    1
   120    53    54    1
   121    48    47    1
   122    42    43    2
   123    45    44    1
   124    45    46    1
   125    46    47    1
