@<TRIPOS>MOLECULE
tmp/5dn6G01.pdb
 185 178 0 0 0
SMALL
GASTEIGER

@<TRIPOS>ATOM
      1  N         92.1270  -28.3900   76.6430 N.3   151  GLY151     -0.1210
      2  CA        92.5170  -27.4030   77.6330 C.3   151  GLY151      0.1956
      3  C         91.3970  -27.1880   78.6320 C.2   151  GLY151      0.2612
      4  O         90.3730  -27.8720   78.5870 O.2   151  GLY151     -0.2717
      5  N         91.5840  -26.2440   79.5430 N.am  152  ALA152     -0.1965
      6  CA        90.5840  -25.9880   80.5840 C.3   152  ALA152      0.1728
      7  C         89.3050  -25.3530   80.0070 C.2   152  ALA152      0.2617
      8  O         89.3550  -24.2700   79.4210 O.2   152  ALA152     -0.2715
      9  CB        91.1720  -25.1090   81.6760 C.3   152  ALA152      0.0334
     10  N         88.1770  -26.0470   80.1650 N.am  153  GLY153     -0.1940
     11  CA        86.8670  -25.5390   79.7630 C.3   153  GLY153      0.2014
     12  C         86.5460  -25.5370   78.2750 C.2   153  GLY153      0.2639
     13  O         85.8170  -24.6660   77.8060 O.2   153  GLY153     -0.2714
     14  N         87.0540  -26.5090   77.5240 N.am  154  VAL154     -0.1963
     15  CA        86.7210  -26.5960   76.0940 C.3   154  VAL154      0.1727
     16  C         85.6630  -27.6530   75.7690 C.2   154  VAL154      0.2617
     17  O         85.1140  -27.6470   74.6660 O.2   154  VAL154     -0.2715
     18  CB        87.9790  -26.7390   75.2070 C.3   154  VAL154      0.0290
     19  CG1       88.9230  -25.5810   75.4680 C.3   154  VAL154      0.0023
     20  CG2       88.7010  -28.0560   75.4300 C.3   154  VAL154      0.0023
     21  N         85.3820  -28.5520   76.7190 N.am  155  GLY155     -0.1940
     22  CA        84.2680  -29.4970   76.6180 C.3   155  GLY155      0.2014
     23  C         84.5720  -30.9840   76.6920 C.2   155  GLY155      0.2639
     24  O         83.7510  -31.7910   76.2580 O.2   155  GLY155     -0.2714
     25  N         85.7240  -31.3730   77.2320 N.am  156  LYS156     -0.1963
     26  CA        86.0510  -32.8010   77.2790 C.3   156  LYS156      0.1728
     27  C         85.1360  -33.5790   78.2380 C.2   156  LYS156      0.2617
     28  O         84.7290  -34.6810   77.9050 O.2   156  LYS156     -0.2715
     29  CB        87.5490  -33.0510   77.5130 C.3   156  LYS156      0.0311
     30  CG        88.0950  -32.6050   78.8330 C.3   156  LYS156      0.0038
     31  CD        89.6100  -32.6320   78.8830 C.3   156  LYS156      0.0206
     32  CE        90.0530  -31.8440   80.0920 C.3   156  LYS156      0.1093
     33  NZ        89.7820  -30.3860   79.9420 N.3   156  LYS156     -0.1314
     34  N         84.7740  -32.9980   79.3800 N.am  157  THR157     -0.1937
     35  CA        83.8320  -33.6370   80.3230 C.3   157  THR157      0.2028
     36  C         82.4010  -33.7550   79.7500 C.2   157  THR157      0.2642
     37  O         81.7510  -34.7990   79.8840 O.2   157  THR157     -0.2714
     38  CB        83.8350  -32.8830   81.6750 C.3   157  THR157      0.1808
     39  OG1       85.1380  -32.9910   82.2620 O.3   157  THR157     -0.2208
     40  CG2       82.7900  -33.4200   82.6540 C.3   157  THR157      0.0379
     41  N         81.9170  -32.6920   79.1170 N.am  158  VAL158     -0.1977
     42  CA        80.6030  -32.7290   78.4590 C.3   158  VAL158      0.1596
     43  C         80.5870  -33.8250   77.3820 C.2   158  VAL158      0.2287
     44  O         79.5790  -34.5080   77.2050 O.2   158  VAL158     -0.2864
     45  CB        80.1940  -31.3280   77.9130 C.3   158  VAL158      0.0276
     46  CG1       79.2160  -31.4140   76.7220 C.3   158  VAL158      0.0022
     47  CG2       79.5830  -30.4880   79.0500 C.3   158  VAL158      0.0022
     48  N         89.2410  -34.8050   89.9410 N.3   182  GLU182     -0.1231
     49  CA        88.3710  -33.8310   89.3060 C.3   182  GLU182      0.1699
     50  C         87.4180  -33.2270   90.3350 C.2   182  GLU182      0.2592
     51  O         87.7370  -33.2270   91.5200 O.2   182  GLU182     -0.2718
     52  CB        87.6960  -34.4580   88.0770 C.3   182  GLU182      0.0402
     53  CG        88.6220  -34.5250   86.8670 C.3   182  GLU182      0.1161
     54  CD        89.2080  -33.1710   86.4830 C.2   182  GLU182      0.3649
     55  OE1       88.5280  -32.1430   86.6600 O.co2 182  GLU182     -0.2457
     56  OE2       90.3530  -33.1260   85.9960 O.co2 182  GLU182     -0.2457
     57  N         86.3050  -32.6420   89.8950 N.am  183  ARG183     -0.1980
     58  CA        85.4070  -31.9120   90.7930 C.3   183  ARG183      0.1597
     59  C         84.4440  -32.8280   91.5280 C.2   183  ARG183      0.2287
     60  O         83.7010  -33.5900   90.9090 O.2   183  ARG183     -0.2864
     61  CB        84.6080  -30.8620   90.0190 C.3   183  ARG183      0.0334
     62  CG        85.4760  -29.7660   89.4460 C.3   183  ARG183      0.0492
     63  CD        84.7060  -28.7670   88.6050 C.3   183  ARG183      0.2205
     64  NE        85.6360  -27.7890   88.0540 N.pl3 183  ARG183     -0.0865
     65  CZ        86.4510  -28.0060   87.0200 C.cat 183  ARG183      0.5346
     66  NH1       86.4510  -29.1690   86.3680 N.pl3 183  ARG183      0.1354
     67  NH2       87.2770  -27.0400   86.6280 N.pl3 183  ARG183      0.1354
     68  N         81.1190  -32.4130   90.3280 N.3   186  GLU186     -0.1245
     69  CA        80.8650  -33.1960   89.1140 C.3   186  GLU186      0.1567
     70  C         80.4730  -34.6430   89.4320 C.2   186  GLU186      0.2260
     71  O         79.6580  -35.2280   88.7220 O.2   186  GLU186     -0.2867
     72  CB        82.0600  -33.1470   88.1510 C.3   186  GLU186      0.0388
     73  CG        82.1960  -31.8120   87.4270 C.3   186  GLU186      0.1160
     74  CD        83.5340  -31.6190   86.7180 C.2   186  GLU186      0.3649
     75  OE1       84.4870  -32.3850   86.9680 O.co2 186  GLU186     -0.2457
     76  OE2       83.6460  -30.6720   85.9150 O.co2 186  GLU186     -0.2457
     77  N         87.7770  -39.5810   84.0540 N.3   251  ASP251     -0.1225
     78  CA        87.9190  -38.1310   84.0550 C.3   251  ASP251      0.1805
     79  C         88.6820  -37.7900   85.3300 C.2   251  ASP251      0.2597
     80  O         88.1010  -37.8910   86.4140 O.2   251  ASP251     -0.2718
     81  CB        86.5330  -37.4690   84.0440 C.3   251  ASP251      0.1424
     82  CG        86.5740  -35.9890   83.6440 C.2   251  ASP251      0.3668
     83  OD1       87.6670  -35.4510   83.3820 O.co2 251  ASP251     -0.2456
     84  OD2       85.4950  -35.3560   83.5800 O.co2 251  ASP251     -0.2456
     85  N         89.9660  -37.4280   85.2750 N.am  252  ASN252     -0.1974
     86  CA        90.7880  -37.1890   84.0860 C.3   252  ASN252      0.1688
     87  C         92.1430  -37.8850   84.3160 C.2   252  ASN252      0.2292
     88  O         92.7050  -37.7610   85.4080 O.2   252  ASN252     -0.2864
     89  CB        90.9670  -35.6620   83.9800 C.3   252  ASN252      0.1181
     90  CG        91.6260  -35.2060   82.6890 C.2   252  ASN252      0.2629
     91  OD1       92.7800  -35.5290   82.4270 O.2   252  ASN252     -0.2716
     92  ND2       90.9150  -34.3940   81.9090 N.am  252  ASN252     -0.0877
     93  N         95.4900  -36.2160   85.8100 N.3   255  ARG255     -0.1245
     94  CA        95.5850  -36.1190   87.2610 C.3   255  ARG255      0.1563
     95  C         96.3680  -37.2470   87.9140 C.2   255  ARG255      0.2260
     96  O         96.8680  -37.0630   89.0160 O.2   255  ARG255     -0.2867
     97  CB        94.1900  -36.0600   87.8960 C.3   255  ARG255      0.0307
     98  CG        93.3350  -34.8820   87.4510 C.3   255  ARG255      0.0489
     99  CD        93.9210  -33.5340   87.8390 C.3   255  ARG255      0.2205
    100  NE        93.0780  -32.4420   87.3540 N.pl3 255  ARG255     -0.0865
    101  CZ        93.3880  -31.1440   87.3810 C.cat 255  ARG255      0.5346
    102  NH1       94.5510  -30.7140   87.8750 N.pl3 255  ARG255      0.1354
    103  NH2       92.5170  -30.2630   86.9010 N.pl3 255  ARG255      0.1354
    104  N         93.5590  -33.7810   80.3600 N.3   306  TYR306     -0.1241
    105  CA        93.7840  -32.3480   80.5680 C.3   306  TYR306      0.1605
    106  C         95.0400  -31.9080   79.8320 C.2   306  TYR306      0.2264
    107  O         96.0100  -32.6590   79.7560 O.2   306  TYR306     -0.2867
    108  CB        93.8850  -32.0160   82.0590 C.3   306  TYR306      0.0534
    109  CG        94.0980  -30.5470   82.3670 C.ar  306  TYR306     -0.0201
    110  CD1       93.0730  -29.6150   82.1650 C.ar  306  TYR306     -0.0009
    111  CD2       95.3190  -30.0890   82.8680 C.ar  306  TYR306     -0.0009
    112  CE1       93.2590  -28.2670   82.4450 C.ar  306  TYR306      0.0417
    113  CE2       95.5170  -28.7460   83.1570 C.ar  306  TYR306      0.0417
    114  CZ        94.4880  -27.8380   82.9450 C.ar  306  TYR306      0.1957
    115  OH        94.6770  -26.5050   83.2280 O.3   306  TYR306     -0.2866
    116  N         80.2830  -26.5750   68.8840 N.3   340  TYR340     -0.1228
    117  CA        80.3200  -27.6750   69.8320 C.3   340  TYR340      0.1721
    118  C         79.7990  -28.9530   69.1720 C.2   340  TYR340      0.2437
    119  O         78.8280  -28.8970   68.4120 O.2   340  TYR340     -0.2733
    120  CB        79.4850  -27.3480   71.0610 C.3   340  TYR340      0.0547
    121  CG        80.1230  -26.3130   71.9520 C.ar  340  TYR340     -0.0200
    122  CD1       81.2500  -26.6260   72.7100 C.ar  340  TYR340     -0.0009
    123  CD2       79.6110  -25.0180   72.0330 C.ar  340  TYR340     -0.0009
    124  CE1       81.8420  -25.6810   73.5370 C.ar  340  TYR340      0.0417
    125  CE2       80.2000  -24.0640   72.8510 C.ar  340  TYR340      0.0417
    126  CZ        81.3140  -24.4000   73.6010 C.ar  340  TYR340      0.1957
    127  OH        81.9010  -23.4600   74.4130 O.3   340  TYR340     -0.2866
    128  N         80.4270  -30.0990   69.4450 N.am  341  PRO341     -0.2729
    129  CA        81.6430  -30.2060   70.2570 C.3   341  PRO341      0.1401
    130  C         82.8320  -29.5460   69.5610 C.2   341  PRO341      0.2269
    131  O         82.9330  -29.6080   68.3340 O.2   341  PRO341     -0.2865
    132  CB        81.8570  -31.7150   70.3540 C.3   341  PRO341      0.0296
    133  CG        81.2830  -32.2490   69.0850 C.3   341  PRO341      0.0237
    134  CD        80.1420  -31.3430   68.7080 C.3   341  PRO341      0.0939
    135  N         76.9610  -30.0380   66.6780 N.3   411  GLN411     -0.1245
    136  CA        75.8650  -30.9310   67.0120 C.3   411  GLN411      0.1566
    137  C         75.2710  -30.6530   68.3890 C.2   411  GLN411      0.2260
    138  O         76.0130  -30.4980   69.3580 O.2   411  GLN411     -0.2867
    139  CB        76.3640  -32.3680   66.9580 C.3   411  GLN411      0.0367
    140  CG        75.2600  -33.4060   66.9460 C.3   411  GLN411      0.0905
    141  CD        75.7690  -34.8090   66.6860 C.2   411  GLN411      0.2608
    142  OE1       76.8390  -35.0050   66.1020 O.2   411  GLN411     -0.2717
    143  NE2       74.9900  -35.8000   67.1080 N.am  411  GLN411     -0.0878
    144  N         74.0520  -31.6410   71.6960 N.3   413  PHE413     -0.1241
    145  CA        74.2190  -32.7610   72.6090 C.3   413  PHE413      0.1605
    146  C         73.0180  -32.8510   73.5490 C.2   413  PHE413      0.2264
    147  O         72.5090  -31.8330   74.0110 O.2   413  PHE413     -0.2867
    148  CB        75.5380  -32.6110   73.3910 C.3   413  PHE413      0.0534
    149  CG        76.7650  -33.1370   72.6710 C.ar  413  PHE413     -0.0203
    150  CD1       76.7490  -33.4880   71.3140 C.ar  413  PHE413     -0.0042
    151  CD2       77.9570  -33.2830   73.3710 C.ar  413  PHE413     -0.0042
    152  CE1       77.8870  -33.9760   70.6900 C.ar  413  PHE413     -0.0003
    153  CE2       79.0980  -33.7630   72.7450 C.ar  413  PHE413     -0.0003
    154  CZ        79.0600  -34.1200   71.4060 C.ar  413  PHE413     -0.0000
    155  N         73.8440  -31.5950   76.7870 N.3   416  ALA416     -0.1245
    156  CA        74.0080  -30.1430   76.7460 C.3   416  ALA416      0.1562
    157  C         72.7110  -29.3180   76.7420 C.2   416  ALA416      0.2260
    158  O         72.7740  -28.0870   76.6960 O.2   416  ALA416     -0.2867
    159  CB        74.8580  -29.7690   75.5430 C.3   416  ALA416      0.0290
    160  N         72.3670  -26.0970   78.4550 N.3   419  PHE419     -0.1227
    161  CA        73.1350  -24.9690   77.9180 C.3   419  PHE419      0.1736
    162  C         72.5290  -24.3640   76.6420 C.2   419  PHE419      0.2596
    163  O         72.4480  -23.1390   76.5190 O.2   419  PHE419     -0.2718
    164  CB        74.5810  -25.3960   77.6330 C.3   419  PHE419      0.0547
    165  CG        75.2860  -26.0340   78.8060 C.ar  419  PHE419     -0.0202
    166  CD1       75.4520  -25.3430   80.0060 C.ar  419  PHE419     -0.0042
    167  CD2       75.8140  -27.3200   78.7000 C.ar  419  PHE419     -0.0042
    168  CE1       76.1100  -25.9320   81.0790 C.ar  419  PHE419     -0.0003
    169  CE2       76.4750  -27.9120   79.7690 C.ar  419  PHE419     -0.0003
    170  CZ        76.6220  -27.2160   80.9610 C.ar  419  PHE419     -0.0000
    171  N         72.1240  -25.2190   75.7040 N.am  420  THR420     -0.1953
    172  CA        71.6140  -24.7850   74.3970 C.3   420  THR420      0.1897
    173  C         70.1330  -24.4140   74.4230 C.2   420  THR420      0.2313
    174  O         69.6740  -23.6200   73.6050 O.2   420  THR420     -0.2863
    175  CB        71.7770  -25.8970   73.3380 C.3   420  THR420      0.1794
    176  OG1       71.0120  -27.0430   73.7370 O.3   420  THR420     -0.2208
    177  CG2       73.2520  -26.2870   73.1590 C.3   420  THR420      0.0378
    178  N         74.4100  -26.4170   64.1810 N.3   454  MET454     -0.1245
    179  CA        73.6820  -27.0920   65.2680 C.3   454  MET454      0.1570
    180  C         72.4410  -27.8640   64.7860 C.2   454  MET454      0.2261
    181  O         71.3050  -27.5180   65.1160 O.2   454  MET454     -0.2867
    182  CB        73.3180  -26.0840   66.3770 C.3   454  MET454      0.0387
    183  CG        74.4550  -25.7650   67.3400 C.3   454  MET454      0.0595
    184  SD        74.8110  -27.0680   68.5310 S.3   454  MET454     -0.1393
    185  CE        73.4330  -26.9030   69.6730 C.3   454  MET454      0.0692
@<TRIPOS>BOND
     1   178   179    1
     2   180   181    2
     3   180   179    1
     4   179   182    1
     5   142   141    2
     6   182   183    1
     7   135   136    1
     8   141   140    1
     9   141   143   am
    10   140   139    1
    11   139   136    1
    12   136   137    1
    13   183   184    1
    14   131   130    2
    15   137   138    2
    16   119   118    2
    17   184   185    1
    18   134   133    1
    19   134   128    1
    20   116   117    1
    21   133   132    1
    22   118   128   am
    23   118   117    1
    24   128   129    1
    25   130   129    1
    26   117   120    1
    27   129   132    1
    28   152   150   ar
    29   152   154   ar
    30   120   121    1
    31   150   149   ar
    32   154   153   ar
    33   144   145    1
    34   121   123   ar
    35   121   122   ar
    36   123   125   ar
    37   145   148    1
    38   145   146    1
    39   149   151   ar
    40   149   148    1
    41   122   124   ar
    42   153   151   ar
    43   125   126   ar
    44   177   175    1
    45   175   176    1
    46   175   172    1
    47   124   126   ar
    48   146   147    2
    49   126   127    1
    50   174   173    2
    51   172   173    1
    52   172   171    1
    53    17    16    2
    54    18    20    1
    55    18    19    1
    56    18    15    1
    57   159   156    1
    58   171   162   am
    59    16    15    1
    60    16    21   am
    61    15    14    1
    62    24    23    2
    63   163   162    2
    64    22    23    1
    65    22    21    1
    66   162   161    1
    67     1     2    1
    68    23    25   am
    69   158   157    2
    70    46    45    1
    71   157   156    1
    72   156   155    1
    73    44    43    2
    74    25    26    1
    75    26    29    1
    76    26    27    1
    77    43    42    1
    78    29    30    1
    79    14    12   am
    80   164   161    1
    81   164   165    1
    82     2     3    1
    83    13    12    2
    84    28    27    2
    85    45    42    1
    86    45    47    1
    87   161   160    1
    88    27    34   am
    89    12    11    1
    90    42    41    1
    91     4     3    2
    92     3     5   am
    93   167   165   ar
    94   167   169   ar
    95   165   166   ar
    96    30    31    1
    97    31    32    1
    98    41    36   am
    99    34    35    1
   100     8     7    2
   101     5     6    1
   102    36    37    2
   103    36    35    1
   104   107   106    2
   105    11    10    1
   106   169   170   ar
   107   106   105    1
   108    33    32    1
   109   166   168   ar
   110     7    10   am
   111     7     6    1
   112    35    38    1
   113   104   105    1
   114   105   108    1
   115     6     9    1
   116   170   168   ar
   117    38    39    1
   118    38    40    1
   119    92    90   am
   120   108   109    1
   121   110   109   ar
   122   110   112   ar
   123   109   111   ar
   124    91    90    2
   125   112   114   ar
   126    90    89    1
   127   111   113   ar
   128   114   113   ar
   129   114   115    1
   130    83    82   ar
   131    84    82   ar
   132    82    81    1
   133    89    86    1
   134    81    78    1
   135    77    78    1
   136    78    79    1
   137    86    87    1
   138    86    85    1
   139    87    88    2
   140    85    79   am
   141    79    80    2
   142    93    94    1
   143    76    74   ar
   144    56    54   ar
   145    66    65    1
   146    54    55   ar
   147    54    53    1
   148    67    65    1
   149    74    75   ar
   150    74    73    1
   151    53    52    1
   152   103   101    1
   153    65    64    2
   154    94    97    1
   155    94    95    1
   156   100   101    2
   157   100    99    1
   158   101   102    1
   159    73    72    1
   160    98    99    1
   161    98    97    1
   162    95    96    2
   163    64    63    1
   164    52    49    1
   165    72    69    1
   166    63    62    1
   167    71    70    2
   168    69    70    1
   169    69    68    1
   170    49    48    1
   171    49    50    1
   172    62    61    1
   173    57    50   am
   174    57    58    1
   175    61    58    1
   176    50    51    2
   177    58    59    1
   178    60    59    2
