@<TRIPOS>MOLECULE
tmp/5dn8A01.pdb
 109 103 0 0 0
SMALL
GASTEIGER

@<TRIPOS>ATOM
      1  N         -3.6030   -7.6020   -2.8630 N.3    12  PRO12      -0.2102
      2  CA        -4.5130   -7.3330   -3.9690 C.3    12  PRO12       0.1504
      3  C         -4.7150   -5.8180   -4.1800 C.2    12  PRO12       0.2576
      4  O         -4.6770   -5.0230   -3.2000 O.2    12  PRO12      -0.2718
      5  CB        -5.8410   -7.9720   -3.5030 C.3    12  PRO12       0.0282
      6  CG        -5.4430   -8.9970   -2.4880 C.3    12  PRO12       0.0208
      7  CD        -4.2070   -8.4690   -1.8280 C.3    12  PRO12       0.0893
      8  N         -4.9220   -5.4360   -5.4380 N.am   13  ASN13      -0.1961
      9  CA        -5.2230   -4.0620   -5.8350 C.3    13  ASN13       0.1819
     10  C         -4.0610   -3.0840   -5.8210 C.2    13  ASN13       0.2621
     11  O         -4.2880   -1.8860   -5.8450 O.2    13  ASN13      -0.2715
     12  CB        -6.3860   -3.4920   -5.0130 C.3    13  ASN13       0.1195
     13  CG        -7.6650   -4.2970   -5.1760 C.2    13  ASN13       0.2630
     14  OD1       -7.9420   -4.8360   -6.2500 O.2    13  ASN13      -0.2716
     15  ND2       -8.4600   -4.3680   -4.1130 N.am   13  ASN13      -0.0877
     16  N         -2.8310   -3.5850   -5.7950 N.am   14  VAL14      -0.1963
     17  CA        -1.6400   -2.6900   -5.8640 C.3    14  VAL14       0.1727
     18  C         -1.1710   -2.4230   -7.2920 C.2    14  VAL14       0.2617
     19  O         -0.4110   -1.4730   -7.5240 O.2    14  VAL14      -0.2715
     20  CB        -0.4460   -3.1520   -4.9970 C.3    14  VAL14       0.0290
     21  CG1       -0.8530   -3.2350   -3.5230 C.3    14  VAL14       0.0023
     22  CG2        0.1450   -4.4630   -5.4880 C.3    14  VAL14       0.0023
     23  N         -1.6110   -3.2430   -8.2500 N.am   15  GLY15      -0.1940
     24  CA        -1.2350   -3.0720   -9.6580 C.3    15  GLY15       0.2014
     25  C         -0.4250   -4.1970  -10.3000 C.2    15  GLY15       0.2639
     26  O          0.1620   -3.9910  -11.3510 O.2    15  GLY15      -0.2714
     27  N         -0.4210   -5.3950   -9.7050 N.am   16  LYS16      -0.1963
     28  CA         0.3970   -6.5080  -10.2310 C.3    16  LYS16       0.1728
     29  C         -0.0070   -6.9140  -11.6370 C.2    16  LYS16       0.2617
     30  O          0.8600   -7.0600  -12.4900 O.2    16  LYS16      -0.2715
     31  CB         0.3570   -7.7340   -9.3120 C.3    16  LYS16       0.0311
     32  CG         0.8810   -7.4500   -7.8980 C.3    16  LYS16       0.0038
     33  CD         0.8560   -8.6700   -6.9940 C.3    16  LYS16       0.0206
     34  CE        -0.5020   -9.3170   -6.8040 C.3    16  LYS16       0.1093
     35  NZ        -1.5640   -8.4480   -6.2210 N.3    16  LYS16      -0.1314
     36  N         -1.3040   -7.1120  -11.8760 N.am   17  SER17      -0.1936
     37  CA        -1.7510   -7.5400  -13.2100 C.3    17  SER17       0.2055
     38  C         -1.5270   -6.4340  -14.2410 C.2    17  SER17       0.2643
     39  O         -1.2060   -6.7230  -15.4130 O.2    17  SER17      -0.2714
     40  CB        -3.2030   -8.0200  -13.2010 C.3    17  SER17       0.2130
     41  OG        -4.1330   -6.9600  -13.0650 O.3    17  SER17      -0.2179
     42  N         -1.6670   -5.1790  -13.8060 N.am   18  THR18      -0.1950
     43  CA        -1.4080   -4.0250  -14.6880 C.3    18  THR18       0.1897
     44  C          0.0730   -4.0000  -15.1010 C.2    18  THR18       0.2313
     45  O          0.4090   -3.8110  -16.2800 O.2    18  THR18      -0.2863
     46  CB        -1.8420   -2.6920  -14.0230 C.3    18  THR18       0.1794
     47  OG1       -3.2150   -2.7770  -13.5980 O.3    18  THR18      -0.2208
     48  CG2       -1.6980   -1.5190  -14.9710 C.3    18  THR18       0.0378
     49  N          2.8400  -13.5960  -12.3410 N.3    57  ASP57      -0.1239
     50  CA         1.9820  -12.7290  -11.5190 C.3    57  ASP57       0.1674
     51  C          1.3750  -13.6200  -10.4680 C.2    57  ASP57       0.2266
     52  O          0.4170  -14.3270  -10.7600 O.2    57  ASP57      -0.2867
     53  CB         0.8700  -12.0580  -12.3180 C.3    57  ASP57       0.1410
     54  CG        -0.0540  -11.2020  -11.4330 C.2    57  ASP57       0.3668
     55  OD1        0.2040  -11.1560  -10.2130 O.co2  57  ASP57      -0.2456
     56  OD2       -1.0280  -10.6000  -11.9580 O.co2  57  ASP57      -0.2456
     57  N         -0.4850  -12.9530   -8.1410 N.3    59  GLY59      -0.1225
     58  CA        -1.8690  -12.6000   -7.8880 C.3    59  GLY59       0.1811
     59  C         -2.7970  -13.4000   -8.7870 C.2    59  GLY59       0.2280
     60  O         -3.9420  -13.6280   -8.4500 O.2    59  GLY59      -0.2866
     61  N         -0.6530    5.3720   -3.0950 N.3    83  LYS83      -0.1245
     62  CA        -1.8810    6.0050   -2.5880 C.3    83  LYS83       0.1561
     63  C         -2.2940    5.5280   -1.2100 C.2    83  LYS83       0.2260
     64  O         -2.9600    6.2570   -0.4690 O.2    83  LYS83      -0.2867
     65  CB        -3.0060    5.8200   -3.5960 C.3    83  LYS83       0.0271
     66  CG        -2.6510    6.4750   -4.9450 C.3    83  LYS83       0.0035
     67  CD        -3.7460    6.3980   -5.9680 C.3    83  LYS83       0.0206
     68  CE        -3.2920    7.0080   -7.2830 C.3    83  LYS83       0.1093
     69  NZ        -2.8510    8.4220   -7.1520 N.3    83  LYS83      -0.1314
     70  N          4.0320    1.4580   -6.6810 N.3   109  ASN109     -0.1225
     71  CA         3.1740    1.7120   -7.8440 C.3   109  ASN109      0.1785
     72  C          2.1470    2.7950   -7.5790 C.2   109  ASN109      0.2597
     73  O          1.9300    3.2180   -6.4330 O.2   109  ASN109     -0.2718
     74  CB         2.4660    0.4160   -8.2720 C.3   109  ASN109      0.1169
     75  CG         1.8000    0.5300   -9.6250 C.2   109  ASN109      0.2627
     76  OD1        2.3690    1.0950  -10.5560 O.2   109  ASN109     -0.2716
     77  ND2        0.6460   -0.0600   -9.7610 N.am  109  ASN109     -0.0877
     78  N          1.5070    3.2460   -8.6520 N.am  110  LYS110     -0.1980
     79  CA         0.4950    4.3240   -8.5870 C.3   110  LYS110      0.1596
     80  C          1.1110    5.6750   -8.2190 C.2   110  LYS110      0.2287
     81  O          0.4590    6.5550   -7.6290 O.2   110  LYS110     -0.2864
     82  CB        -0.7000    3.9660   -7.6860 C.3   110  LYS110      0.0298
     83  CG        -1.2850    2.5880   -7.9350 C.3   110  LYS110      0.0038
     84  CD        -2.6460    2.4300   -7.2810 C.3   110  LYS110      0.0206
     85  CE        -3.1380    1.0000   -7.3920 C.3   110  LYS110      0.1093
     86  NZ        -4.4960    0.8130   -6.8230 N.3   110  LYS110     -0.1314
     87  N          1.8820    7.9180  -10.2770 N.3   112  ASP112     -0.1239
     88  CA         1.2320    8.8380  -11.1970 C.3   112  ASP112      0.1674
     89  C          2.1580   10.0370  -11.4690 C.2   112  ASP112      0.2266
     90  O          3.2500    9.8130  -11.9910 O.2   112  ASP112     -0.2867
     91  CB        -0.1860    9.1190  -10.7330 C.3   112  ASP112      0.1410
     92  CG        -1.0480    7.8350  -10.7220 C.2   112  ASP112      0.3668
     93  OD1       -0.5800    6.7870  -11.2510 O.co2 112  ASP112     -0.2456
     94  OD2       -2.1780    7.8560  -10.1730 O.co2 112  ASP112     -0.2456
     95  N          4.6490    3.8400  -12.1760 N.3   135  ALA135     -0.1231
     96  CA         3.2290    3.9400  -12.4090 C.3   135  ALA135      0.1694
     97  C          2.9460    2.9900  -13.5750 C.2   135  ALA135      0.2592
     98  O          3.2040    3.3310  -14.7360 O.2   135  ALA135     -0.2718
     99  CB         2.7700    5.3630  -12.7120 C.3   135  ALA135      0.0304
    100  N          2.4250    1.8080  -13.2650 N.am  136  ALA136     -0.1966
    101  CA         2.1180    0.8180  -14.3140 C.3   136  ALA136      0.1728
    102  C          1.0900    1.3460  -15.3140 C.2   136  ALA136      0.2616
    103  O          1.0600    0.8990  -16.4510 O.2   136  ALA136     -0.2715
    104  CB         1.6440   -0.4880  -13.7040 C.3   136  ALA136      0.0334
    105  N          0.2480    2.2910  -14.9090 N.am  137  ALA137     -0.1977
    106  CA        -0.7450    2.8530  -15.8370 C.3   137  ALA137      0.1597
    107  C         -0.1210    3.7040  -16.9470 C.2   137  ALA137      0.2287
    108  O         -0.6940    3.8190  -18.0470 O.2   137  ALA137     -0.2864
    109  CB        -1.7490    3.6860  -15.0660 C.3   137  ALA137      0.0319
@<TRIPOS>BOND
     1   108   107    2
     2   107   106    1
     3   103   102    2
     4    45    44    2
     5   106   109    1
     6   106   105    1
     7    39    38    2
     8   102   105   am
     9   102   101    1
    10    44    43    1
    11    48    46    1
    12    98    97    2
    13    43    46    1
    14    43    42    1
    15   101   104    1
    16   101   100    1
    17    38    42   am
    18    38    37    1
    19    46    47    1
    20    97   100   am
    21    97    96    1
    22    37    40    1
    23    37    36    1
    24    40    41    1
    25    99    96    1
    26    30    29    2
    27    96    95    1
    28    49    50    1
    29    53    50    1
    30    53    54    1
    31    90    89    2
    32    56    54   ar
    33    36    29   am
    34    29    28    1
    35    50    51    1
    36    89    88    1
    37    54    55   ar
    38    26    25    2
    39    93    92   ar
    40    88    91    1
    41    88    87    1
    42    52    51    2
    43    91    92    1
    44    92    94   ar
    45    76    75    2
    46    25    27   am
    47    25    24    1
    48    28    27    1
    49    28    31    1
    50    77    75   am
    51    24    23    1
    52    75    74    1
    53    31    32    1
    54    59    60    2
    55    59    58    1
    56    78    79    1
    57    78    72   am
    58    79    80    1
    59    79    82    1
    60    74    71    1
    61    23    18   am
    62    80    81    2
    63    57    58    1
    64    83    82    1
    65    83    84    1
    66    32    33    1
    67    71    72    1
    68    71    70    1
    69    72    73    2
    70    19    18    2
    71    85    84    1
    72    85    86    1
    73    18    17    1
    74    68    69    1
    75    68    67    1
    76    33    34    1
    77    34    35    1
    78    14    13    2
    79    67    66    1
    80    17    16    1
    81    17    20    1
    82    11    10    2
    83     9    10    1
    84     9     8    1
    85     9    12    1
    86    10    16   am
    87    22    20    1
    88     8     3   am
    89    13    12    1
    90    13    15   am
    91    20    21    1
    92    66    65    1
    93     3     2    1
    94     3     4    2
    95     2     5    1
    96     2     1    1
    97    65    62    1
    98     5     6    1
    99    61    62    1
   100     1     7    1
   101    62    63    1
   102     6     7    1
   103    63    64    2
