@<TRIPOS>MOLECULE
tmp/5dn8A00.pdb
 114 109 0 0 0
SMALL
GASTEIGER

@<TRIPOS>ATOM
      1  N          2.4130  -34.6320  -14.7060 N.3   166  PRO166     -0.2102
      2  CA         3.0340  -35.7500  -14.0300 C.3   166  PRO166      0.1504
      3  C          2.4770  -37.1110  -14.4490 C.2   166  PRO166      0.2576
      4  O          1.2880  -37.2510  -14.7110 O.2   166  PRO166     -0.2718
      5  CB         2.6670  -35.5190  -12.5580 C.3   166  PRO166      0.0282
      6  CG         2.4860  -34.0530  -12.4390 C.3   166  PRO166      0.0208
      7  CD         1.8780  -33.6380  -13.7510 C.3   166  PRO166      0.0893
      8  N          3.3740  -38.0790  -14.5350 N.am  167  ASN167     -0.1961
      9  CA         3.0470  -39.4740  -14.8180 C.3   167  ASN167      0.1819
     10  C          2.6400  -39.8090  -16.2500 C.2   167  ASN167      0.2621
     11  O          2.2500  -40.9430  -16.5210 O.2   167  ASN167     -0.2715
     12  CB         2.0070  -39.9910  -13.7990 C.3   167  ASN167      0.1195
     13  CG         2.5440  -39.9830  -12.3690 C.2   167  ASN167      0.2630
     14  OD1        3.5690  -40.6010  -12.0770 O.2   167  ASN167     -0.2716
     15  ND2        1.8560  -39.2880  -11.4760 N.am  167  ASN167     -0.0877
     16  N          2.7820  -38.8590  -17.1770 N.am  168  VAL168     -0.1963
     17  CA         2.4140  -39.1320  -18.5810 C.3   168  VAL168      0.1727
     18  C          3.4600  -39.9950  -19.3000 C.2   168  VAL168      0.2617
     19  O          3.1710  -40.5980  -20.3320 O.2   168  VAL168     -0.2715
     20  CB         2.1280  -37.8580  -19.3970 C.3   168  VAL168      0.0290
     21  CG1        0.9520  -37.0800  -18.7900 C.3   168  VAL168      0.0023
     22  CG2        3.3710  -36.9950  -19.5540 C.3   168  VAL168      0.0023
     23  N          4.6780  -40.0280  -18.7710 N.am  169  GLY169     -0.1940
     24  CA         5.7500  -40.8420  -19.3310 C.3   169  GLY169      0.2014
     25  C          7.0320  -40.1560  -19.7220 C.2   169  GLY169      0.2639
     26  O          7.8280  -40.7350  -20.4560 O.2   169  GLY169     -0.2714
     27  N          7.2820  -38.9480  -19.2130 N.am  170  LYS170     -0.1963
     28  CA         8.4710  -38.2060  -19.6370 C.3   170  LYS170      0.1728
     29  C          9.8050  -38.9130  -19.3570 C.2   170  LYS170      0.2617
     30  O         10.6360  -39.0410  -20.2550 O.2   170  LYS170     -0.2715
     31  CB         8.4760  -36.8070  -19.0340 C.3   170  LYS170      0.0311
     32  CG         7.2440  -35.9630  -19.3830 C.3   170  LYS170      0.0038
     33  CD         7.2830  -34.5790  -18.7350 C.3   170  LYS170      0.0206
     34  CE         7.2770  -34.6290  -17.2110 C.3   170  LYS170      0.1093
     35  NZ         6.0870  -35.2730  -16.5750 N.3   170  LYS170     -0.1314
     36  N         10.0140  -39.3560  -18.1210 N.am  171  SER171     -0.1936
     37  CA        11.2850  -40.0290  -17.7870 C.3   171  SER171      0.2055
     38  C         11.4360  -41.3120  -18.5930 C.2   171  SER171      0.2643
     39  O         12.5260  -41.6220  -19.0820 O.2   171  SER171     -0.2714
     40  CB        11.4410  -40.2740  -16.2760 C.3   171  SER171      0.2130
     41  OG        10.5680  -41.2710  -15.7900 O.3   171  SER171     -0.2179
     42  N         10.3270  -42.0300  -18.7800 N.am  172  THR172     -0.1950
     43  CA        10.3470  -43.2770  -19.5420 C.3   172  THR172      0.1897
     44  C         10.7410  -43.0200  -20.9720 C.2   172  THR172      0.2313
     45  O         11.5500  -43.7700  -21.5290 O.2   172  THR172     -0.2863
     46  CB         8.9760  -43.9980  -19.4880 C.3   172  THR172      0.1794
     47  OG1        8.6230  -44.2320  -18.1270 O.3   172  THR172     -0.2208
     48  CG2        9.0290  -45.3100  -20.2260 C.3   172  THR172      0.0378
     49  N         16.0250  -38.6030  -11.2930 N.3   211  ARG211     -0.1245
     50  CA        15.1060  -39.2480  -10.3360 C.3   211  ARG211      0.1563
     51  C         14.7820  -40.6710  -10.7820 C.2   211  ARG211      0.2260
     52  O         14.6950  -41.5720   -9.9520 O.2   211  ARG211     -0.2867
     53  CB        13.8010  -38.4840  -10.1070 C.3   211  ARG211      0.0307
     54  CG        12.8340  -38.4830  -11.2730 C.3   211  ARG211      0.0489
     55  CD        11.3920  -38.4550  -10.7930 C.3   211  ARG211      0.2205
     56  NE        10.5170  -37.9200  -11.8230 N.pl3 211  ARG211     -0.0865
     57  CZ         9.9180  -38.6110  -12.7950 C.cat 211  ARG211      0.5346
     58  NH1       10.0540  -39.9310  -12.9260 N.pl3 211  ARG211      0.1354
     59  NH2        9.1610  -37.9520  -13.6500 N.pl3 211  ARG211      0.1354
     60  N         -4.2280  -43.1790  -21.7610 N.3   239  ARG239     -0.1245
     61  CA        -5.1410  -43.8390  -20.8080 C.3   239  ARG239      0.1563
     62  C         -6.0320  -42.8050  -20.1200 C.2   239  ARG239      0.2260
     63  O         -7.1050  -43.1380  -19.6040 O.2   239  ARG239     -0.2867
     64  CB        -4.3590  -44.6130  -19.7450 C.3   239  ARG239      0.0307
     65  CG        -3.2580  -45.5380  -20.2470 C.3   239  ARG239      0.0489
     66  CD        -3.7370  -46.5630  -21.2350 C.3   239  ARG239      0.2205
     67  NE        -2.6510  -47.4600  -21.6540 N.pl3 239  ARG239     -0.0865
     68  CZ        -2.2020  -48.4810  -20.9380 C.cat 239  ARG239      0.5346
     69  NH1       -2.7200  -48.7510  -19.7370 N.pl3 239  ARG239      0.1354
     70  NH2       -1.2240  -49.2330  -21.4060 N.pl3 239  ARG239      0.1354
     71  N          1.3060  -41.0160  -25.6900 N.3   265  ASN265     -0.1225
     72  CA         1.9700  -42.1260  -25.0310 C.3   265  ASN265      0.1785
     73  C          1.0080  -43.1150  -24.3630 C.2   265  ASN265      0.2597
     74  O         -0.1850  -42.8160  -24.1850 O.2   265  ASN265     -0.2718
     75  CB         2.9720  -41.5430  -24.0140 C.3   265  ASN265      0.1169
     76  CG         3.9700  -42.5660  -23.5210 C.2   265  ASN265      0.2627
     77  OD1        4.4460  -43.4030  -24.2850 O.2   265  ASN265     -0.2716
     78  ND2        4.2980  -42.5080  -22.2290 N.am  265  ASN265     -0.0877
     79  N          1.5450  -44.2790  -23.9740 N.am  266  LYS266     -0.1980
     80  CA         0.7920  -45.3710  -23.3540 C.3   266  LYS266      0.1596
     81  C         -0.2560  -45.9160  -24.3320 C.2   266  LYS266      0.2287
     82  O         -1.3220  -46.3770  -23.9410 O.2   266  LYS266     -0.2864
     83  CB         0.1590  -44.9800  -22.0020 C.3   266  LYS266      0.0298
     84  CG         1.0940  -44.2080  -21.0850 C.3   266  LYS266      0.0038
     85  CD         0.6130  -44.1690  -19.6370 C.3   266  LYS266      0.0206
     86  CE         1.4990  -43.2830  -18.7930 C.3   266  LYS266      0.1093
     87  NZ         0.9620  -43.1580  -17.4120 N.3   266  LYS266     -0.1314
     88  N          0.1380  -48.6290  -25.9720 N.3   268  ASP268     -0.1239
     89  CA         0.1940  -50.0700  -25.8450 C.3   268  ASP268      0.1674
     90  C         -0.9740  -50.6240  -25.0810 C.2   268  ASP268      0.2266
     91  O         -1.4420  -50.0100  -24.1290 O.2   268  ASP268     -0.2867
     92  CB         1.4650  -50.5220  -25.1260 C.3   268  ASP268      0.1410
     93  CG         1.6570  -49.8240  -23.7780 C.2   268  ASP268      0.3668
     94  OD1        1.9950  -48.6270  -23.7930 O.co2 268  ASP268     -0.2456
     95  OD2        1.5010  -50.4700  -22.7160 O.co2 268  ASP268     -0.2456
     96  N          4.5850  -46.0360  -27.4900 N.3   298  SER298     -0.1202
     97  CA         4.7390  -46.6540  -26.1810 C.3   298  SER298      0.2020
     98  C          6.1810  -46.3860  -25.7480 C.2   298  SER298      0.2619
     99  O          7.1100  -47.0190  -26.2270 O.2   298  SER298     -0.2717
    100  CB         4.4720  -48.1520  -26.1690 C.3   298  SER298      0.2103
    101  OG         4.6710  -48.6600  -24.8510 O.3   298  SER298     -0.2182
    102  N          6.3780  -45.3970  -24.8910 N.am  299  ALA299     -0.1965
    103  CA         7.7220  -45.1490  -24.3640 C.3   299  ALA299      0.1728
    104  C          8.2350  -46.3940  -23.6060 C.2   299  ALA299      0.2616
    105  O          9.4320  -46.7070  -23.6090 O.2   299  ALA299     -0.2715
    106  CB         7.7140  -43.9560  -23.4480 C.3   299  ALA299      0.0334
    107  N          7.3210  -47.1080  -22.9700 N.am  300  LEU300     -0.1977
    108  CA         7.6850  -48.2910  -22.1710 C.3   300  LEU300      0.1596
    109  C          8.1920  -49.4460  -23.0330 C.2   300  LEU300      0.2287
    110  O          9.1890  -50.0740  -22.7020 O.2   300  LEU300     -0.2864
    111  CB         6.4870  -48.7540  -21.3320 C.3   300  LEU300      0.0297
    112  CG         6.6900  -49.9600  -20.3980 C.3   300  LEU300      0.0022
    113  CD1        7.7370  -49.6270  -19.3530 C.3   300  LEU300      0.0001
    114  CD2        5.3750  -50.3660  -19.7390 C.3   300  LEU300      0.0001
@<TRIPOS>BOND
     1    96    97    1
     2    99    98    2
     3    97   100    1
     4    97    98    1
     5   100   101    1
     6    88    89    1
     7    89    92    1
     8    89    90    1
     9    98   102   am
    10    71    72    1
    11    92    93    1
    12    90    91    2
    13    72    73    1
    14    72    75    1
    15   102   103    1
    16   103   104    1
    17   103   106    1
    18    73    74    2
    19    73    79   am
    20    81    82    2
    21    81    80    1
    22    77    76    2
    23    75    76    1
    24    79    80    1
    25    94    93   ar
    26    93    95   ar
    27   105   104    2
    28   104   107   am
    29    76    78   am
    30    80    83    1
    31   109   110    2
    32   109   108    1
    33   107   108    1
    34   108   111    1
    35    83    84    1
    36    60    61    1
    37    67    66    1
    38    67    68    2
    39    45    44    2
    40    70    68    1
    41   111   112    1
    42    66    65    1
    43    84    85    1
    44    44    43    1
    45    68    69    1
    46    61    62    1
    47    61    64    1
    48    26    25    2
    49   112   114    1
    50   112   113    1
    51    19    18    2
    52    30    29    2
    53    65    64    1
    54    48    46    1
    55    62    63    2
    56    25    24    1
    57    25    27   am
    58    85    86    1
    59    28    29    1
    60    28    27    1
    61    28    31    1
    62    22    20    1
    63    43    46    1
    64    43    42    1
    65    46    47    1
    66    20    21    1
    67    20    17    1
    68    32    31    1
    69    32    33    1
    70    29    36   am
    71    24    23    1
    72    18    23   am
    73    18    17    1
    74    39    38    2
    75    86    87    1
    76    42    38   am
    77    33    34    1
    78    38    37    1
    79    17    16    1
    80    36    37    1
    81    37    40    1
    82    34    35    1
    83    16    10   am
    84    11    10    2
    85    40    41    1
    86    10     9    1
    87     9     8    1
    88     9    12    1
    89     4     3    2
    90     1     2    1
    91     1     7    1
    92     8     3   am
    93     3     2    1
    94     2     5    1
    95    12    13    1
    96     7     6    1
    97    59    57    1
    98    58    57    1
    99    57    56    2
   100     5     6    1
   101    13    14    2
   102    13    15   am
   103    56    55    1
   104    49    50    1
   105    54    55    1
   106    54    53    1
   107    51    50    1
   108    51    52    2
   109    50    53    1
