@<TRIPOS>MOLECULE
tmp/5dndD00.pdb
 83 78 0 0 0
SMALL
GASTEIGER

@<TRIPOS>ATOM
      1  N         23.7450    8.3990   35.0600 N.3    11  GLY11      -0.1210
      2  CA        24.2000    9.7820   35.1000 C.3    11  GLY11       0.1956
      3  C         25.2440   10.0340   36.1740 C.2    11  GLY11       0.2612
      4  O         25.4090    9.2370   37.0840 O.2    11  GLY11      -0.2717
      5  N         25.9280   11.1680   36.0550 N.am   12  THR12      -0.1952
      6  CA        27.0040   11.5490   36.9300 C.3    12  THR12       0.1897
      7  C         26.6140   11.5160   38.3950 C.2    12  THR12       0.2313
      8  O         27.4520   11.2390   39.2380 O.2    12  THR12      -0.2863
      9  CB        27.5050   12.9530   36.5620 C.3    12  THR12       0.1794
     10  OG1       28.0390   12.9160   35.2400 O.3    12  THR12      -0.2208
     11  CG2       28.5880   13.4200   37.4940 C.3    12  THR12       0.0378
     12  N         27.8510    8.2310   39.5530 N.3    15  MET15      -0.1245
     13  CA        29.0030    7.6060   38.9030 C.3    15  MET15       0.1570
     14  C         30.1520    7.3520   39.8570 C.2    15  MET15       0.2261
     15  O         30.1990    7.9130   40.9550 O.2    15  MET15      -0.2867
     16  CB        29.4730    8.4410   37.7080 C.3    15  MET15       0.0387
     17  CG        28.5360    8.3240   36.5220 C.3    15  MET15       0.0595
     18  SD        29.1850    8.9360   34.9610 S.3    15  MET15      -0.1393
     19  CE        27.7810    8.6540   33.8950 C.3    15  MET15       0.0692
     20  N         25.3720    6.3150   31.1280 N.3    77  ASP77      -0.1225
     21  CA        25.7320    7.6990   30.8430 C.3    77  ASP77       0.1805
     22  C         24.6740    8.2000   29.8860 C.2    77  ASP77       0.2598
     23  O         24.3730    7.5320   28.9130 O.2    77  ASP77      -0.2718
     24  CB        27.1050    7.7480   30.1730 C.3    77  ASP77       0.1424
     25  CG        27.6340    9.1770   29.9750 C.2    77  ASP77       0.3668
     26  OD1       27.0240    9.9910   29.2210 O.co2  77  ASP77      -0.2456
     27  OD2       28.7130    9.4750   30.5300 O.co2  77  ASP77      -0.2456
     28  N         24.1060    9.3750   30.1430 N.am   78  SER78      -0.1952
     29  CA        22.9640    9.8230   29.3470 C.3    78  SER78       0.1924
     30  C         23.2950   10.0620   27.8870 C.2    78  SER78       0.2314
     31  O         22.3890   10.1410   27.0640 O.2    78  SER78      -0.2863
     32  CB        22.2730   11.0580   29.9530 C.3    78  SER78       0.2116
     33  OG        23.0230   12.2450   29.7830 O.3    78  SER78      -0.2180
     34  N         18.9640   11.1140   36.2770 N.3   107  HIS107     -0.1226
     35  CA        19.2970   11.0580   34.8670 C.3   107  HIS107      0.1752
     36  C         20.5690   11.8190   34.6160 C.2   107  HIS107      0.2597
     37  O         20.8860   12.7600   35.3250 O.2   107  HIS107     -0.2718
     38  CB        18.1640   11.7110   34.1190 C.3   107  HIS107      0.0759
     39  CG        18.1380   11.4160   32.6560 C.ar  107  HIS107      0.0818
     40  ND1       18.9920   12.0140   31.7630 N.ar  107  HIS107     -0.2268
     41  CD2       17.2970   10.6560   31.9200 C.ar  107  HIS107      0.1154
     42  CE1       18.7170   11.5950   30.5460 C.ar  107  HIS107      0.1986
     43  NE2       17.6910   10.7710   30.6170 N.ar  107  HIS107     -0.2212
     44  N         21.3230   11.3950   33.6180 N.am  108  GLY108     -0.1942
     45  CA        22.5340   12.1130   33.2380 C.3   108  GLY108      0.2014
     46  C         22.1520   13.4760   32.7040 C.2   108  GLY108      0.2639
     47  O         21.0740   13.6570   32.1660 O.2   108  GLY108     -0.2714
     48  N         23.0620   14.4300   32.8320 N.am  109  ALA109     -0.1963
     49  CA        22.8110   15.7910   32.3530 C.3   109  ALA109      0.1728
     50  C         22.9820   15.9590   30.8390 C.2   109  ALA109      0.2616
     51  O         22.2990   16.7540   30.2490 O.2   109  ALA109     -0.2715
     52  CB        23.6980   16.7730   33.0970 C.3   109  ALA109      0.0334
     53  N         23.8960   15.2220   30.2210 N.am  110  ASP110     -0.1971
     54  CA        24.1890   15.4010   28.8040 C.3   110  ASP110      0.1709
     55  C         22.9560   15.4090   27.9060 C.2   110  ASP110      0.2293
     56  O         22.9090   16.1780   26.9510 O.2   110  ASP110     -0.2864
     57  CB        25.1580   14.3260   28.3180 C.3   110  ASP110      0.1436
     58  CG        26.5800   14.4790   28.8980 C.2   110  ASP110      0.3671
     59  OD1       26.9220   15.5610   29.4690 O.co2 110  ASP110     -0.2456
     60  OD2       27.3600   13.4790   28.7780 O.co2 110  ASP110     -0.2456
     61  N         23.2420   15.7500   38.2800 N.3   135  ALA135     -0.1231
     62  CA        24.2900   16.4830   38.9440 C.3   135  ALA135      0.1694
     63  C         25.5030   16.6170   38.0470 C.2   135  ALA135      0.2591
     64  O         25.6820   15.8110   37.1280 O.2   135  ALA135     -0.2718
     65  CB        24.6690   15.7800   40.2290 C.3   135  ALA135      0.0304
     66  N         26.3110   17.6480   38.3140 N.am  136  GLN136     -0.1979
     67  CA        27.5940   17.8330   37.6500 C.3   136  GLN136      0.1601
     68  C         28.7030   17.0970   38.3750 C.2   136  GLN136      0.2287
     69  O         29.7390   16.8430   37.8060 O.2   136  GLN136     -0.2864
     70  CB        27.9450   19.3240   37.5500 C.3   136  GLN136      0.0394
     71  CG        26.9910   20.1570   36.6960 C.3   136  GLN136      0.0908
     72  CD        27.2940   20.0680   35.1990 C.2   136  GLN136      0.2608
     73  OE1       27.4810   18.9780   34.6490 O.2   136  GLN136     -0.2717
     74  NE2       27.3060   21.2090   34.5300 N.am  136  GLN136     -0.0878
     75  N         20.3750   22.7980   27.9780 N.3   181  LYS181     -0.1245
     76  CA        21.6120   22.8210   28.7400 C.3   181  LYS181      0.1561
     77  C         22.4850   23.9310   28.2290 C.2   181  LYS181      0.2260
     78  O         22.8350   23.9320   27.0630 O.2   181  LYS181     -0.2867
     79  CB        22.3530   21.4970   28.5870 C.3   181  LYS181      0.0271
     80  CG        23.3800   21.2280   29.6730 C.3   181  LYS181      0.0035
     81  CD        24.0840   19.9060   29.4130 C.3   181  LYS181      0.0206
     82  CE        24.6530   19.2920   30.6770 C.3   181  LYS181      0.1093
     83  NZ        25.8230   20.0650   31.1700 N.3   181  LYS181     -0.1314
@<TRIPOS>BOND
     1    56    55    2
     2    78    77    2
     3    31    30    2
     4    30    29    1
     5    55    54    1
     6    75    76    1
     7    77    76    1
     8    57    54    1
     9    57    58    1
    10    79    76    1
    11    79    80    1
    12    60    58   ar
    13    54    53    1
    14    58    59   ar
    15    23    22    2
    16    26    25   ar
    17    29    32    1
    18    29    28    1
    19    81    80    1
    20    81    82    1
    21    33    32    1
    22    22    28   am
    23    22    21    1
    24    25    24    1
    25    25    27   ar
    26    24    21    1
    27    53    50   am
    28    51    50    2
    29    42    43   ar
    30    42    40   ar
    31    43    41   ar
    32    82    83    1
    33    50    49    1
    34    21    20    1
    35    40    39   ar
    36    41    39   ar
    37    47    46    2
    38    49    48    1
    39    49    52    1
    40    39    38    1
    41    46    48   am
    42    46    45    1
    43    45    44    1
    44    44    36   am
    45    19    18    1
    46    38    35    1
    47    74    72   am
    48    36    35    1
    49    36    37    2
    50    73    72    2
    51    35    34    1
    52    18    17    1
    53     1     2    1
    54     2     3    1
    55    72    71    1
    56    10     9    1
    57     5     3   am
    58     5     6    1
    59     3     4    2
    60    17    16    1
    61     9     6    1
    62     9    11    1
    63    71    70    1
    64     6     7    1
    65    64    63    2
    66    70    67    1
    67    67    66    1
    68    67    68    1
    69    16    13    1
    70    69    68    2
    71    63    66   am
    72    63    62    1
    73    61    62    1
    74     7     8    2
    75    13    12    1
    76    13    14    1
    77    62    65    1
    78    14    15    2
