@<TRIPOS>MOLECULE
tmp/5dniA00.pdb
 92 89 0 0 0
SMALL
GASTEIGER

@<TRIPOS>ATOM
      1  N         14.8400   54.9890   94.0230 N.3    43  LEU43      -0.1245
      2  CA        15.9960   55.8510   93.7830 C.3    43  LEU43       0.1561
      3  C         15.5840   57.3030   93.5370 C.2    43  LEU43       0.2260
      4  O         16.3160   58.2250   93.8770 O.2    43  LEU43      -0.2867
      5  CB        16.8050   55.3200   92.6000 C.3    43  LEU43       0.0270
      6  CG        17.4840   53.9660   92.8150 C.3    43  LEU43       0.0019
      7  CD1       18.1430   53.4550   91.5210 C.3    43  LEU43       0.0001
      8  CD2       18.5160   54.0900   93.9330 C.3    43  LEU43       0.0001
      9  N         15.9590   56.8160   98.3150 N.3    47  GLU47      -0.1231
     10  CA        16.0980   55.6200   99.1350 C.3    47  GLU47       0.1699
     11  C         17.3010   54.7810   98.6950 C.2    47  GLU47       0.2592
     12  O         17.7680   54.8870   97.5530 O.2    47  GLU47      -0.2718
     13  CB        14.8180   54.7880   99.0650 C.3    47  GLU47       0.0402
     14  CG        13.5870   55.5300   99.5340 C.3    47  GLU47       0.1161
     15  CD        12.3460   54.6900   99.4370 C.2    47  GLU47       0.3649
     16  OE1       12.3850   53.6320   98.7680 O.co2  47  GLU47      -0.2457
     17  OE2       11.3270   55.0850  100.0240 O.co2  47  GLU47      -0.2457
     18  N         17.8270   53.9790   99.6160 N.am   48  LYS48      -0.1966
     19  CA        18.9010   53.0380   99.2990 C.3    48  LYS48       0.1728
     20  C         18.2960   51.7020   98.8560 C.2    48  LYS48       0.2616
     21  O         17.2100   51.3190   99.3040 O.2    48  LYS48      -0.2715
     22  CB        19.8280   52.8410  100.5060 C.3    48  LYS48       0.0311
     23  CG        20.5570   54.0740  101.0160 C.3    48  LYS48       0.0038
     24  CD        21.3930   53.7300  102.2610 C.3    48  LYS48       0.0206
     25  CE        20.6150   53.1300  103.4530 C.3    48  LYS48       0.1093
     26  NZ        19.5520   53.9970  103.9480 N.3    48  LYS48      -0.1314
     27  N         18.9600   51.0260   97.9280 N.am   49  LEU49      -0.1977
     28  CA        18.5240   49.6960   97.5100 C.3    49  LEU49       0.1596
     29  C         19.1810   48.6860   98.4420 C.2    49  LEU49       0.2287
     30  O         20.2430   48.9670   98.9860 O.2    49  LEU49      -0.2864
     31  CB        18.9090   49.4240   96.0520 C.3    49  LEU49       0.0297
     32  CG        18.3550   50.3920   95.0090 C.3    49  LEU49       0.0022
     33  CD1       18.9390   50.0480   93.6260 C.3    49  LEU49       0.0001
     34  CD2       16.8170   50.4020   94.9960 C.3    49  LEU49       0.0001
     35  N         20.6890   46.2090   97.6170 N.3    51  PHE51      -0.1227
     36  CA        21.7500   45.6240   96.8070 C.3    51  PHE51       0.1736
     37  C         22.4340   46.7060   95.9500 C.2    51  PHE51       0.2595
     38  O         21.9030   47.8040   95.7570 O.2    51  PHE51      -0.2718
     39  CB        21.1980   44.5050   95.9180 C.3    51  PHE51       0.0547
     40  CG        19.9510   44.8870   95.1840 C.ar   51  PHE51      -0.0202
     41  CD1       20.0230   45.5600   93.9710 C.ar   51  PHE51      -0.0042
     42  CD2       18.7020   44.5720   95.7060 C.ar   51  PHE51      -0.0042
     43  CE1       18.8770   45.9180   93.3070 C.ar   51  PHE51      -0.0003
     44  CE2       17.5460   44.9230   95.0420 C.ar   51  PHE51      -0.0003
     45  CZ        17.6340   45.6040   93.8470 C.ar   51  PHE51      -0.0000
     46  N         23.6340   46.4050   95.4710 N.am   52  ASP52      -0.1960
     47  CA        24.4160   47.3860   94.7510 C.3    52  ASP52       0.1840
     48  C         24.4130   47.0830   93.2500 C.2    52  ASP52       0.2622
     49  O         24.9470   46.0630   92.8080 O.2    52  ASP52      -0.2715
     50  CB        25.8410   47.4280   95.2980 C.3    52  ASP52       0.1450
     51  CG        26.6620   48.5550   94.7040 C.2    52  ASP52       0.3671
     52  OD1       26.0770   49.4460   94.0440 O.co2  52  ASP52      -0.2456
     53  OD2       27.8940   48.5710   94.9260 O.co2  52  ASP52      -0.2456
     54  N         23.8040   47.9800   92.4810 N.am   53  LEU53      -0.1963
     55  CA        23.6920   47.8340   91.0400 C.3    53  LEU53       0.1728
     56  C         24.7770   48.6000   90.3020 C.2    53  LEU53       0.2616
     57  O         24.8180   48.5870   89.0590 O.2    53  LEU53      -0.2715
     58  CB        22.3200   48.3140   90.5750 C.3    53  LEU53       0.0311
     59  CG        21.1840   47.3560   90.8830 C.3    53  LEU53       0.0022
     60  CD1       19.8850   47.8640   90.3150 C.3    53  LEU53       0.0001
     61  CD2       21.5370   46.0000   90.3230 C.3    53  LEU53       0.0001
     62  N         25.6540   49.2780   91.0440 N.am   54  ASN54      -0.1972
     63  CA        26.6990   50.0510   90.3790 C.3    54  ASN54       0.1688
     64  C         27.6450   49.1960   89.5370 C.2    54  ASN54       0.2292
     65  O         28.2850   48.2730   90.0340 O.2    54  ASN54      -0.2864
     66  CB        27.5060   50.8690   91.3770 C.3    54  ASN54       0.1181
     67  CG        28.5000   51.7810   90.6810 C.2    54  ASN54       0.2629
     68  OD1       28.1160   52.6610   89.9010 O.2    54  ASN54      -0.2716
     69  ND2       29.7910   51.5590   90.9370 N.am   54  ASN54      -0.0877
     70  N         20.0560   56.0990   86.8040 N.3    95  LEU95      -0.1231
     71  CA        19.9430   56.0510   88.2630 C.3    95  LEU95       0.1693
     72  C         20.7920   54.9580   88.9370 C.2    95  LEU95       0.2593
     73  O         21.0790   55.0420   90.1200 O.2    95  LEU95      -0.2718
     74  CB        18.4770   55.8700   88.6410 C.3    95  LEU95       0.0284
     75  CG        17.5780   57.0670   88.3240 C.3    95  LEU95       0.0019
     76  CD1       16.0980   56.7300   88.5150 C.3    95  LEU95       0.0001
     77  CD2       17.9700   58.2540   89.1790 C.3    95  LEU95       0.0001
     78  N         21.1980   53.9400   88.1860 N.am   96  THR96      -0.1939
     79  CA        21.8580   52.7710   88.7610 C.3    96  THR96       0.2028
     80  C         23.3160   52.6430   88.3420 C.2    96  THR96       0.2642
     81  O         24.1150   52.0200   89.0420 O.2    96  THR96      -0.2714
     82  CB        21.1490   51.4680   88.3620 C.3    96  THR96       0.1808
     83  OG1       21.1330   51.3540   86.9270 O.3    96  THR96      -0.2208
     84  CG2       19.7400   51.4310   88.9060 C.3    96  THR96       0.0379
     85  N         23.6330   53.1600   87.1610 N.am   97  ASN97      -0.1971
     86  CA        24.9520   52.9890   86.5480 C.3    97  ASN97       0.1688
     87  C         25.3290   51.5020   86.3040 C.2    97  ASN97       0.2292
     88  O         26.4970   51.1120   86.4330 O.2    97  ASN97      -0.2864
     89  CB        26.0140   53.6850   87.4240 C.3    97  ASN97       0.1181
     90  CG        27.3730   53.7920   86.7370 C.2    97  ASN97       0.2629
     91  OD1       27.4590   54.0220   85.5260 O.2    97  ASN97      -0.2716
     92  ND2       28.4380   53.6070   87.5030 N.am   97  ASN97      -0.0877
@<TRIPOS>BOND
     1    91    90    2
     2    87    88    2
     3    87    86    1
     4    86    85    1
     5    86    89    1
     6    90    89    1
     7    90    92   am
     8    70    71    1
     9    83    82    1
    10    85    80   am
    11    78    79    1
    12    78    72   am
    13    71    74    1
    14    71    72    1
    15    75    76    1
    16    75    74    1
    17    75    77    1
    18    80    79    1
    19    80    81    2
    20    82    79    1
    21    82    84    1
    22    72    73    2
    23    57    56    2
    24    64    65    2
    25    64    63    1
    26    68    67    2
    27    56    55    1
    28    56    62   am
    29    60    59    1
    30    61    59    1
    31    63    62    1
    32    63    66    1
    33    58    59    1
    34    58    55    1
    35    67    69   am
    36    67    66    1
    37    55    54    1
    38     7     6    1
    39    54    48   am
    40     5     6    1
    41     5     2    1
    42    49    48    2
    43     6     8    1
    44    48    47    1
    45    43    45   ar
    46    43    41   ar
    47     3     2    1
    48     3     4    2
    49    33    32    1
    50     2     1    1
    51    45    44   ar
    52    41    40   ar
    53    52    51   ar
    54    51    53   ar
    55    51    50    1
    56    47    50    1
    57    47    46    1
    58    34    32    1
    59    32    31    1
    60    44    42   ar
    61    40    42   ar
    62    40    39    1
    63    46    37   am
    64    38    37    2
    65    39    36    1
    66    37    36    1
    67    31    28    1
    68    36    35    1
    69    28    27    1
    70    28    29    1
    71    12    11    2
    72    27    20   am
    73     9    10    1
    74    29    30    2
    75    11    10    1
    76    11    18   am
    77    16    15   ar
    78    20    19    1
    79    20    21    2
    80    13    10    1
    81    13    14    1
    82    19    18    1
    83    19    22    1
    84    15    14    1
    85    15    17   ar
    86    22    23    1
    87    23    24    1
    88    24    25    1
    89    25    26    1
