@<TRIPOS>MOLECULE
tmp/5dnjA00.pdb
 210 209 0 0 0
SMALL
GASTEIGER

@<TRIPOS>ATOM
      1  N        184.4530    9.4060  151.8590 N.3    40  SER40      -0.1202
      2  CA       183.7460   10.2220  152.8270 C.3    40  SER40       0.2020
      3  C        184.1850   11.7040  152.7660 C.2    40  SER40       0.2619
      4  O        183.3910   12.5840  153.0400 O.2    40  SER40      -0.2717
      5  CB       183.9270    9.6350  154.2290 C.3    40  SER40       0.2103
      6  OG       185.2840    9.6690  154.6490 O.3    40  SER40      -0.2182
      7  N        185.4430   11.9430  152.3790 N.am   41  LYS41      -0.1965
      8  CA       185.9710   13.2450  152.0620 C.3    41  LYS41       0.1728
      9  C        186.8420   13.2000  150.7640 C.2    41  LYS41       0.2616
     10  O        187.4260   12.1780  150.4340 O.2    41  LYS41      -0.2715
     11  CB       186.8940   13.7030  153.1930 C.3    41  LYS41       0.0311
     12  CG       186.3340   13.5650  154.5790 C.3    41  LYS41       0.0038
     13  CD       187.3600   14.0040  155.5820 C.3    41  LYS41       0.0206
     14  CE       186.7620   13.9040  156.9670 C.3    41  LYS41       0.1093
     15  NZ       187.6120   14.5950  157.9650 N.3    41  LYS41      -0.1314
     16  N        186.9910   14.3370  150.0960 N.am   42  TRP42      -0.1960
     17  CA       187.9400   14.4510  148.9800 C.3    42  TRP42       0.1771
     18  C        188.3650   15.9050  148.7660 C.2    42  TRP42       0.2620
     19  O        187.6150   16.8580  149.0380 O.2    42  TRP42      -0.2715
     20  CB       187.3540   13.8610  147.6750 C.3    42  TRP42       0.0590
     21  CG       186.1260   14.5610  147.2560 C.ar   42  TRP42       0.0006
     22  CD1      184.8690   14.2350  147.6020 C.ar   42  TRP42       0.0946
     23  CD2      186.0320   15.7630  146.4800 C.ar   42  TRP42       0.0152
     24  NE1      184.0010   15.1090  147.0640 N.ar   42  TRP42      -0.2442
     25  CE2      184.6910   16.0830  146.3940 C.ar   42  TRP42       0.0810
     26  CE3      186.9700   16.6120  145.8800 C.ar   42  TRP42       0.0012
     27  CZ2      184.2270   17.2130  145.6910 C.ar   42  TRP42       0.0191
     28  CZ3      186.5390   17.7060  145.1760 C.ar   42  TRP42       0.0001
     29  CH2      185.1690   18.0190  145.1020 C.ar   42  TRP42       0.0015
     30  N        189.5980   16.0450  148.3090 N.am   43  VAL43      -0.1963
     31  CA       190.1640   17.3370  147.9400 C.3    43  VAL43       0.1727
     32  C        190.8760   17.2400  146.6050 C.2    43  VAL43       0.2616
     33  O        191.8630   16.5420  146.4800 O.2    43  VAL43      -0.2715
     34  CB       191.1950   17.8000  148.9500 C.3    43  VAL43       0.0290
     35  CG1      191.7760   19.1590  148.5060 C.3    43  VAL43       0.0023
     36  CG2      190.5520   17.8970  150.3070 C.3    43  VAL43       0.0023
     37  N        190.3900   17.9920  145.6370 N.am   44  ASP44      -0.1957
     38  CA       191.0680   18.1110  144.3600 C.3    44  ASP44       0.1840
     39  C        192.1230   19.2140  144.3930 C.2    44  ASP44       0.2622
     40  O        191.7810   20.4140  144.4370 O.2    44  ASP44      -0.2715
     41  CB       190.0490   18.4260  143.2620 C.3    44  ASP44       0.1450
     42  CG       190.6940   18.7530  141.9220 C.2    44  ASP44       0.3671
     43  OD1      191.9280   18.5740  141.7450 O.co2  44  ASP44      -0.2456
     44  OD2      189.9470   19.1820  141.0350 O.co2  44  ASP44      -0.2456
     45  N        193.3880   18.8110  144.3210 N.am   45  TYR45      -0.1974
     46  CA       194.4660   19.7470  144.1240 C.3    45  TYR45       0.1639
     47  C        195.2100   19.3850  142.8460 C.2    45  TYR45       0.2290
     48  O        196.4320   19.3880  142.8290 O.2    45  TYR45      -0.2864
     49  CB       195.4080   19.7450  145.3270 C.3    45  TYR45       0.0560
     50  CG       196.2040   21.0320  145.5470 C.ar   45  TYR45      -0.0198
     51  CD1      196.4130   21.9840  144.5210 C.ar   45  TYR45      -0.0009
     52  CD2      196.7830   21.2860  146.7800 C.ar   45  TYR45      -0.0009
     53  CE1      197.1450   23.1310  144.7360 C.ar   45  TYR45       0.0417
     54  CE2      197.5370   22.4310  147.0000 C.ar   45  TYR45       0.0417
     55  CZ       197.7110   23.3450  145.9710 C.ar   45  TYR45       0.1957
     56  OH       198.4410   24.4840  146.1930 O.3    45  TYR45      -0.2866
     57  N        195.5870   20.9750  140.1270 N.3    47  ASP47      -0.1239
     58  CA       196.4220   22.0830  139.6770 C.3    47  ASP47       0.1674
     59  C        197.9130   21.8780  140.0070 C.2    47  ASP47       0.2266
     60  O        198.7780   22.2870  139.2270 O.2    47  ASP47      -0.2867
     61  CB       195.9180   23.4220  140.2410 C.3    47  ASP47       0.1410
     62  CG       194.8260   24.0710  139.4650 C.2    47  ASP47       0.3668
     63  OD1      194.4500   23.6060  138.4100 O.co2  47  ASP47      -0.2456
     64  OD2      194.3710   25.1740  139.9760 O.co2  47  ASP47      -0.2456
     65  N        199.1180   18.7180  142.4420 N.3    49  TYR49      -0.1241
     66  CA       199.5520   17.3670  142.9150 C.3    49  TYR49       0.1605
     67  C        198.6440   16.2040  142.5640 C.2    49  TYR49       0.2264
     68  O        199.1000   15.1560  142.1320 O.2    49  TYR49      -0.2867
     69  CB       199.7310   17.3760  144.4400 C.3    49  TYR49       0.0534
     70  CG       200.6150   18.4940  144.9380 C.ar   49  TYR49      -0.0201
     71  CD1      201.9730   18.5250  144.6060 C.ar   49  TYR49      -0.0009
     72  CD2      200.1070   19.5040  145.7420 C.ar   49  TYR49      -0.0009
     73  CE1      202.7980   19.5340  145.0560 C.ar   49  TYR49       0.0417
     74  CE2      200.9210   20.5320  146.1800 C.ar   49  TYR49       0.0417
     75  CZ       202.2630   20.5350  145.8240 C.ar   49  TYR49       0.1957
     76  OH       203.0670   21.5530  146.2360 O.3    49  TYR49      -0.2866
     77  N        203.3500   14.6750  150.7300 N.3   106  LEU106     -0.1245
     78  CA       202.1310   15.2340  150.1540 C.3   106  LEU106      0.1561
     79  C        200.9310   14.5730  150.7830 C.2   106  LEU106      0.2260
     80  O        199.9820   15.2550  151.1730 O.2   106  LEU106     -0.2867
     81  CB       202.1150   15.0910  148.6190 C.3   106  LEU106      0.0270
     82  CG       203.1080   16.0300  147.8990 C.3   106  LEU106      0.0019
     83  CD1      203.1230   15.8190  146.3820 C.3   106  LEU106      0.0001
     84  CD2      202.8520   17.4950  148.2480 C.3   106  LEU106      0.0001
     85  N        200.1620   16.0520  153.9900 N.3   109  TYR109     -0.1227
     86  CA       199.4850   17.3460  153.8160 C.3   109  TYR109      0.1736
     87  C        197.9710   17.1990  153.5350 C.2   109  TYR109      0.2595
     88  O        197.1490   17.9300  154.1140 O.2   109  TYR109     -0.2718
     89  CB       200.1440   18.1940  152.6970 C.3   109  TYR109      0.0548
     90  CG       201.3370   18.9940  153.1360 C.ar  109  TYR109     -0.0200
     91  CD1      201.1770   20.1780  153.8490 C.ar  109  TYR109     -0.0009
     92  CD2      202.6340   18.5630  152.8540 C.ar  109  TYR109     -0.0009
     93  CE1      202.2750   20.9220  154.2650 C.ar  109  TYR109      0.0417
     94  CE2      203.7390   19.2940  153.2680 C.ar  109  TYR109      0.0417
     95  CZ       203.5460   20.4740  153.9730 C.ar  109  TYR109      0.1957
     96  OH       204.6330   21.1840  154.3900 O.3   109  TYR109     -0.2866
     97  N        197.6080   16.2950  152.6200 N.am  110  PHE110     -0.1976
     98  CA       196.1790   15.9840  152.3840 C.3   110  PHE110      0.1639
     99  C        195.5180   15.4420  153.6690 C.2   110  PHE110      0.2290
    100  O        194.3890   15.8160  154.0290 O.2   110  PHE110     -0.2864
    101  CB       196.0220   14.9600  151.2430 C.3   110  PHE110      0.0560
    102  CG       196.1930   15.5510  149.8420 C.ar  110  PHE110     -0.0200
    103  CD1      195.1930   16.3010  149.2660 C.ar  110  PHE110     -0.0042
    104  CD2      197.3550   15.3400  149.1120 C.ar  110  PHE110     -0.0042
    105  CE1      195.3260   16.8340  148.0030 C.ar  110  PHE110     -0.0003
    106  CE2      197.5010   15.8740  147.8270 C.ar  110  PHE110     -0.0003
    107  CZ       196.4770   16.6180  147.2760 C.ar  110  PHE110     -0.0000
    108  N        194.8560   18.1460  156.1780 N.3   113  TYR113     -0.1241
    109  CA       193.8090   19.0490  155.7620 C.3   113  TYR113      0.1605
    110  C        192.4490   18.3880  155.9910 C.2   113  TYR113      0.2264
    111  O        191.5270   19.0050  156.5610 O.2   113  TYR113     -0.2867
    112  CB       193.9710   19.4850  154.2940 C.3   113  TYR113      0.0534
    113  CG       192.7950   20.2800  153.8750 C.ar  113  TYR113     -0.0201
    114  CD1      192.7410   21.6680  154.1020 C.ar  113  TYR113     -0.0009
    115  CD2      191.6870   19.6560  153.3440 C.ar  113  TYR113     -0.0009
    116  CE1      191.6150   22.4070  153.7680 C.ar  113  TYR113      0.0417
    117  CE2      190.5580   20.3820  153.0110 C.ar  113  TYR113      0.0417
    118  CZ       190.5230   21.7460  153.2130 C.ar  113  TYR113      0.1957
    119  OH       189.3810   22.4200  152.8580 O.3   113  TYR113     -0.2866
    120  N        189.6880   19.8270  158.4890 N.3   117  HIS117     -0.1226
    121  CA       188.7440   20.7330  157.8150 C.3   117  HIS117      0.1752
    122  C        187.5280   20.1980  157.0920 C.2   117  HIS117      0.2596
    123  O        186.7890   21.0100  156.5490 O.2   117  HIS117     -0.2718
    124  CB       189.5280   21.6360  156.8510 C.3   117  HIS117      0.0759
    125  CG       190.5460   22.4840  157.5480 C.ar  117  HIS117      0.0818
    126  ND1      191.8770   22.5150  157.1860 N.ar  117  HIS117     -0.2268
    127  CD2      190.4310   23.2940  158.6270 C.ar  117  HIS117      0.1154
    128  CE1      192.5340   23.3260  157.9940 C.ar  117  HIS117      0.1986
    129  NE2      191.6810   23.8050  158.8830 N.ar  117  HIS117     -0.2212
    130  N        187.2760   18.8880  157.0550 N.am  118  LEU118     -0.1966
    131  CA       186.1870   18.4260  156.2130 C.3   118  LEU118      0.1728
    132  C        185.2560   17.5120  156.9730 C.2   118  LEU118      0.2616
    133  O        185.7110   16.7760  157.8470 O.2   118  LEU118     -0.2715
    134  CB       186.7130   17.7620  154.9360 C.3   118  LEU118      0.0311
    135  CG       187.2820   18.6420  153.8200 C.3   118  LEU118      0.0022
    136  CD1      187.7620   17.8070  152.6380 C.3   118  LEU118      0.0001
    137  CD2      186.2810   19.6740  153.3540 C.3   118  LEU118      0.0001
    138  N        183.9690   17.5590  156.6000 N.am  119  LEU119     -0.1977
    139  CA       182.9540   16.6780  157.1370 C.3   119  LEU119      0.1596
    140  C        182.9550   15.2700  156.4870 C.2   119  LEU119      0.2287
    141  O        183.0620   15.1150  155.2660 O.2   119  LEU119     -0.2864
    142  CB       181.5550   17.3220  157.0410 C.3   119  LEU119      0.0297
    143  CG       181.3600   18.6850  157.7510 C.3   119  LEU119      0.0022
    144  CD1      179.8880   18.9230  158.0590 C.3   119  LEU119      0.0001
    145  CD2      182.1980   18.8670  159.0350 C.3   119  LEU119      0.0001
    146  N        181.3320   12.3480  155.0580 N.3   121  ALA121     -0.1245
    147  CA       180.1060   11.7940  154.4620 C.3   121  ALA121      0.1562
    148  C        179.7930   10.3320  154.8690 C.2   121  ALA121      0.2260
    149  O        180.6770    9.4720  154.9590 O.2   121  ALA121     -0.2867
    150  CB       180.1600   11.8890  152.9610 C.3   121  ALA121      0.0290
    151  N        185.1870   15.3170  137.1370 N.3   138  ARG138     -0.1245
    152  CA       184.0890   16.1550  137.5640 C.3   138  ARG138      0.1563
    153  C        183.3800   16.6010  136.3000 C.2   138  ARG138      0.2260
    154  O        184.0350   16.8570  135.3430 O.2   138  ARG138     -0.2867
    155  CB       184.5990   17.3580  138.3750 C.3   138  ARG138      0.0307
    156  CG       185.2670   18.4240  137.5710 C.3   138  ARG138      0.0489
    157  CD       185.8080   19.5400  138.5100 C.3   138  ARG138      0.2205
    158  NE       184.8810   19.8600  139.6600 N.pl3 138  ARG138     -0.0865
    159  CZ       184.0580   20.9890  139.6570 C.cat 138  ARG138      0.5346
    160  NH1      183.9950   21.8200  138.5510 N.pl3 138  ARG138      0.1354
    161  NH2      183.2300   21.2750  140.7400 N.pl3 138  ARG138      0.1354
    162  N        178.8320   12.1560  143.5270 N.3   155  ASN155     -0.1225
    163  CA       178.4230   13.1920  144.4530 C.3   155  ASN155      0.1785
    164  C        177.9590   14.4050  143.6550 C.2   155  ASN155      0.2597
    165  O        178.7580   15.0300  142.9780 O.2   155  ASN155     -0.2718
    166  CB       179.6280   13.5920  145.2970 C.3   155  ASN155      0.1169
    167  CG       180.0610   12.5070  146.2620 C.2   155  ASN155      0.2627
    168  OD1      179.7210   11.3240  146.1090 O.2   155  ASN155     -0.2716
    169  ND2      180.8190   12.9120  147.2930 N.am  155  ASN155     -0.0877
    170  N        176.6740   14.7020  143.7250 N.am  156  PHE156     -0.1962
    171  CA       176.0710   15.8310  143.0570 C.3   156  PHE156      0.1771
    172  C        176.2430   17.1210  143.8890 C.2   156  PHE156      0.2619
    173  O        175.8230   17.1400  145.0350 O.2   156  PHE156     -0.2715
    174  CB       174.5970   15.5550  142.8460 C.3   156  PHE156      0.0574
    175  CG       174.3320   14.4340  141.9000 C.ar  156  PHE156     -0.0200
    176  CD1      174.2480   13.1130  142.3550 C.ar  156  PHE156     -0.0042
    177  CD2      174.1910   14.6960  140.5260 C.ar  156  PHE156     -0.0042
    178  CE1      174.0070   12.0850  141.4870 C.ar  156  PHE156     -0.0003
    179  CE2      173.9560   13.6480  139.6540 C.ar  156  PHE156     -0.0003
    180  CZ       173.8620   12.3470  140.1300 C.ar  156  PHE156     -0.0000
    181  N        176.8300   18.1720  143.2910 N.am  157  PHE157     -0.1974
    182  CA       177.2680   19.3820  144.0140 C.3   157  PHE157      0.1639
    183  C        176.1460   20.2970  144.5280 C.2   157  PHE157      0.2290
    184  O        176.3040   20.9470  145.5560 O.2   157  PHE157     -0.2864
    185  CB       178.1540   20.2940  143.1370 C.3   157  PHE157      0.0560
    186  CG       179.3850   19.6420  142.5580 C.ar  157  PHE157     -0.0200
    187  CD1      180.3050   18.9850  143.3700 C.ar  157  PHE157     -0.0042
    188  CD2      179.6600   19.7470  141.1750 C.ar  157  PHE157     -0.0042
    189  CE1      181.4620   18.4170  142.8150 C.ar  157  PHE157     -0.0003
    190  CE2      180.8070   19.1720  140.6180 C.ar  157  PHE157     -0.0003
    191  CZ       181.7030   18.5040  141.4420 C.ar  157  PHE157     -0.0000
    192  N        173.7950   18.1430  147.1390 N.3   160  HIS160     -0.1241
    193  CA       174.5680   17.2670  148.0540 C.3   160  HIS160      0.1621
    194  C        174.1430   15.7850  148.1440 C.2   160  HIS160      0.2264
    195  O        174.5650   15.0630  149.0610 O.2   160  HIS160     -0.2867
    196  CB       174.6440   17.8850  149.4600 C.3   160  HIS160      0.0745
    197  CG       175.3870   19.1790  149.4940 C.ar  160  HIS160      0.0817
    198  ND1      175.8180   19.7580  150.6660 N.ar  160  HIS160     -0.2268
    199  CD2      175.8030   19.9910  148.4950 C.ar  160  HIS160      0.1154
    200  CE1      176.4530   20.8820  150.3860 C.ar  160  HIS160      0.1986
    201  NE2      176.4630   21.0430  149.0730 N.ar  160  HIS160     -0.2212
    202  N        174.3270   11.8700  147.0450 N.3   162  LYS162     -0.1245
    203  CA       175.3770   10.9780  146.6390 C.3   162  LYS162      0.1561
    204  C        174.7840    9.6530  146.2470 C.2   162  LYS162      0.2260
    205  O        173.7830    9.2500  146.8110 O.2   162  LYS162     -0.2867
    206  CB       176.3300   10.7610  147.7780 C.3   162  LYS162      0.0271
    207  CG       177.0330   12.0230  148.2400 C.3   162  LYS162      0.0035
    208  CD       177.7320   11.8430  149.5580 C.3   162  LYS162      0.0206
    209  CE       178.2990   13.1740  150.0700 C.3   162  LYS162      0.1093
    210  NZ       177.2690   14.2200  150.2610 N.3   162  LYS162     -0.1314
@<TRIPOS>BOND
     1   154   153    2
     2   153   152    1
     3   151   152    1
     4   152   155    1
     5   156   155    1
     6   156   157    1
     7    63    62   ar
     8   157   158    1
     9   160   159    1
    10    60    59    2
    11    62    64   ar
    12    62    61    1
    13   179   180   ar
    14   179   177   ar
    15   159   158    2
    16   159   161    1
    17    58    59    1
    18    58    57    1
    19    58    61    1
    20   180   178   ar
    21   177   175   ar
    22   190   188   ar
    23   190   191   ar
    24    44    42   ar
    25   188   186   ar
    26   191   189   ar
    27   178   176   ar
    28    43    42   ar
    29   175   176   ar
    30   175   174    1
    31    42    41    1
    32    68    67    2
    33    65    66    1
    34   186   185    1
    35   186   187   ar
    36    67    66    1
    37   189   187   ar
    38    48    47    2
    39   174   171    1
    40    47    46    1
    41    66    69    1
    42   165   164    2
    43   171   170    1
    44   171   172    1
    45   185   182    1
    46    41    38    1
    47   181   172   am
    48   181   182    1
    49   162   163    1
    50   164   170   am
    51   164   163    1
    52   172   173    2
    53   182   183    1
    54    46    45    1
    55    46    49    1
    56    45    39   am
    57    38    39    1
    58    38    37    1
    59    39    40    2
    60    69    70    1
    61   163   166    1
    62    51    53   ar
    63    51    50   ar
    64   183   184    2
    65    71    70   ar
    66    71    73   ar
    67    53    55   ar
    68    70    72   ar
    69    73    75   ar
    70    29    28   ar
    71    29    27   ar
    72    28    26   ar
    73   166   167    1
    74    49    50    1
    75    50    52   ar
    76    37    32   am
    77    27    25   ar
    78    72    74   ar
    79    75    74   ar
    80    75    76    1
    81    26    23   ar
    82    55    56    1
    83    55    54   ar
    84   168   167    2
    85   204   203    1
    86   204   205    2
    87   167   169   am
    88    83    82    1
    89    25    23   ar
    90    25    24   ar
    91    33    32    2
    92    23    21   ar
    93    32    31    1
    94   203   202    1
    95   203   206    1
    96    52    54   ar
    97    24    22   ar
    98   192   193    1
    99    21    22   ar
   100    21    20    1
   101   107   106   ar
   102   107   105   ar
   103    20    17    1
   104   206   207    1
   105   106   104   ar
   106    82    84    1
   107    82    81    1
   108    31    30    1
   109    31    34    1
   110   105   103   ar
   111   193   194    1
   112   193   196    1
   113   194   195    2
   114   207   208    1
   115    30    18   am
   116   199   201   ar
   117   199   197   ar
   118    35    34    1
   119    81    78    1
   120    18    17    1
   121    18    19    2
   122    34    36    1
   123    17    16    1
   124   201   200   ar
   125   104   102   ar
   126   103   102   ar
   127   196   197    1
   128   197   198   ar
   129   208   209    1
   130   102   101    1
   131   209   210    1
   132    16     9   am
   133    78    77    1
   134    78    79    1
   135   200   198   ar
   136    10     9    2
   137     9     8    1
   138    79    80    2
   139   101    98    1
   140     1     2    1
   141     8     7    1
   142     8    11    1
   143     7     3   am
   144    98    97    1
   145    98    99    1
   146    97    87   am
   147   136   135    1
   148    89    90    1
   149    89    86    1
   150     3     2    1
   151     3     4    2
   152     2     5    1
   153    92    90   ar
   154    92    94   ar
   155   119   118    1
   156   150   147    1
   157   117   118   ar
   158   117   115   ar
   159    90    91   ar
   160    11    12    1
   161   118   116   ar
   162    94    95   ar
   163   115   113   ar
   164   137   135    1
   165    87    86    1
   166    87    88    2
   167    99   100    2
   168   116   114   ar
   169    86    85    1
   170   135   134    1
   171    91    93   ar
   172   113   114   ar
   173   113   112    1
   174    95    93   ar
   175    95    96    1
   176     5     6    1
   177   112   109    1
   178   147   148    1
   179   147   146    1
   180    12    13    1
   181   148   149    2
   182   134   131    1
   183   141   140    2
   184    13    14    1
   185   109   110    1
   186   109   108    1
   187   110   111    2
   188   131   132    1
   189   131   130    1
   190   140   139    1
   191   123   122    2
   192   138   132   am
   193   138   139    1
   194   124   125    1
   195   124   121    1
   196    14    15    1
   197   132   133    2
   198   142   139    1
   199   142   143    1
   200   130   122   am
   201   122   121    1
   202   126   125   ar
   203   126   128   ar
   204   125   127   ar
   205   143   144    1
   206   143   145    1
   207   121   120    1
   208   128   129   ar
   209   127   129   ar
