@<TRIPOS>MOLECULE
tmp/5dnuA00.pdb
 126 122 0 0 0
SMALL
GASTEIGER

@<TRIPOS>ATOM
      1  N         10.6930  -19.6770    4.0550 N.3    24  PHE24      -0.1241
      2  CA        10.1480  -18.6340    4.9120 C.3    24  PHE24       0.1605
      3  C          9.4390  -17.5450    4.1220 C.2    24  PHE24       0.2264
      4  O          9.9440  -17.0820    3.1070 O.2    24  PHE24      -0.2867
      5  CB        11.2950  -18.0060    5.7010 C.3    24  PHE24       0.0534
      6  CG        10.9020  -16.8430    6.5570 C.ar   24  PHE24      -0.0203
      7  CD1       10.3420  -17.0530    7.7970 C.ar   24  PHE24      -0.0042
      8  CD2       11.1140  -15.5400    6.1260 C.ar   24  PHE24      -0.0042
      9  CE1        9.9700  -15.9860    8.5900 C.ar   24  PHE24      -0.0003
     10  CE2       10.7560  -14.4760    6.9280 C.ar   24  PHE24      -0.0003
     11  CZ        10.1930  -14.7030    8.1530 C.ar   24  PHE24      -0.0000
     12  N         14.2780  -23.3210   -0.2680 N.3    93  SER93      -0.1202
     13  CA        14.9570  -22.5510    0.7760 C.3    93  SER93       0.2020
     14  C         15.1700  -23.4170    1.9870 C.2    93  SER93       0.2618
     15  O         15.6970  -24.5310    1.8380 O.2    93  SER93      -0.2717
     16  CB        14.2080  -21.2330    0.9950 C.3    93  SER93       0.2103
     17  OG        14.9600  -20.3360    1.7620 O.3    93  SER93      -0.2182
     18  N         14.8440  -22.9650    3.1970 N.am   94  LEU94      -0.1979
     19  CA        15.2000  -23.7550    4.3740 C.3    94  LEU94       0.1596
     20  C         14.5080  -25.0900    4.4300 C.2    94  LEU94       0.2287
     21  O         14.9950  -25.9740    5.1580 O.2    94  LEU94      -0.2864
     22  CB        14.9860  -22.9850    5.6660 C.3    94  LEU94       0.0297
     23  CG        16.2480  -22.2450    6.1610 C.3    94  LEU94       0.0022
     24  CD1       17.3620  -23.2120    6.5580 C.3    94  LEU94       0.0001
     25  CD2       16.7440  -21.2060    5.1910 C.3    94  LEU94       0.0001
     26  N         23.2720  -18.6140    6.3300 N.3   122  PHE122     -0.1241
     27  CA        23.3400  -17.3010    5.6920 C.3   122  PHE122      0.1605
     28  C         24.4930  -16.4200    6.1570 C.2   122  PHE122      0.2264
     29  O         25.0720  -15.6920    5.3510 O.2   122  PHE122     -0.2867
     30  CB        22.0130  -16.5430    5.9210 C.3   122  PHE122      0.0534
     31  CG        20.8000  -17.1460    5.2270 C.ar  122  PHE122     -0.0203
     32  CD1       20.8030  -17.3700    3.8680 C.ar  122  PHE122     -0.0042
     33  CD2       19.6000  -17.3460    5.9140 C.ar  122  PHE122     -0.0042
     34  CE1       19.7130  -17.8960    3.2310 C.ar  122  PHE122     -0.0003
     35  CE2       18.4720  -17.8310    5.2590 C.ar  122  PHE122     -0.0003
     36  CZ        18.5320  -18.1270    3.9160 C.ar  122  PHE122     -0.0000
     37  N         25.8420  -12.8860    3.8740 N.3   132  PHE132     -0.1241
     38  CA        25.4530  -11.8520    4.8190 C.3   132  PHE132      0.1605
     39  C         26.5460  -11.6040    5.8380 C.2   132  PHE132      0.2264
     40  O         27.0090  -12.5190    6.5140 O.2   132  PHE132     -0.2867
     41  CB        24.1690  -12.2610    5.5780 C.3   132  PHE132      0.0534
     42  CG        22.9690  -12.4060    4.7110 C.ar  132  PHE132     -0.0203
     43  CD1       22.7550  -13.5380    3.9490 C.ar  132  PHE132     -0.0042
     44  CD2       22.0240  -11.4130    4.6690 C.ar  132  PHE132     -0.0042
     45  CE1       21.6360  -13.6480    3.1660 C.ar  132  PHE132     -0.0003
     46  CE2       20.8960  -11.5100    3.8670 C.ar  132  PHE132     -0.0003
     47  CZ        20.7010  -12.6500    3.1240 C.ar  132  PHE132     -0.0000
     48  N         18.3530   -6.3560    7.2400 N.3   140  LEU140     -0.1245
     49  CA        17.2330   -7.0940    6.6590 C.3   140  LEU140      0.1561
     50  C         16.1220   -7.2710    7.6860 C.2   140  LEU140      0.2260
     51  O         14.9600   -7.2990    7.3290 O.2   140  LEU140     -0.2867
     52  CB        17.7190   -8.4300    6.1380 C.3   140  LEU140      0.0270
     53  CG        16.7360   -9.2690    5.3180 C.3   140  LEU140      0.0019
     54  CD1       16.4530   -8.5830    3.9780 C.3   140  LEU140      0.0001
     55  CD2       17.2600  -10.6750    5.1080 C.3   140  LEU140      0.0001
     56  N         10.9600   -6.0010    2.5600 N.3   155  PHE155     -0.1241
     57  CA        11.5040   -7.3630    2.5630 C.3   155  PHE155      0.1605
     58  C         11.1260   -8.1070    1.2860 C.2   155  PHE155      0.2264
     59  O         11.9660   -8.7590    0.6530 O.2   155  PHE155     -0.2867
     60  CB        10.9910   -8.0940    3.8040 C.3   155  PHE155      0.0534
     61  CG        11.5360   -9.4780    3.9700 C.ar  155  PHE155     -0.0203
     62  CD1       12.8720   -9.6990    4.3380 C.ar  155  PHE155     -0.0042
     63  CD2       10.7040  -10.5810    3.7840 C.ar  155  PHE155     -0.0042
     64  CE1       13.3520  -10.9810    4.5240 C.ar  155  PHE155     -0.0003
     65  CE2       11.1770  -11.8720    3.9550 C.ar  155  PHE155     -0.0003
     66  CZ        12.5020  -12.0750    4.3180 C.ar  155  PHE155     -0.0000
     67  N         13.7890   -9.9260   -1.4420 N.3   159  VAL159     -0.1245
     68  CA        13.9430  -11.3790   -1.4900 C.3   159  VAL159      0.1561
     69  C         13.5830  -11.9270   -2.8700 C.2   159  VAL159      0.2260
     70  O         14.3310  -12.7440   -3.4310 O.2   159  VAL159     -0.2867
     71  CB        13.1280  -12.0720   -0.3780 C.3   159  VAL159      0.0252
     72  CG1       13.1690  -13.5870   -0.5220 C.3   159  VAL159      0.0019
     73  CG2       13.6740  -11.6800    0.9970 C.3   159  VAL159      0.0019
     74  N         12.2250  -15.9880   11.8290 N.3   188  PHE188     -0.1241
     75  CA        13.3290  -15.2690   11.1970 C.3   188  PHE188      0.1605
     76  C         14.6310  -15.4130   12.0160 C.2   188  PHE188      0.2264
     77  O         15.7070  -15.7080   11.4930 O.2   188  PHE188     -0.2867
     78  CB        12.9390  -13.7980   11.0450 C.3   188  PHE188      0.0534
     79  CG        13.9800  -12.9300   10.3890 C.ar  188  PHE188     -0.0203
     80  CD1       15.0780  -12.4620   11.1150 C.ar  188  PHE188     -0.0042
     81  CD2       13.8460  -12.5200    9.0710 C.ar  188  PHE188     -0.0042
     82  CE1       16.0300  -11.6320   10.5330 C.ar  188  PHE188     -0.0003
     83  CE2       14.7750  -11.6590    8.4910 C.ar  188  PHE188     -0.0003
     84  CZ        15.8810  -11.2320    9.2160 C.ar  188  PHE188     -0.0000
     85  N         16.0550  -18.9420   11.9400 N.3   191  ILE191     -0.1231
     86  CA        16.7250  -19.2400   10.6770 C.3   191  ILE191      0.1692
     87  C         18.0960  -18.5850   10.6210 C.2   191  ILE191      0.2592
     88  O         19.0950  -19.2600   10.3520 O.2   191  ILE191     -0.2718
     89  CB        15.8500  -18.8500    9.4980 C.3   191  ILE191      0.0266
     90  CG1       14.6350  -19.7890    9.4460 C.3   191  ILE191      0.0019
     91  CG2       16.6750  -18.8530    8.2330 C.3   191  ILE191      0.0020
     92  CD1       13.5290  -19.2600    8.5840 C.3   191  ILE191      0.0001
     93  N         18.1740  -17.2820   10.9230 N.am  192  PHE192     -0.1976
     94  CA        19.4540  -16.5970   10.8420 C.3   192  PHE192      0.1639
     95  C         20.4690  -17.0350   11.8840 C.2   192  PHE192      0.2290
     96  O         21.6550  -16.7480   11.7110 O.2   192  PHE192     -0.2864
     97  CB        19.2980  -15.0690   10.8230 C.3   192  PHE192      0.0560
     98  CG        19.1140  -14.5450    9.4350 C.ar  192  PHE192     -0.0200
     99  CD1       20.2150  -14.3510    8.6140 C.ar  192  PHE192     -0.0042
    100  CD2       17.8500  -14.3170    8.9040 C.ar  192  PHE192     -0.0042
    101  CE1       20.0740  -13.9020    7.3150 C.ar  192  PHE192     -0.0003
    102  CE2       17.6950  -13.8590    7.6070 C.ar  192  PHE192     -0.0003
    103  CZ        18.8060  -13.6580    6.8020 C.ar  192  PHE192     -0.0000
    104  N         19.9100  -12.7570   -3.9800 N.3   216  MET216     -0.1230
    105  CA        20.4840  -11.9760   -2.9020 C.3   216  MET216      0.1702
    106  C         20.7690  -12.7340   -1.6310 C.2   216  MET216      0.2592
    107  O         21.6250  -12.3510   -0.8600 O.2   216  MET216     -0.2718
    108  CB        19.6260  -10.7240   -2.5740 C.3   216  MET216      0.0401
    109  CG        18.2510  -10.9680   -1.9040 C.3   216  MET216      0.0596
    110  SD        18.0980  -11.2700   -0.1090 S.3   216  MET216     -0.1393
    111  CE        18.9340   -9.8540    0.5970 C.3   216  MET216      0.0692
    112  N         20.0680  -13.8320   -1.4240 N.am  217  ALA217     -0.1980
    113  CA        20.2350  -14.6030   -0.2200 C.3   217  ALA217      0.1597
    114  C         21.1500  -15.8060   -0.3540 C.2   217  ALA217      0.2287
    115  O         21.4400  -16.4310    0.6610 O.2   217  ALA217     -0.2864
    116  CB        18.8690  -15.0280    0.2860 C.3   217  ALA217      0.0319
    117  N         14.9880  -15.3520   -5.0710 N.3   244  HIS244     -0.1241
    118  CA        14.9690  -16.4940   -4.1770 C.3   244  HIS244      0.1621
    119  C         13.8220  -17.4690   -4.4140 C.2   244  HIS244      0.2264
    120  O         13.9000  -18.5930   -3.9390 O.2   244  HIS244     -0.2867
    121  CB        14.9350  -15.9670   -2.7350 C.3   244  HIS244      0.0745
    122  CG        15.3070  -16.9750   -1.6930 C.ar  244  HIS244      0.0817
    123  ND1       16.5410  -17.5810   -1.6470 N.ar  244  HIS244     -0.2268
    124  CD2       14.5910  -17.4960   -0.6600 C.ar  244  HIS244      0.1154
    125  CE1       16.5830  -18.3880   -0.5930 C.ar  244  HIS244      0.1986
    126  NE2       15.4170  -18.3450    0.0310 N.ar  244  HIS244     -0.2212
@<TRIPOS>BOND
     1   117   118    1
     2   119   118    1
     3   119   120    2
     4   118   121    1
     5   104   105    1
     6    70    69    2
     7   105   108    1
     8   105   106    1
     9    69    68    1
    10   121   122    1
    11   108   109    1
    12   109   110    1
    13   122   123   ar
    14   122   124   ar
    15   123   125   ar
    16   106   112   am
    17   106   107    2
    18    68    67    1
    19    68    71    1
    20   112   113    1
    21   124   126   ar
    22   125   126   ar
    23    72    71    1
    24    71    73    1
    25   114   113    1
    26   114   115    2
    27    12    13    1
    28   113   116    1
    29   110   111    1
    30    59    58    2
    31    13    16    1
    32    13    14    1
    33    16    17    1
    34    58    57    1
    35    15    14    2
    36    14    18   am
    37    56    57    1
    38    57    60    1
    39     4     3    2
    40    47    45   ar
    41    47    46   ar
    42    45    43   ar
    43    18    19    1
    44    34    32   ar
    45    34    36   ar
    46    63    65   ar
    47    63    61   ar
    48    60    61    1
    49    46    44   ar
    50    32    31   ar
    51    37    38    1
    52    36    35   ar
    53    43    42   ar
    54    65    66   ar
    55    61    62   ar
    56    54    53    1
    57     1     2    1
    58     3     2    1
    59    66    64   ar
    60    62    64   ar
    61    19    20    1
    62    19    22    1
    63    20    21    2
    64    44    42   ar
    65    42    41    1
    66    38    41    1
    67    38    39    1
    68     2     5    1
    69    55    53    1
    70    25    23    1
    71    31    33   ar
    72    31    30    1
    73    35    33   ar
    74    53    52    1
    75    29    28    2
    76    22    23    1
    77    27    30    1
    78    27    28    1
    79    27    26    1
    80     5     6    1
    81    39    40    2
    82     8     6   ar
    83     8    10   ar
    84    52    49    1
    85    23    24    1
    86     6     7   ar
    87    49    48    1
    88    49    50    1
    89   103   101   ar
    90   103   102   ar
    91    10    11   ar
    92   101    99   ar
    93    51    50    2
    94   102   100   ar
    95     7     9   ar
    96    11     9   ar
    97    91    89    1
    98    83    81   ar
    99    83    84   ar
   100    92    90    1
   101    99    98   ar
   102   100    98   ar
   103    81    79   ar
   104    84    82   ar
   105    98    97    1
   106    90    89    1
   107    89    86    1
   108    88    87    2
   109    79    78    1
   110    79    80   ar
   111    82    80   ar
   112    87    86    1
   113    87    93   am
   114    86    85    1
   115    97    94    1
   116    94    93    1
   117    94    95    1
   118    78    75    1
   119    75    74    1
   120    75    76    1
   121    77    76    2
   122    96    95    2
