@<TRIPOS>MOLECULE
tmp/5do8A00.pdb
 143 135 0 0 0
SMALL
GASTEIGER

@<TRIPOS>ATOM
      1  N          8.2610   -4.6610  -51.6530 N.3    59  ASP59      -0.1239
      2  CA         8.0630   -5.4470  -50.4370 C.3    59  ASP59       0.1674
      3  C          9.3030   -6.3040  -50.1780 C.2    59  ASP59       0.2266
      4  O          9.2130   -7.4790  -49.8300 O.2    59  ASP59      -0.2867
      5  CB         6.8010   -6.3060  -50.5800 C.3    59  ASP59       0.1410
      6  CG         6.3390   -6.9270  -49.2610 C.2    59  ASP59       0.3668
      7  OD1        6.7200   -6.4560  -48.1800 O.co2  59  ASP59      -0.2456
      8  OD2        5.5650   -7.8980  -49.3210 O.co2  59  ASP59      -0.2456
      9  N          9.4550   -9.8780  -51.8080 N.3    62  TYR62      -0.1241
     10  CA         8.2110  -10.6540  -51.9010 C.3    62  TYR62       0.1605
     11  C          7.3320  -10.1350  -53.0600 C.2    62  TYR62       0.2264
     12  O          6.2210  -10.6060  -53.2590 O.2    62  TYR62      -0.2867
     13  CB         7.4880  -10.7130  -50.5480 C.3    62  TYR62       0.0534
     14  CG         8.2110  -11.6040  -49.5460 C.ar   62  TYR62      -0.0201
     15  CD1        7.9990  -12.9860  -49.5180 C.ar   62  TYR62      -0.0009
     16  CD2        9.0950  -11.0680  -48.6310 C.ar   62  TYR62      -0.0009
     17  CE1        8.6740  -13.8080  -48.6160 C.ar   62  TYR62       0.0417
     18  CE2        9.7710  -11.8750  -47.7230 C.ar   62  TYR62       0.0417
     19  CZ         9.5470  -13.2440  -47.7060 C.ar   62  TYR62       0.1957
     20  OH        10.2310  -14.0490  -46.8220 O.3    62  TYR62      -0.2866
     21  N          6.7740  -17.7080  -53.7290 N.3    99  VAL99      -0.1245
     22  CA         5.9330  -16.5270  -53.6470 C.3    99  VAL99       0.1561
     23  C          5.0330  -16.5240  -54.8700 C.2    99  VAL99       0.2260
     24  O          5.3700  -15.9250  -55.8940 O.2    99  VAL99      -0.2867
     25  CB         6.7980  -15.2520  -53.5870 C.3    99  VAL99       0.0252
     26  CG1        5.9410  -14.0340  -53.3000 C.3    99  VAL99       0.0019
     27  CG2        7.8990  -15.3760  -52.5320 C.3    99  VAL99       0.0019
     28  N          1.0710  -13.7970  -55.7980 N.3   102  HIS102     -0.1241
     29  CA         1.1990  -12.5480  -56.5160 C.3   102  HIS102      0.1621
     30  C          2.5830  -12.4360  -57.0960 C.2   102  HIS102      0.2264
     31  O          3.5010  -13.1640  -56.6920 O.2   102  HIS102     -0.2867
     32  CB         0.9290  -11.3530  -55.5850 C.3   102  HIS102      0.0745
     33  CG         1.7170  -11.3880  -54.3080 C.ar  102  HIS102      0.0817
     34  ND1        1.2240  -11.9390  -53.1520 N.ar  102  HIS102     -0.2268
     35  CD2        2.9800  -10.9900  -54.0230 C.ar  102  HIS102      0.1154
     36  CE1        2.1280  -11.8430  -52.1890 C.ar  102  HIS102      0.1986
     37  NE2        3.2060  -11.2710  -52.6950 N.ar  102  HIS102     -0.2212
     38  N         -1.8780   -3.9470  -47.0050 N.3   140  PHE140     -0.1241
     39  CA        -0.9690   -2.8100  -46.8390 C.3   140  PHE140      0.1605
     40  C         -1.6610   -1.4500  -47.0570 C.2   140  PHE140      0.2264
     41  O         -1.0520   -0.5250  -47.6040 O.2   140  PHE140     -0.2867
     42  CB         0.2460   -2.9380  -47.7840 C.3   140  PHE140      0.0534
     43  CG         1.1400   -4.1260  -47.5120 C.ar  140  PHE140     -0.0203
     44  CD1        1.1500   -4.7950  -46.2740 C.ar  140  PHE140     -0.0042
     45  CD2        2.0150   -4.5540  -48.5060 C.ar  140  PHE140     -0.0042
     46  CE1        2.0040   -5.8610  -46.0610 C.ar  140  PHE140     -0.0003
     47  CE2        2.8740   -5.6240  -48.2850 C.ar  140  PHE140     -0.0003
     48  CZ         2.8530   -6.2850  -47.0700 C.ar  140  PHE140     -0.0000
     49  N         -1.8360   -7.3290  -51.3960 N.3   159  PHE159     -0.1241
     50  CA        -0.7300   -6.6260  -50.7770 C.3   159  PHE159      0.1605
     51  C         -0.5200   -5.2870  -51.4870 C.2   159  PHE159      0.2264
     52  O         -1.5130   -4.5960  -51.7410 O.2   159  PHE159     -0.2867
     53  CB         0.4770   -7.5550  -50.6900 C.3   159  PHE159      0.0534
     54  CG         0.2230   -8.7560  -49.7970 C.ar  159  PHE159     -0.0203
     55  CD1        0.3920   -8.6550  -48.4190 C.ar  159  PHE159     -0.0042
     56  CD2       -0.2140   -9.9580  -50.3270 C.ar  159  PHE159     -0.0042
     57  CE1        0.1570   -9.7530  -47.5940 C.ar  159  PHE159     -0.0003
     58  CE2       -0.4570  -11.0520  -49.5170 C.ar  159  PHE159     -0.0003
     59  CZ        -0.2580  -10.9510  -48.1470 C.ar  159  PHE159     -0.0000
     60  N          1.9830   -5.4690  -56.2610 N.3   163  GLN163     -0.1245
     61  CA         1.8900   -6.9080  -56.0620 C.3   163  GLN163      0.1566
     62  C          0.5400   -7.4750  -56.5450 C.2   163  GLN163      0.2260
     63  O         -0.2660   -7.9240  -55.7180 O.2   163  GLN163     -0.2867
     64  CB         2.0920   -7.2490  -54.5910 C.3   163  GLN163      0.0367
     65  CG         3.5280   -7.0650  -54.1340 C.3   163  GLN163      0.0905
     66  CD         3.6920   -7.1260  -52.6250 C.2   163  GLN163      0.2608
     67  OE1        3.1940   -6.2730  -51.9040 O.2   163  GLN163     -0.2717
     68  NE2        4.4130   -8.1230  -52.1410 N.am  163  GLN163     -0.0878
     69  N          9.1430  -22.6930  -48.5150 N.3   193  ARG193     -0.1245
     70  CA         8.0740  -22.1550  -47.6820 C.3   193  ARG193      0.1563
     71  C          7.0750  -21.5310  -48.6460 C.2   193  ARG193      0.2260
     72  O          7.4340  -20.6450  -49.4210 O.2   193  ARG193     -0.2867
     73  CB         8.5640  -21.1030  -46.6750 C.3   193  ARG193      0.0307
     74  CG         7.4810  -20.7650  -45.6420 C.3   193  ARG193      0.0489
     75  CD         7.8710  -19.6450  -44.6950 C.3   193  ARG193      0.2205
     76  NE         7.7460  -18.3430  -45.3480 N.pl3 193  ARG193     -0.0865
     77  CZ         7.1300  -17.2590  -44.8810 C.cat 193  ARG193      0.5346
     78  NH1        7.1460  -16.1540  -45.6100 N.pl3 193  ARG193      0.1354
     79  NH2        6.5470  -17.2290  -43.6920 N.pl3 193  ARG193      0.1354
     80  N          4.3590  -19.2230  -49.4300 N.3   195  ASP195     -0.1225
     81  CA         3.8830  -17.9900  -48.8400 C.3   195  ASP195      0.1805
     82  C          2.3850  -17.7820  -49.0440 C.2   195  ASP195      0.2597
     83  O          1.8830  -17.9480  -50.1550 O.2   195  ASP195     -0.2718
     84  CB         4.6300  -16.8040  -49.4280 C.3   195  ASP195      0.1424
     85  CG         6.1080  -16.8660  -49.1790 C.2   195  ASP195      0.3668
     86  OD1        6.6170  -17.8350  -48.5860 O.co2 195  ASP195     -0.2456
     87  OD2        6.7710  -15.9410  -49.6310 O.co2 195  ASP195     -0.2456
     88  N          1.7080  -17.4150  -47.9480 N.am  196  VAL196     -0.1980
     89  CA         0.2580  -17.2060  -47.8730 C.3   196  VAL196      0.1595
     90  C         -0.4910  -18.1100  -48.8480 C.2   196  VAL196      0.2287
     91  O         -1.3310  -17.6620  -49.6410 O.2   196  VAL196     -0.2864
     92  CB        -0.1090  -15.7110  -48.0170 C.3   196  VAL196      0.0276
     93  CG1        0.4520  -14.9250  -46.8300 C.3   196  VAL196      0.0022
     94  CG2        0.4310  -15.1100  -49.3040 C.3   196  VAL196      0.0022
     95  N          2.6100  -21.6150  -45.2360 N.3   252  GLU252     -0.1245
     96  CA         2.2960  -20.4070  -44.4630 C.3   252  GLU252      0.1567
     97  C          0.8390  -20.0910  -44.6980 C.2   252  GLU252      0.2260
     98  O          0.4640  -19.7270  -45.8120 O.2   252  GLU252     -0.2867
     99  CB         3.1830  -19.2380  -44.8970 C.3   252  GLU252      0.0388
    100  CG         2.9980  -17.9730  -44.0630 C.3   252  GLU252      0.1160
    101  CD         3.4510  -16.6760  -44.7350 C.2   252  GLU252      0.3649
    102  OE1        3.4100  -16.5700  -45.9640 O.co2 252  GLU252     -0.2457
    103  OE2        3.8250  -15.7100  -44.0280 O.co2 252  GLU252     -0.2457
    104  N         11.0860  -12.2490  -40.0900 N.3   325  HIS325     -0.1226
    105  CA        11.1070  -10.9360  -40.7490 C.3   325  HIS325      0.1752
    106  C          9.7850  -10.1430  -40.7380 C.2   325  HIS325      0.2596
    107  O          9.7760   -8.9770  -41.1450 O.2   325  HIS325     -0.2718
    108  CB        11.5570  -11.1120  -42.2000 C.3   325  HIS325      0.0759
    109  CG        10.5570  -11.8410  -43.0340 C.ar  325  HIS325      0.0818
    110  ND1       10.1640  -13.1340  -42.7750 N.ar  325  HIS325     -0.2268
    111  CD2        9.8070  -11.4250  -44.0770 C.ar  325  HIS325      0.1154
    112  CE1        9.2440  -13.4960  -43.6500 C.ar  325  HIS325      0.1986
    113  NE2        9.0090  -12.4790  -44.4510 N.ar  325  HIS325     -0.2212
    114  N          8.6900  -10.7790  -40.2910 N.am  326  ASP326     -0.1974
    115  CA         7.3890  -10.1320  -40.1780 C.3   326  ASP326      0.1709
    116  C          6.9650   -9.8110  -38.7410 C.2   326  ASP326      0.2293
    117  O          5.8870   -9.2730  -38.5500 O.2   326  ASP326     -0.2864
    118  CB         6.2830  -11.0180  -40.7940 C.3   326  ASP326      0.1436
    119  CG         6.3900  -11.1740  -42.2870 C.2   326  ASP326      0.3671
    120  OD1        6.8840  -10.2520  -42.9690 O.co2 326  ASP326     -0.2456
    121  OD2        5.8810  -12.2150  -42.7820 O.co2 326  ASP326     -0.2456
    122  N          7.4790   -4.3540  -38.6650 N.3   411  ARG411     -0.1245
    123  CA         8.3680   -5.3750  -39.1930 C.3   411  ARG411      0.1563
    124  C          9.8450   -4.9360  -39.2200 C.2   411  ARG411      0.2260
    125  O         10.7360   -5.7800  -39.1900 O.2   411  ARG411     -0.2867
    126  CB         7.8910   -5.8410  -40.5680 C.3   411  ARG411      0.0307
    127  CG         6.4880   -6.4340  -40.5110 C.3   411  ARG411      0.0489
    128  CD         6.1050   -7.1440  -41.8040 C.3   411  ARG411      0.2205
    129  NE         6.0900   -6.2670  -42.9710 N.pl3 411  ARG411     -0.0865
    130  CZ         5.8460   -6.6920  -44.2180 C.cat 411  ARG411      0.5346
    131  NH1        5.5600   -7.9760  -44.4610 N.pl3 411  ARG411      0.1354
    132  NH2        5.8760   -5.8350  -45.2370 N.pl3 411  ARG411      0.1354
    133  N         14.3540   -6.2800  -39.0160 N.3   415  ARG415     -0.1245
    134  CA        15.1070   -6.0560  -40.2370 C.3   415  ARG415      0.1563
    135  C         16.3310   -5.1660  -40.0630 C.2   415  ARG415      0.2260
    136  O         17.1160   -4.9860  -41.0150 O.2   415  ARG415     -0.2867
    137  CB        14.1520   -5.4940  -41.2790 C.3   415  ARG415      0.0307
    138  CG        13.0230   -6.4510  -41.6140 C.3   415  ARG415      0.0489
    139  CD        11.9750   -5.8040  -42.5090 C.3   415  ARG415      0.2205
    140  NE        10.9100   -6.7690  -42.7550 N.pl3 415  ARG415     -0.0865
    141  CZ        10.0300   -6.7100  -43.7530 C.cat 415  ARG415      0.5346
    142  NH1       10.0410   -5.7050  -44.6370 N.pl3 415  ARG415      0.1354
    143  NH2        9.1110   -7.6750  -43.8670 N.pl3 415  ARG415      0.1354
@<TRIPOS>BOND
     1    30    31    2
     2    30    29    1
     3    62    61    1
     4    62    63    2
     5    29    28    1
     6    29    32    1
     7    60    61    1
     8    61    64    1
     9    24    23    2
    10    32    33    1
    11    23    22    1
    12    64    65    1
    13    33    35   ar
    14    33    34   ar
    15    65    66    1
    16    35    37   ar
    17    21    22    1
    18    22    25    1
    19    25    26    1
    20    25    27    1
    21    12    11    2
    22    34    36   ar
    23    11    10    1
    24    37    36   ar
    25    66    68   am
    26    66    67    2
    27    10     9    1
    28    10    13    1
    29    52    51    2
    30     1     2    1
    31    51    50    1
    32    49    50    1
    33    50    53    1
    34    53    54    1
    35     5     2    1
    36     5     6    1
    37    13    14    1
    38     2     3    1
    39    56    54   ar
    40    56    58   ar
    41     3     4    2
    42    83    82    2
    43    54    55   ar
    44    91    90    2
    45    87    85   ar
    46    14    15   ar
    47    14    16   ar
    48    15    17   ar
    49    58    59   ar
    50    80    81    1
    51    84    85    1
    52    84    81    1
    53    72    71    2
    54     8     6   ar
    55    94    92    1
    56     6     7   ar
    57    85    86   ar
    58    82    81    1
    59    82    88   am
    60    90    89    1
    61    71    70    1
    62    16    18   ar
    63    17    19   ar
    64    69    70    1
    65    45    47   ar
    66    45    43   ar
    67    55    57   ar
    68    47    48   ar
    69    59    57   ar
    70    92    89    1
    71    92    93    1
    72    88    89    1
    73    42    43    1
    74    42    39    1
    75    18    19   ar
    76    19    20    1
    77    70    73    1
    78    41    40    2
    79    43    44   ar
    80    48    46   ar
    81    40    39    1
    82    38    39    1
    83    73    74    1
    84    44    46   ar
    85   102   101   ar
    86    98    97    2
    87    74    75    1
    88    78    77    1
    89    76    77    2
    90    76    75    1
    91   132   130    1
    92    95    96    1
    93    99    96    1
    94    99   100    1
    95    77    79    1
    96   101   100    1
    97   101   103   ar
    98    97    96    1
    99   142   141    1
   100   131   130    1
   101   113   111   ar
   102   113   112   ar
   103   130   129    2
   104   111   109   ar
   105   143   141    1
   106   141   140    2
   107   112   110   ar
   108   109   110   ar
   109   109   108    1
   110   129   128    1
   111   120   119   ar
   112   121   119   ar
   113   140   139    1
   114   139   138    1
   115   119   118    1
   116   108   105    1
   117   128   127    1
   118   138   137    1
   119   137   134    1
   120   107   106    2
   121   136   135    2
   122   118   115    1
   123   105   106    1
   124   105   104    1
   125   106   114   am
   126   126   127    1
   127   126   123    1
   128   114   115    1
   129   134   135    1
   130   134   133    1
   131   115   116    1
   132   124   123    1
   133   124   125    2
   134   123   122    1
   135   116   117    2
