@<TRIPOS>MOLECULE
tmp/5do8A01.pdb
 129 122 0 0 0
SMALL
GASTEIGER

@<TRIPOS>ATOM
      1  N         -4.1140   -5.4630  -47.5980 N.3   139  ILE139     -0.1231
      2  CA        -3.4300   -5.7320  -46.3230 C.3   139  ILE139      0.1692
      3  C         -2.3840   -4.6370  -45.9800 C.2   139  ILE139      0.2592
      4  O         -2.0410   -4.4300  -44.8080 O.2   139  ILE139     -0.2718
      5  CB        -2.8180   -7.1470  -46.3840 C.3   139  ILE139      0.0266
      6  CG1       -3.9550   -8.1910  -46.3940 C.3   139  ILE139      0.0019
      7  CG2       -1.8320   -7.3930  -45.2390 C.3   139  ILE139      0.0020
      8  CD1       -3.5510   -9.5300  -46.9650 C.3   139  ILE139      0.0001
      9  N         -1.8780   -3.9470  -47.0050 N.am  140  PHE140     -0.1976
     10  CA        -0.9690   -2.8100  -46.8390 C.3   140  PHE140      0.1639
     11  C         -1.6610   -1.4500  -47.0570 C.2   140  PHE140      0.2290
     12  O         -1.0520   -0.5250  -47.6040 O.2   140  PHE140     -0.2864
     13  CB         0.2460   -2.9380  -47.7840 C.3   140  PHE140      0.0560
     14  CG         1.1400   -4.1260  -47.5120 C.ar  140  PHE140     -0.0200
     15  CD1        1.1500   -4.7950  -46.2740 C.ar  140  PHE140     -0.0042
     16  CD2        2.0150   -4.5540  -48.5060 C.ar  140  PHE140     -0.0042
     17  CE1        2.0040   -5.8610  -46.0610 C.ar  140  PHE140     -0.0003
     18  CE2        2.8740   -5.6240  -48.2850 C.ar  140  PHE140     -0.0003
     19  CZ         2.8530   -6.2850  -47.0700 C.ar  140  PHE140     -0.0000
     20  N         -1.8360   -7.3290  -51.3960 N.3   159  PHE159     -0.1241
     21  CA        -0.7300   -6.6260  -50.7770 C.3   159  PHE159      0.1605
     22  C         -0.5200   -5.2870  -51.4870 C.2   159  PHE159      0.2264
     23  O         -1.5130   -4.5960  -51.7410 O.2   159  PHE159     -0.2867
     24  CB         0.4770   -7.5550  -50.6900 C.3   159  PHE159      0.0534
     25  CG         0.2230   -8.7560  -49.7970 C.ar  159  PHE159     -0.0203
     26  CD1        0.3920   -8.6550  -48.4190 C.ar  159  PHE159     -0.0042
     27  CD2       -0.2140   -9.9580  -50.3270 C.ar  159  PHE159     -0.0042
     28  CE1        0.1570   -9.7530  -47.5940 C.ar  159  PHE159     -0.0003
     29  CE2       -0.4570  -11.0520  -49.5170 C.ar  159  PHE159     -0.0003
     30  CZ        -0.2580  -10.9510  -48.1470 C.ar  159  PHE159     -0.0000
     31  N          1.7080  -17.4150  -47.9480 N.3   196  VAL196     -0.1245
     32  CA         0.2580  -17.2060  -47.8730 C.3   196  VAL196      0.1561
     33  C         -0.4910  -18.1100  -48.8480 C.2   196  VAL196      0.2260
     34  O         -1.3310  -17.6620  -49.6410 O.2   196  VAL196     -0.2867
     35  CB        -0.1090  -15.7110  -48.0170 C.3   196  VAL196      0.0252
     36  CG1        0.4520  -14.9250  -46.8300 C.3   196  VAL196      0.0019
     37  CG2        0.4310  -15.1100  -49.3040 C.3   196  VAL196      0.0019
     38  N         -4.2020  -18.2520  -49.6110 N.3   199  PHE199     -0.1241
     39  CA        -4.8430  -17.0820  -50.2530 C.3   199  PHE199      0.1605
     40  C         -5.1260  -17.2810  -51.7470 C.2   199  PHE199      0.2264
     41  O         -5.6960  -16.4000  -52.3980 O.2   199  PHE199     -0.2867
     42  CB        -3.9630  -15.8200  -50.1360 C.3   199  PHE199      0.0534
     43  CG        -3.8740  -15.2270  -48.7530 C.ar  199  PHE199     -0.0203
     44  CD1       -4.2710  -15.9170  -47.5980 C.ar  199  PHE199     -0.0042
     45  CD2       -3.3440  -13.9570  -48.6030 C.ar  199  PHE199     -0.0042
     46  CE1       -4.1490  -15.3410  -46.3320 C.ar  199  PHE199     -0.0003
     47  CE2       -3.2310  -13.3780  -47.3460 C.ar  199  PHE199     -0.0003
     48  CZ        -3.6380  -14.0660  -46.2110 C.ar  199  PHE199     -0.0000
     49  N          2.6100  -21.6150  -45.2360 N.3   252  GLU252     -0.1245
     50  CA         2.2960  -20.4070  -44.4630 C.3   252  GLU252      0.1567
     51  C          0.8390  -20.0910  -44.6980 C.2   252  GLU252      0.2260
     52  O          0.4640  -19.7270  -45.8120 O.2   252  GLU252     -0.2867
     53  CB         3.1830  -19.2380  -44.8970 C.3   252  GLU252      0.0388
     54  CG         2.9980  -17.9730  -44.0630 C.3   252  GLU252      0.1160
     55  CD         3.4510  -16.6760  -44.7350 C.2   252  GLU252      0.3649
     56  OE1        3.4100  -16.5700  -45.9640 O.co2 252  GLU252     -0.2457
     57  OE2        3.8250  -15.7100  -44.0280 O.co2 252  GLU252     -0.2457
     58  N         -2.0990  -17.9620  -42.8550 N.3   254  PRO254     -0.2116
     59  CA        -2.9150  -17.1140  -41.9690 C.3   254  PRO254      0.1372
     60  C         -4.3870  -17.5110  -42.0320 C.2   254  PRO254      0.2244
     61  O         -4.9550  -17.6150  -43.1220 O.2   254  PRO254     -0.2868
     62  CB        -2.7030  -15.6870  -42.5230 C.3   254  PRO254      0.0268
     63  CG        -1.5300  -15.7800  -43.4470 C.3   254  PRO254      0.0207
     64  CD        -1.4550  -17.1880  -43.9340 C.3   254  PRO254      0.0892
     65  N         -0.2710  -18.4760  -37.4610 N.3   278  PHE278     -0.1241
     66  CA        -0.1340  -17.1350  -36.9090 C.3   278  PHE278      0.1605
     67  C         -0.9470  -16.8960  -35.6580 C.2   278  PHE278      0.2264
     68  O         -0.9480  -15.7850  -35.1360 O.2   278  PHE278     -0.2867
     69  CB        -0.5520  -16.1140  -37.9760 C.3   278  PHE278      0.0534
     70  CG         0.3390  -16.1060  -39.1530 C.ar  278  PHE278     -0.0203
     71  CD1        0.2490  -17.1160  -40.1120 C.ar  278  PHE278     -0.0042
     72  CD2        1.2950  -15.1180  -39.3090 C.ar  278  PHE278     -0.0042
     73  CE1        1.0960  -17.1270  -41.1900 C.ar  278  PHE278     -0.0003
     74  CE2        2.1270  -15.1190  -40.4130 C.ar  278  PHE278     -0.0003
     75  CZ         2.0370  -16.1320  -41.3340 C.ar  278  PHE278     -0.0000
     76  N         -0.9680  -13.2500  -32.9090 N.3   282  ASN282     -0.1240
     77  CA        -2.0800  -12.3280  -32.9820 C.3   282  ASN282      0.1653
     78  C         -2.8780  -12.2260  -31.6970 C.2   282  ASN282      0.2266
     79  O         -4.0150  -11.7730  -31.7230 O.2   282  ASN282     -0.2867
     80  CB        -3.0100  -12.7700  -34.1190 C.3   282  ASN282      0.1155
     81  CG        -2.4360  -12.4620  -35.4730 C.2   282  ASN282      0.2627
     82  OD1       -2.4600  -13.2920  -36.3930 O.2   282  ASN282     -0.2716
     83  ND2       -1.9450  -11.2490  -35.6210 N.am  282  ASN282     -0.0877
     84  N         -3.4260   -5.9620  -35.8090 N.3   290  LYS290     -0.1245
     85  CA        -2.2100   -6.0540  -34.9710 C.3   290  LYS290      0.1561
     86  C         -1.7360   -4.7370  -34.3740 C.2   290  LYS290      0.2260
     87  O         -1.0340   -4.7370  -33.3660 O.2   290  LYS290     -0.2867
     88  CB        -1.0200   -6.7080  -35.7180 C.3   290  LYS290      0.0271
     89  CG        -0.4900   -5.9380  -36.9340 C.3   290  LYS290      0.0035
     90  CD         0.6610   -6.6920  -37.5840 C.3   290  LYS290      0.0206
     91  CE         1.3450   -5.8750  -38.6680 C.3   290  LYS290      0.1093
     92  NZ         2.4100   -6.6390  -39.3810 N.3   290  LYS290     -0.1314
     93  N          8.6900  -10.7790  -40.2910 N.3   326  ASP326     -0.1225
     94  CA         7.3890  -10.1320  -40.1780 C.3   326  ASP326      0.1805
     95  C          6.9650   -9.8110  -38.7410 C.2   326  ASP326      0.2597
     96  O          5.8870   -9.2730  -38.5500 O.2   326  ASP326     -0.2718
     97  CB         6.2830  -11.0180  -40.7940 C.3   326  ASP326      0.1424
     98  CG         6.3900  -11.1740  -42.2870 C.2   326  ASP326      0.3668
     99  OD1        6.8840  -10.2520  -42.9690 O.co2 326  ASP326     -0.2456
    100  OD2        5.8810  -12.2150  -42.7820 O.co2 326  ASP326     -0.2456
    101  N          7.7910  -10.1350  -37.7450 N.am  327  GLN327     -0.1979
    102  CA         7.3950  -10.0260  -36.3520 C.3   327  GLN327      0.1601
    103  C          8.4000   -9.2390  -35.5500 C.2   327  GLN327      0.2287
    104  O          9.5780   -9.2080  -35.8970 O.2   327  GLN327     -0.2864
    105  CB         7.2730  -11.4190  -35.7290 C.3   327  GLN327      0.0394
    106  CG         6.3130  -12.3210  -36.4510 C.3   327  GLN327      0.0908
    107  CD         4.8720  -11.8710  -36.3410 C.2   327  GLN327      0.2608
    108  OE1        4.5210  -11.0720  -35.4810 O.2   327  GLN327     -0.2717
    109  NE2        4.0140  -12.4050  -37.2220 N.am  327  GLN327     -0.0878
    110  N          4.6190   -1.5560  -45.2920 N.3   384  GLU384     -0.1245
    111  CA         3.4590   -1.7780  -44.4280 C.3   384  GLU384      0.1567
    112  C          3.3870   -0.7190  -43.3440 C.2   384  GLU384      0.2260
    113  O          2.2970   -0.1980  -43.0490 O.2   384  GLU384     -0.2867
    114  CB         3.4740   -3.1790  -43.8060 C.3   384  GLU384      0.0388
    115  CG         2.3020   -3.4520  -42.8710 C.3   384  GLU384      0.1160
    116  CD         2.4710   -4.7260  -42.0780 C.2   384  GLU384      0.3649
    117  OE1        3.3630   -4.7720  -41.2100 O.co2 384  GLU384     -0.2457
    118  OE2        1.6970   -5.6780  -42.3010 O.co2 384  GLU384     -0.2457
    119  N          7.4790   -4.3540  -38.6650 N.3   411  ARG411     -0.1245
    120  CA         8.3680   -5.3750  -39.1930 C.3   411  ARG411      0.1563
    121  C          9.8450   -4.9360  -39.2200 C.2   411  ARG411      0.2260
    122  O         10.7360   -5.7800  -39.1900 O.2   411  ARG411     -0.2867
    123  CB         7.8910   -5.8410  -40.5680 C.3   411  ARG411      0.0307
    124  CG         6.4880   -6.4340  -40.5110 C.3   411  ARG411      0.0489
    125  CD         6.1050   -7.1440  -41.8040 C.3   411  ARG411      0.2205
    126  NE         6.0900   -6.2670  -42.9710 N.pl3 411  ARG411     -0.0865
    127  CZ         5.8460   -6.6920  -44.2180 C.cat 411  ARG411      0.5346
    128  NH1        5.5600   -7.9760  -44.4610 N.pl3 411  ARG411      0.1354
    129  NH2        5.8760   -5.8350  -45.2370 N.pl3 411  ARG411      0.1354
@<TRIPOS>BOND
     1    41    40    2
     2    40    39    1
     3    23    22    2
     4    22    21    1
     5    20    21    1
     6    21    24    1
     7    24    25    1
     8    27    25   ar
     9    27    29   ar
    10    39    42    1
    11    39    38    1
    12    42    43    1
    13    25    26   ar
    14    34    33    2
    15    29    30   ar
    16    37    35    1
    17    33    32    1
    18    43    45   ar
    19    43    44   ar
    20    45    47   ar
    21    16    18   ar
    22    16    14   ar
    23    26    28   ar
    24    18    19   ar
    25    30    28   ar
    26    35    32    1
    27    35    36    1
    28    31    32    1
    29    13    14    1
    30    13    10    1
    31    12    11    2
    32    44    46   ar
    33     1     2    1
    34    14    15   ar
    35    47    48   ar
    36    19    17   ar
    37    11    10    1
    38     9    10    1
    39     9     3   am
    40     8     6    1
    41     6     5    1
    42     5     2    1
    43     5     7    1
    44    46    48   ar
    45     2     3    1
    46    15    17   ar
    47     3     4    2
    48    56    55   ar
    49    52    51    2
    50   110   111    1
    51   129   127    1
    52    49    50    1
    53    53    50    1
    54    53    54    1
    55    55    54    1
    56    55    57   ar
    57    51    50    1
    58   128   127    1
    59   111   114    1
    60   111   112    1
    61   127   126    2
    62    64    63    1
    63    64    58    1
    64   114   115    1
    65    63    62    1
    66   112   113    2
    67    61    60    2
    68   126   125    1
    69    99    98   ar
    70   115   116    1
    71    58    59    1
    72   100    98   ar
    73    62    59    1
    74   118   116   ar
    75    98    97    1
    76   116   117   ar
    77    60    59    1
    78   125   124    1
    79    75    73   ar
    80    75    74   ar
    81    73    71   ar
    82    97    94    1
    83   123   124    1
    84   123   120    1
    85    74    72   ar
    86    93    94    1
    87    94    95    1
    88    71    70   ar
    89    92    91    1
    90    72    70   ar
    91   121   120    1
    92   121   122    2
    93   120   119    1
    94    70    69    1
    95    95    96    2
    96    95   101   am
    97    91    90    1
    98    69    66    1
    99   101   102    1
   100    90    89    1
   101    65    66    1
   102   109   107   am
   103    89    88    1
   104    66    67    1
   105   106   107    1
   106   106   105    1
   107    82    81    2
   108   102   105    1
   109   102   103    1
   110   107   108    2
   111   104   103    2
   112    84    85    1
   113    88    85    1
   114    67    68    2
   115    83    81   am
   116    81    80    1
   117    85    86    1
   118    86    87    2
   119    80    77    1
   120    77    76    1
   121    77    78    1
   122    79    78    2
