@<TRIPOS>MOLECULE
tmp/5dogA02.pdb
 217 213 0 0 0
SMALL
GASTEIGER

@<TRIPOS>ATOM
      1  N         29.4070    1.3800   10.4300 N.3     2  TRP2       -0.1241
      2  CA        28.7840    0.4230   11.3860 C.3     2  TRP2        0.1605
      3  C         27.8130   -0.3640   10.6110 C.2     2  TRP2        0.2264
      4  O         27.2640    0.1370    9.6190 O.2     2  TRP2       -0.2867
      5  CB        28.1030    1.1410   12.5470 C.3     2  TRP2        0.0550
      6  CG        26.9210    1.9800   12.1650 C.ar    2  TRP2        0.0003
      7  CD1       26.8530    3.3400   11.9050 C.ar    2  TRP2        0.0946
      8  CD2       25.5430    1.5020   12.1390 C.ar    2  TRP2        0.0152
      9  NE1       25.5470    3.7170   11.6260 N.ar    2  TRP2       -0.2442
     10  CE2       24.7170    2.6330   11.7620 C.ar    2  TRP2        0.0810
     11  CE3       24.9490    0.2630   12.3660 C.ar    2  TRP2        0.0012
     12  CZ2       23.3220    2.5210   11.6350 C.ar    2  TRP2        0.0191
     13  CZ3       23.5530    0.1550   12.2240 C.ar    2  TRP2        0.0001
     14  CH2       22.7640    1.2780   11.8800 C.ar    2  TRP2        0.0015
     15  N         25.8010   -4.6740   10.6830 N.3     4  TYR4       -0.1241
     16  CA        25.4150   -5.8670   11.4290 C.3     4  TYR4        0.1605
     17  C         26.3030   -7.0650   11.1770 C.2     4  TYR4        0.2264
     18  O         26.2330   -8.0830   11.9400 O.2     4  TYR4       -0.2867
     19  CB        23.9350   -6.1810   11.1620 C.3     4  TYR4        0.0534
     20  CG        23.0340   -5.1240   11.7740 C.ar    4  TYR4       -0.0201
     21  CD1       22.6920   -5.1740   13.1350 C.ar    4  TYR4       -0.0009
     22  CD2       22.5550   -4.0950   10.9920 C.ar    4  TYR4       -0.0009
     23  CE1       21.8910   -4.1510   13.6860 C.ar    4  TYR4        0.0417
     24  CE2       21.7340   -3.0830   11.5220 C.ar    4  TYR4        0.0417
     25  CZ        21.3860   -3.1630   12.8720 C.ar    4  TYR4        0.1957
     26  OH        20.5580   -2.1560   13.2980 O.3     4  TYR4       -0.2866
     27  N         17.7650    2.1850    3.6170 N.3    59  ASN59      -0.1240
     28  CA        18.8920    3.0130    4.0410 C.3    59  ASN59       0.1653
     29  C         20.1370    2.2050    4.3110 C.2    59  ASN59       0.2266
     30  O         21.1400    2.7350    4.9030 O.2    59  ASN59      -0.2867
     31  CB        18.4880    3.8450    5.2780 C.3    59  ASN59       0.1155
     32  CG        18.1570    2.9680    6.4880 C.2    59  ASN59       0.2627
     33  OD1       18.5830    1.8100    6.6050 O.2    59  ASN59      -0.2716
     34  ND2       17.4450    3.5510    7.4180 N.am   59  ASN59      -0.0877
     35  N         20.4190   -0.4100    6.1880 N.3    61  HIS61      -0.1226
     36  CA        20.3830   -1.1460    7.4890 C.3    61  HIS61       0.1752
     37  C         19.0130   -1.7610    7.6350 C.2    61  HIS61       0.2595
     38  O         18.9160   -2.9130    8.1090 O.2    61  HIS61      -0.2718
     39  CB        20.6630   -0.2260    8.6630 C.3    61  HIS61       0.0759
     40  CG        21.8920    0.6720    8.4770 C.ar   61  HIS61       0.0818
     41  ND1       23.1810    0.1780    8.5390 N.ar   61  HIS61      -0.2268
     42  CD2       22.0030    2.0470    8.2600 C.ar   61  HIS61       0.1154
     43  CE1       24.0760    1.1910    8.3460 C.ar   61  HIS61       0.1986
     44  NE2       23.3910    2.3270    8.1630 N.ar   61  HIS61      -0.2212
     45  N         17.9770   -1.0220    7.2350 N.am   62  ALA62      -0.1980
     46  CA        16.5900   -1.4630    7.3320 C.3    62  ALA62       0.1597
     47  C         15.8180   -0.7140    6.2340 C.2    62  ALA62       0.2287
     48  O         16.4830   -0.1040    5.3800 O.2    62  ALA62      -0.2864
     49  CB        16.0120   -1.2350    8.7060 C.3    62  ALA62       0.0319
     50  N         12.8200    2.3690    5.9400 N.3    64  ASN64      -0.1240
     51  CA        11.9400    3.2600    6.6990 C.3    64  ASN64       0.1653
     52  C         10.7610    3.6510    5.8440 C.2    64  ASN64       0.2266
     53  O         10.9700    4.0430    4.6740 O.2    64  ASN64      -0.2867
     54  CB        12.6680    4.5530    7.0000 C.3    64  ASN64       0.1155
     55  CG        13.8000    4.3600    7.9820 C.2    64  ASN64       0.2627
     56  OD1       13.8370    3.3500    8.6540 O.2    64  ASN64      -0.2716
     57  ND2       14.7470    5.3310    8.0620 N.am   64  ASN64      -0.0877
     58  N          8.6060    8.0270   11.2840 N.3    89  GLN89      -0.1245
     59  CA         8.8550    6.9090   10.3990 C.3    89  GLN89       0.1566
     60  C          8.5960    5.6200   11.1730 C.2    89  GLN89       0.2260
     61  O          8.5640    5.6570   12.4020 O.2    89  GLN89      -0.2867
     62  CB        10.3230    6.8740    9.8330 C.3    89  GLN89       0.0367
     63  CG        11.3910    6.9840   10.9450 C.3    89  GLN89       0.0905
     64  CD        12.0860    5.6380   11.2560 C.2    89  GLN89       0.2608
     65  OE1       11.4800    4.6310   11.2430 O.2    89  GLN89      -0.2717
     66  NE2       13.3710    5.6690   11.4890 N.am   89  GLN89      -0.0878
     67  N         10.0210    1.2860   10.9850 N.3    91  HIS91      -0.1226
     68  CA        10.9250    0.3490   10.3240 C.3    91  HIS91       0.1752
     69  C         10.8050   -0.8990   11.1350 C.2    91  HIS91       0.2596
     70  O         10.1080   -0.9400   12.1810 O.2    91  HIS91      -0.2718
     71  CB        12.3880    0.8180   10.3060 C.3    91  HIS91       0.0759
     72  CG        12.8730    1.1340   11.6860 C.ar   91  HIS91       0.0818
     73  ND1       12.6560    2.3250   12.2740 N.ar   91  HIS91      -0.2268
     74  CD2       13.4650    0.3030   12.6510 C.ar   91  HIS91       0.1154
     75  CE1       13.1050    2.2940   13.5340 C.ar   91  HIS91       0.1986
     76  NE2       13.6190    1.0440   13.7670 N.ar   91  HIS91      -0.2212
     77  N         11.4800   -1.9260   10.6530 N.am   92  PHE92      -0.1962
     78  CA        11.5350   -3.2270   11.3270 C.3    92  PHE92       0.1771
     79  C         12.9580   -3.6700   11.5240 C.2    92  PHE92       0.2619
     80  O         13.9130   -3.2110   10.8830 O.2    92  PHE92      -0.2715
     81  CB        10.8370   -4.3200   10.5020 C.3    92  PHE92       0.0574
     82  CG         9.3780   -4.0000   10.1950 C.ar   92  PHE92      -0.0200
     83  CD1        9.0300   -3.1600    9.1280 C.ar   92  PHE92      -0.0042
     84  CD2        8.3390   -4.6800   10.8730 C.ar   92  PHE92      -0.0042
     85  CE1        7.7120   -2.9040    8.7850 C.ar   92  PHE92      -0.0003
     86  CE2        7.0100   -4.4490   10.5380 C.ar   92  PHE92      -0.0003
     87  CZ         6.7000   -3.5900    9.4550 C.ar   92  PHE92      -0.0000
     88  N         13.0820   -4.5740   12.4820 N.am   93  HIS93      -0.1973
     89  CA        14.2660   -5.4470   12.6150 C.3    93  HIS93       0.1656
     90  C         13.8930   -6.9170   12.4760 C.2    93  HIS93       0.2291
     91  O         12.8510   -7.3040   13.0070 O.2    93  HIS93      -0.2864
     92  CB        14.9410   -5.2520   14.0060 C.3    93  HIS93       0.0771
     93  CG        15.2140   -3.8140   14.3280 C.ar   93  HIS93       0.0820
     94  ND1       16.4390   -3.2480   14.1170 N.ar   93  HIS93      -0.2267
     95  CD2       14.3620   -2.7560   14.7280 C.ar   93  HIS93       0.1154
     96  CE1       16.4080   -1.9510   14.5400 C.ar   93  HIS93       0.1986
     97  NE2       15.1440   -1.6210   14.8080 N.ar   93  HIS93      -0.2212
     98  N          9.1370   -0.8250   14.8510 N.3   116  HIS116     -0.1241
     99  CA         9.4050    0.3620   15.6510 C.3   116  HIS116      0.1621
    100  C          8.7420    1.5260   14.9790 C.2   116  HIS116      0.2264
    101  O          9.1480    1.8930   13.8400 O.2   116  HIS116     -0.2867
    102  CB        10.9090    0.6020   15.7210 C.3   116  HIS116      0.0745
    103  CG        11.5880   -0.3310   16.6600 C.ar  116  HIS116      0.0817
    104  ND1       12.9720   -0.5520   16.6840 N.ar  116  HIS116     -0.2268
    105  CD2       11.0590   -1.1340   17.6290 C.ar  116  HIS116      0.1154
    106  CE1       13.2520   -1.4510   17.6170 C.ar  116  HIS116      0.1986
    107  NE2       12.1060   -1.8340   18.1830 N.ar  116  HIS116     -0.2212
    108  N          8.4390    5.3340   15.1920 N.3   118  VAL118     -0.1245
    109  CA         9.2850    6.3820   15.8780 C.3   118  VAL118      0.1561
    110  C          8.5720    7.7210   15.9370 C.2   118  VAL118      0.2260
    111  O          8.1160    8.2100   14.8960 O.2   118  VAL118     -0.2867
    112  CB        10.6280    6.4960   15.1440 C.3   118  VAL118      0.0252
    113  CG1       11.5070    7.5960   15.7980 C.3   118  VAL118      0.0019
    114  CG2       11.3550    5.1520   15.0710 C.3   118  VAL118      0.0019
    115  N         12.7420   16.6270   14.8350 N.3   127  PHE127     -0.1227
    116  CA        13.4360   15.3750   15.2140 C.3   127  PHE127      0.1736
    117  C         14.8880   15.6130   15.6230 C.2   127  PHE127      0.2596
    118  O         15.3130   15.0370   16.6160 O.2   127  PHE127     -0.2718
    119  CB        13.3900   14.3510   14.0470 C.3   127  PHE127      0.0547
    120  CG        14.0430   13.0660   14.3580 C.ar  127  PHE127     -0.0202
    121  CD1       13.2840   12.0420   14.9860 C.ar  127  PHE127     -0.0042
    122  CD2       15.3640   12.8070   13.9960 C.ar  127  PHE127     -0.0042
    123  CE1       13.8460   10.8260   15.3000 C.ar  127  PHE127     -0.0003
    124  CE2       15.9290   11.6090   14.2900 C.ar  127  PHE127     -0.0003
    125  CZ        15.1760   10.5980   14.9490 C.ar  127  PHE127     -0.0000
    126  N         15.6510   16.4360   14.8680 N.am  128  GLY128     -0.1957
    127  CA        17.0710   16.5560   15.1480 C.3   128  GLY128      0.1869
    128  C         17.3100   17.1910   16.5180 C.2   128  GLY128      0.2309
    129  O         18.2890   16.8500   17.2040 O.2   128  GLY128     -0.2863
    130  N         16.2190   14.4760   19.4800 N.3   131  VAL131     -0.1245
    131  CA        17.1220   13.3230   19.8360 C.3   131  VAL131      0.1561
    132  C         18.2250   13.7490   20.8150 C.2   131  VAL131      0.2260
    133  O         18.9090   12.9160   21.4060 O.2   131  VAL131     -0.2867
    134  CB        17.7490   12.6240   18.6020 C.3   131  VAL131      0.0252
    135  CG1       16.6480   12.0460   17.7210 C.3   131  VAL131      0.0019
    136  CG2       18.6410   13.5470   17.8280 C.3   131  VAL131      0.0019
    137  N         12.1590   11.3190   22.3170 N.3   137  LEU137     -0.1245
    138  CA        11.4980   10.3900   21.3780 C.3   137  LEU137      0.1561
    139  C         10.5960    9.4450   22.1780 C.2   137  LEU137      0.2260
    140  O         10.8330    9.1670   23.3710 O.2   137  LEU137     -0.2867
    141  CB        12.5300    9.5650   20.6280 C.3   137  LEU137      0.0270
    142  CG        13.4710   10.2210   19.6150 C.3   137  LEU137      0.0019
    143  CD1       14.0760    9.1240   18.7320 C.3   137  LEU137      0.0001
    144  CD2       12.8080   11.1540   18.6490 C.3   137  LEU137      0.0001
    145  N          9.2220    5.5740   21.1540 N.3   139  VAL139     -0.1245
    146  CA         9.1910    4.5250   20.1340 C.3   139  VAL139      0.1561
    147  C          8.1970    3.4820   20.6100 C.2   139  VAL139      0.2260
    148  O          8.3470    2.9190   21.7370 O.2   139  VAL139     -0.2867
    149  CB        10.5760    3.9470   19.7830 C.3   139  VAL139      0.0252
    150  CG1       10.4820    2.9100   18.6300 C.3   139  VAL139      0.0019
    151  CG2       11.5000    5.0670   19.3720 C.3   139  VAL139      0.0019
    152  N         18.0880    4.9340   21.2510 N.3   194  LEU194     -0.1231
    153  CA        17.9390    4.4490   19.8900 C.3   194  LEU194      0.1693
    154  C         18.7720    3.1040   19.9300 C.2   194  LEU194      0.2593
    155  O         19.8310    2.9270   20.6470 O.2   194  LEU194     -0.2718
    156  CB        18.6570    5.2950   18.8480 C.3   194  LEU194      0.0284
    157  CG        18.2760    6.7630   18.8130 C.3   194  LEU194      0.0019
    158  CD1       19.0650    7.6330   17.8430 C.3   194  LEU194      0.0001
    159  CD2       16.7850    6.9020   18.5830 C.3   194  LEU194      0.0001
    160  N         18.2970    2.1330   19.1520 N.am  195  THR195     -0.1939
    161  CA        19.0270    0.8020   19.1000 C.3   195  THR195      0.2028
    162  C         20.0380    0.7620   17.9160 C.2   195  THR195      0.2643
    163  O         20.6780   -0.3210   17.7370 O.2   195  THR195     -0.2714
    164  CB        18.0600   -0.3680   19.0100 C.3   195  THR195      0.1808
    165  OG1       17.4540   -0.2990   17.7090 O.3   195  THR195     -0.2208
    166  CG2       17.0510   -0.3140   20.1710 C.3   195  THR195      0.0379
    167  N         20.1130    1.8400   17.1290 N.am  196  THR196     -0.1937
    168  CA        21.1430    2.0160   16.0810 C.3   196  THR196      0.2013
    169  C         22.0220    3.2170   16.4130 C.2   196  THR196      0.2484
    170  O         21.5700    4.2060   16.9890 O.2   196  THR196     -0.2729
    171  CB        20.5040    2.2400   14.7150 C.3   196  THR196      0.1807
    172  OG1       19.5130    3.2960   14.8110 O.3   196  THR196     -0.2208
    173  CG2       19.9310    0.9020   14.2720 C.3   196  THR196      0.0379
    174  N         23.3070    3.1500   15.9460 N.am  197  PRO197     -0.2715
    175  CA        24.1040    4.3940   16.0890 C.3   197  PRO197      0.1521
    176  C         23.3140    5.5820   15.5670 C.2   197  PRO197      0.2440
    177  O         22.7210    5.4550   14.4610 O.2   197  PRO197     -0.2731
    178  CB        25.2980    4.0820   15.1830 C.3   197  PRO197      0.0310
    179  CG        25.5330    2.6300   15.4140 C.3   197  PRO197      0.0237
    180  CD        24.1010    2.0400   15.4040 C.3   197  PRO197      0.0939
    181  N         23.3990    6.7720   16.2130 N.am  198  PRO198     -0.2727
    182  CA        24.2730    7.1410   17.3490 C.3   198  PRO198      0.1402
    183  C         23.9040    6.6890   18.7590 C.2   198  PRO198      0.2269
    184  O         24.5820    7.1220   19.7270 O.2   198  PRO198     -0.2865
    185  CB        24.3350    8.6730   17.2320 C.3   198  PRO198      0.0296
    186  CG        22.9740    9.0120   16.7430 C.3   198  PRO198      0.0237
    187  CD        22.7280    7.9910   15.6530 C.3   198  PRO198      0.0939
    188  N         21.6300    7.2410   20.8110 N.3   200  LEU200     -0.1245
    189  CA        21.3650    8.3290   21.7400 C.3   200  LEU200      0.1561
    190  C         20.3410    7.9400   22.8050 C.2   200  LEU200      0.2260
    191  O         19.3500    7.2740   22.5090 O.2   200  LEU200     -0.2867
    192  CB        20.8660    9.6010   20.9970 C.3   200  LEU200      0.0270
    193  CG        21.9350   10.1920   19.9970 C.3   200  LEU200      0.0019
    194  CD1       21.2940   11.2090   19.0760 C.3   200  LEU200      0.0001
    195  CD2       23.0070   10.8310   20.8820 C.3   200  LEU200      0.0001
    196  N         10.6300    4.0910   25.7600 N.3   205  TRP205     -0.1241
    197  CA        10.2000    2.8530   25.0250 C.3   205  TRP205      0.1605
    198  C          8.8350    2.4360   25.4940 C.2   205  TRP205      0.2264
    199  O          8.5960    2.3660   26.6880 O.2   205  TRP205     -0.2867
    200  CB        11.2050    1.6870   25.2840 C.3   205  TRP205      0.0550
    201  CG        12.3250    1.8310   24.3020 C.ar  205  TRP205      0.0003
    202  CD1       13.5810    2.4280   24.4560 C.ar  205  TRP205      0.0946
    203  CD2       12.2440    1.4330   22.9150 C.ar  205  TRP205      0.0152
    204  NE1       14.2580    2.4170   23.2630 N.ar  205  TRP205     -0.2442
    205  CE2       13.5040    1.7780   22.3070 C.ar  205  TRP205      0.0810
    206  CE3       11.2520    0.7940   22.1450 C.ar  205  TRP205      0.0012
    207  CZ2       13.7800    1.5340   20.9820 C.ar  205  TRP205      0.0191
    208  CZ3       11.5390    0.4910   20.8170 C.ar  205  TRP205      0.0001
    209  CH2       12.7740    0.8440   20.2400 C.ar  205  TRP205      0.0015
    210  N         19.3050   -7.7170   11.3290 N.3   240  ASN240     -0.1240
    211  CA        19.6540   -6.2910   11.6150 C.3   240  ASN240      0.1653
    212  C         19.0590   -5.9050   12.9720 C.2   240  ASN240      0.2266
    213  O         18.3570   -4.8740   13.0640 O.2   240  ASN240     -0.2867
    214  CB        19.0880   -5.4010   10.5060 C.3   240  ASN240      0.1155
    215  CG        17.6270   -5.6450   10.2270 C.2   240  ASN240      0.2627
    216  OD1       16.9590   -6.5390   10.8210 O.2   240  ASN240     -0.2716
    217  ND2       17.0800   -4.7890    9.3430 N.am  240  ASN240     -0.0877
@<TRIPOS>BOND
     1    27    28    1
     2    28    29    1
     3    28    31    1
     4    29    30    2
     5    53    52    2
     6    31    32    1
     7    48    47    2
     8    52    51    1
     9    50    51    1
    10    35    36    1
    11    47    46    1
    12    32    33    2
    13    32    34   am
    14    51    54    1
    15    54    55    1
    16    45    46    1
    17    45    37   am
    18    46    49    1
    19    36    37    1
    20    36    39    1
    21    37    38    2
    22    55    57   am
    23    55    56    2
    24    44    42   ar
    25    44    43   ar
    26    42    40   ar
    27    43    41   ar
    28    40    41   ar
    29    40    39    1
    30    85    83   ar
    31    85    87   ar
    32    83    82   ar
    33   217   215   am
    34    87    86   ar
    35     4     3    2
    36    62    59    1
    37    62    63    1
    38    82    81    1
    39    82    84   ar
    40   215   214    1
    41   215   216    2
    42    71    68    1
    43    71    72    1
    44    68    67    1
    45    68    69    1
    46    59    60    1
    47    59    58    1
    48     1     2    1
    49    81    78    1
    50   214   211    1
    51    86    84   ar
    52     3     2    1
    53    77    69   am
    54    77    78    1
    55    15    16    1
    56    80    79    2
    57    63    64    1
    58    22    24   ar
    59    22    20   ar
    60    69    70    2
    61    19    16    1
    62    19    20    1
    63    60    61    2
    64    17    16    1
    65    17    18    2
    66    65    64    2
    67    64    66   am
    68    78    79    1
    69   210   211    1
    70     2     5    1
    71    24    25   ar
    72    79    88   am
    73   211   212    1
    74     9    10   ar
    75     9     7   ar
    76    12    10   ar
    77    12    14   ar
    78    72    73   ar
    79    72    74   ar
    80    10     8   ar
    81    20    21   ar
    82    14    13   ar
    83     7     6   ar
    84     8     6   ar
    85     8    11   ar
    86     6     5    1
    87    13    11   ar
    88    73    75   ar
    89    90    89    1
    90    90    91    2
    91    88    89    1
    92    89    92    1
    93    74    76   ar
    94    25    26    1
    95    25    23   ar
    96   212   213    2
    97    21    23   ar
    98    75    76   ar
    99   101   100    2
   100   122   124   ar
   101   122   120   ar
   102    92    93    1
   103   119   120    1
   104   119   116    1
   105    94    93   ar
   106    94    96   ar
   107   173   171    1
   108   124   125   ar
   109    93    95   ar
   110   120   121   ar
   111   177   176    2
   112    96    97   ar
   113   171   172    1
   114   171   168    1
   115    95    97   ar
   116   115   116    1
   117    98    99    1
   118   126   127    1
   119   126   117   am
   120   111   110    2
   121   125   123   ar
   122   100    99    1
   123   121   123   ar
   124   114   112    1
   125   112   113    1
   126   112   109    1
   127   127   128    1
   128   178   179    1
   129   178   175    1
   130   108   109    1
   131   116   117    1
   132   180   179    1
   133   180   174    1
   134   176   175    1
   135   176   181   am
   136   117   118    2
   137    99   102    1
   138   187   181    1
   139   187   186    1
   140   102   103    1
   141   109   110    1
   142   174   175    1
   143   174   169   am
   144   168   169    1
   145   168   167    1
   146   181   182    1
   147   169   170    2
   148   128   129    2
   149   103   104   ar
   150   103   105   ar
   151   104   106   ar
   152   186   185    1
   153   167   162   am
   154   185   182    1
   155   182   183    1
   156   106   107   ar
   157   105   107   ar
   158   165   164    1
   159   135   134    1
   160   163   162    2
   161   136   134    1
   162   158   157    1
   163   162   161    1
   164   159   157    1
   165   134   131    1
   166   150   149    1
   167   144   142    1
   168   143   142    1
   169   183   184    2
   170   157   156    1
   171   156   153    1
   172   164   161    1
   173   164   166    1
   174   194   193    1
   175   161   160    1
   176   160   154   am
   177   151   149    1
   178   130   131    1
   179   142   141    1
   180   149   146    1
   181   131   132    1
   182   153   154    1
   183   153   152    1
   184   154   155    2
   185   193   195    1
   186   193   192    1
   187   146   147    1
   188   146   145    1
   189   209   208   ar
   190   209   207   ar
   191   147   148    2
   192   141   138    1
   193   188   189    1
   194   132   133    2
   195   208   206   ar
   196   207   205   ar
   197   192   189    1
   198   138   139    1
   199   138   137    1
   200   189   190    1
   201   206   203   ar
   202   139   140    2
   203   205   203   ar
   204   205   204   ar
   205   191   190    2
   206   203   201   ar
   207   204   202   ar
   208   201   202   ar
   209   201   200    1
   210   197   200    1
   211   197   198    1
   212   197   196    1
   213   198   199    2
