@<TRIPOS>MOLECULE
tmp/5dohB01.pdb
 215 210 0 0 0
SMALL
GASTEIGER

@<TRIPOS>ATOM
      1  N         -1.5660   21.8020   26.2400 N.3     3  TRP3       -0.1241
      2  CA        -2.3020   20.8480   27.0250 C.3     3  TRP3        0.1605
      3  C         -3.3230   20.0510   26.2310 C.2     3  TRP3        0.2264
      4  O         -3.8450   20.5580   25.2190 O.2     3  TRP3       -0.2867
      5  CB        -2.8890   21.5520   28.2610 C.3     3  TRP3        0.0550
      6  CG        -4.0740   22.4300   27.9080 C.ar    3  TRP3        0.0003
      7  CD1       -4.0730   23.7890   27.6000 C.ar    3  TRP3        0.0946
      8  CD2       -5.4620   22.0040   27.8280 C.ar    3  TRP3        0.0152
      9  NE1       -5.3370   24.2170   27.3530 N.ar    3  TRP3       -0.2442
     10  CE2       -6.2170   23.1850   27.4760 C.ar    3  TRP3        0.0810
     11  CE3       -6.1460   20.7950   28.0530 C.ar    3  TRP3        0.0012
     12  CZ2       -7.5830   23.1580   27.3050 C.ar    3  TRP3        0.0191
     13  CZ3       -7.5600   20.7850   27.8970 C.ar    3  TRP3        0.0001
     14  CH2       -8.2540   21.9730   27.5370 C.ar    3  TRP3        0.0015
     15  N         -5.1210   15.6560   26.5730 N.3     5  TYR5       -0.1298
     16  CA        -5.4530   14.6330   27.6130 C.3     5  TYR5        0.1290
     17  C         -4.5920   13.3860   27.5910 C.3     5  TYR5        0.2013
     18  O         -4.9190   12.3110   28.2440 O.3     5  TYR5       -0.2188
     19  CB        -6.9290   14.2480   27.3780 C.3     5  TYR5        0.0480
     20  CG        -7.8790   15.3280   27.8220 C.ar    5  TYR5       -0.0204
     21  CD1       -8.3720   15.3390   29.1300 C.ar    5  TYR5       -0.0009
     22  CD2       -8.3160   16.3100   26.9490 C.ar    5  TYR5       -0.0009
     23  CE1       -9.2730   16.3330   29.5330 C.ar    5  TYR5        0.0417
     24  CE2       -9.2010   17.2900   27.3400 C.ar    5  TYR5        0.0417
     25  CZ        -9.6760   17.3130   28.6240 C.ar    5  TYR5        0.1957
     26  OH       -10.5630   18.3310   28.9370 O.3     5  TYR5       -0.2866
     27  N        -13.5660   22.6550   19.3110 N.3    60  ASN60      -0.1240
     28  CA       -12.5010   23.5260   19.7710 C.3    60  ASN60       0.1653
     29  C        -11.1710   22.7710   19.9660 C.2    60  ASN60       0.2266
     30  O        -10.1910   23.2780   20.5610 O.2    60  ASN60      -0.2867
     31  CB       -12.7860   24.2990   21.0140 C.3    60  ASN60       0.1155
     32  CG       -13.1250   23.3640   22.1570 C.2    60  ASN60       0.2627
     33  OD1      -12.5880   22.2390   22.3370 O.2    60  ASN60      -0.2716
     34  ND2      -14.0780   23.8060   22.9620 N.am   60  ASN60      -0.0877
     35  N        -10.8330   20.0580   21.8840 N.3    62  HIS62      -0.1226
     36  CA       -10.8710   19.3620   23.2370 C.3    62  HIS62       0.1752
     37  C        -12.2410   18.6740   23.3300 C.2    62  HIS62       0.2595
     38  O        -12.3300   17.5240   23.8020 O.2    62  HIS62      -0.2718
     39  CB       -10.6120   20.3920   24.3690 C.3    62  HIS62       0.0759
     40  CG        -9.3350   21.0790   24.2470 C.ar   62  HIS62       0.0818
     41  ND1       -8.1290   20.4180   24.3860 N.ar   62  HIS62      -0.2268
     42  CD2       -9.0460   22.4150   24.0810 C.ar   62  HIS62       0.1154
     43  CE1       -7.1360   21.3030   24.2890 C.ar   62  HIS62       0.1986
     44  NE2       -7.6810   22.5250   24.0780 N.ar   62  HIS62      -0.2212
     45  N        -13.2850   19.3840   22.9210 N.am   63  ALA63      -0.1980
     46  CA       -14.6630   18.9500   22.9460 C.3    63  ALA63       0.1597
     47  C        -15.4320   19.7550   21.8660 C.2    63  ALA63       0.2287
     48  O        -14.7780   20.4510   21.0250 O.2    63  ALA63      -0.2864
     49  CB       -15.2790   19.1260   24.3430 C.3    63  ALA63       0.0319
     50  N        -18.4280   22.8510   21.5890 N.3    65  ASN65      -0.1240
     51  CA       -19.2610   23.7810   22.3330 C.3    65  ASN65       0.1653
     52  C        -20.5360   24.1570   21.5330 C.2    65  ASN65       0.2266
     53  O        -20.3940   24.5530   20.3330 O.2    65  ASN65      -0.2867
     54  CB       -18.5160   25.0770   22.5820 C.3    65  ASN65       0.1155
     55  CG       -17.3070   24.9340   23.4390 C.2    65  ASN65       0.2627
     56  OD1      -17.1340   23.9290   24.2020 O.2    65  ASN65      -0.2716
     57  ND2      -16.4360   25.9400   23.3500 N.am   65  ASN65      -0.0877
     58  N        -22.9940   27.0560   21.4140 N.3    67  GLU67      -0.1245
     59  CA       -22.9160   28.4560   21.8610 C.3    67  GLU67       0.1567
     60  C        -24.2870   29.1270   21.8570 C.2    67  GLU67       0.2260
     61  O        -25.0880   28.8790   20.8990 O.2    67  GLU67      -0.2867
     62  CB       -22.0130   29.2130   20.9300 C.3    67  GLU67       0.0388
     63  CG       -20.6380   28.6750   21.0010 C.3    67  GLU67       0.1160
     64  CD       -19.8000   29.1210   19.8300 C.2    67  GLU67       0.3649
     65  OE1      -20.2700   29.8390   18.8950 O.co2  67  GLU67      -0.2457
     66  OE2      -18.5830   28.7710   19.7640 O.co2  67  GLU67      -0.2457
     67  N        -24.0370   30.6240   28.5290 N.3    89  ILE89      -0.1231
     68  CA       -23.1500   30.9820   27.4130 C.3    89  ILE89       0.1692
     69  C        -22.9080   29.8080   26.4760 C.2    89  ILE89       0.2591
     70  O        -22.8230   30.0230   25.2560 O.2    89  ILE89      -0.2718
     71  CB       -21.8360   31.6180   27.9150 C.3    89  ILE89       0.0266
     72  CG1      -20.8940   32.0150   26.7270 C.3    89  ILE89       0.0019
     73  CG2      -21.0870   30.7560   28.9380 C.3    89  ILE89       0.0020
     74  CD1      -19.7130   32.8810   27.1730 C.3    89  ILE89       0.0001
     75  N        -22.7520   28.5780   26.9740 N.am   90  GLN90      -0.1979
     76  CA       -22.5000   27.4340   26.1220 C.3    90  GLN90       0.1601
     77  C        -22.6890   26.1820   26.9070 C.2    90  GLN90       0.2287
     78  O        -22.7540   26.1960   28.1340 O.2    90  GLN90      -0.2864
     79  CB       -21.0630   27.4480   25.6120 C.3    90  GLN90       0.0394
     80  CG       -19.9830   27.4750   26.6930 C.3    90  GLN90       0.0908
     81  CD       -19.2170   26.1500   26.8090 C.2    90  GLN90       0.2608
     82  OE1      -19.7160   25.1290   27.0800 O.2    90  GLN90      -0.2717
     83  NE2      -18.0460   26.1290   26.3080 N.am   90  GLN90      -0.0878
     84  N        -21.2070   21.8940   26.6570 N.3    92  HIS92      -0.1226
     85  CA       -20.3120   20.9230   26.0490 C.3    92  HIS92       0.1752
     86  C        -20.4090   19.6400   26.8950 C.2    92  HIS92       0.2596
     87  O        -21.0500   19.6220   27.9370 O.2    92  HIS92      -0.2718
     88  CB       -18.8740   21.4320   25.9910 C.3    92  HIS92       0.0759
     89  CG       -18.3240   21.7040   27.3880 C.ar   92  HIS92       0.0818
     90  ND1      -18.4910   22.8690   28.0130 N.ar   92  HIS92      -0.2268
     91  CD2      -17.7000   20.8190   28.2790 C.ar   92  HIS92       0.1154
     92  CE1      -18.0240   22.7510   29.2840 C.ar   92  HIS92       0.1986
     93  NE2      -17.5190   21.5040   29.4770 N.ar   92  HIS92      -0.2212
     94  N        -19.7440   18.6060   26.4070 N.am   93  PHE93      -0.1962
     95  CA       -19.6920   17.3090   27.0900 C.3    93  PHE93       0.1771
     96  C        -18.2490   16.8790   27.2660 C.2    93  PHE93       0.2619
     97  O        -17.3260   17.3350   26.6060 O.2    93  PHE93      -0.2715
     98  CB       -20.4010   16.2270   26.2310 C.3    93  PHE93       0.0574
     99  CG       -21.8210   16.5010   25.9060 C.ar   93  PHE93      -0.0200
    100  CD1      -22.1590   17.3610   24.8700 C.ar   93  PHE93      -0.0042
    101  CD2      -22.8740   15.8850   26.6150 C.ar   93  PHE93      -0.0042
    102  CE1      -23.4890   17.5730   24.5060 C.ar   93  PHE93      -0.0003
    103  CE2      -24.1900   16.0750   26.2630 C.ar   93  PHE93      -0.0003
    104  CZ       -24.5010   16.9520   25.2110 C.ar   93  PHE93      -0.0000
    105  N        -18.0670   15.9250   28.1840 N.am   94  HIS94      -0.1973
    106  CA       -16.9050   15.1160   28.3560 C.3    94  HIS94       0.1656
    107  C        -17.3100   13.6600   28.2330 C.2    94  HIS94       0.2291
    108  O        -18.4070   13.3080   28.7210 O.2    94  HIS94      -0.2864
    109  CB       -16.2070   15.3220   29.7230 C.3    94  HIS94       0.0771
    110  CG       -15.9100   16.7630   29.9940 C.ar   94  HIS94       0.0820
    111  ND1      -14.6820   17.3240   29.8560 N.ar   94  HIS94      -0.2267
    112  CD2      -16.7400   17.8050   30.4160 C.ar   94  HIS94       0.1154
    113  CE1      -14.7450   18.6330   30.1800 C.ar   94  HIS94       0.1986
    114  NE2      -15.9770   18.9440   30.5110 N.ar   94  HIS94      -0.2212
    115  N        -22.0380   19.6820   30.5820 N.3   117  HIS117     -0.1241
    116  CA       -21.7750   20.9030   31.3740 C.3   117  HIS117      0.1621
    117  C        -22.4780   22.0810   30.6670 C.2   117  HIS117      0.2264
    118  O        -22.0770   22.4380   29.5410 O.2   117  HIS117     -0.2867
    119  CB       -20.3020   21.1860   31.4570 C.3   117  HIS117      0.0745
    120  CG       -19.5850   20.2240   32.3660 C.ar  117  HIS117      0.0817
    121  ND1      -18.2250   20.0190   32.3440 N.ar  117  HIS117     -0.2268
    122  CD2      -20.1260   19.3760   33.2940 C.ar  117  HIS117      0.1154
    123  CE1      -17.9570   19.0790   33.2560 C.ar  117  HIS117      0.1986
    124  NE2      -19.0850   18.6970   33.8490 N.ar  117  HIS117     -0.2212
    125  N        -22.7720   25.9000   30.9830 N.3   119  VAL119     -0.1245
    126  CA       -21.9360   26.9360   31.6190 C.3   119  VAL119      0.1561
    127  C        -22.6770   28.2660   31.6290 C.2   119  VAL119      0.2260
    128  O        -23.1290   28.7370   30.5690 O.2   119  VAL119     -0.2867
    129  CB       -20.6020   27.0650   30.8540 C.3   119  VAL119      0.0252
    130  CG1      -19.7390   28.1420   31.4950 C.3   119  VAL119      0.0019
    131  CG2      -19.8690   25.7280   30.7540 C.3   119  VAL119      0.0019
    132  N        -18.5160   37.1280   30.5320 N.3   128  PHE128     -0.1241
    133  CA       -17.8630   35.9010   30.9690 C.3   128  PHE128      0.1605
    134  C        -16.3870   36.1160   31.3410 C.2   128  PHE128      0.2264
    135  O        -15.9010   35.5410   32.3180 O.2   128  PHE128     -0.2867
    136  CB       -17.9740   34.8740   29.8160 C.3   128  PHE128      0.0534
    137  CG       -17.2410   33.6110   30.0450 C.ar  128  PHE128     -0.0203
    138  CD1      -17.8770   32.5800   30.6760 C.ar  128  PHE128     -0.0042
    139  CD2      -15.9110   33.4220   29.6660 C.ar  128  PHE128     -0.0042
    140  CE1      -17.2480   31.3700   30.9410 C.ar  128  PHE128     -0.0003
    141  CE2      -15.2790   32.2380   29.9020 C.ar  128  PHE128     -0.0003
    142  CZ       -15.9460   31.2070   30.5690 C.ar  128  PHE128     -0.0000
    143  N        -19.0070   31.8340   37.9110 N.3   138  LEU138     -0.1245
    144  CA       -19.6790   30.8760   37.0380 C.3   138  LEU138      0.1561
    145  C        -20.5340   29.9420   37.8560 C.2   138  LEU138      0.2260
    146  O        -20.2590   29.6400   39.0280 O.2   138  LEU138     -0.2867
    147  CB       -18.7280   30.0070   36.2420 C.3   138  LEU138      0.0270
    148  CG       -17.8290   30.6800   35.2140 C.3   138  LEU138      0.0019
    149  CD1      -17.0430   29.6300   34.4510 C.3   138  LEU138      0.0001
    150  CD2      -18.4340   31.7160   34.3430 C.3   138  LEU138      0.0001
    151  N        -21.9530   26.0980   36.8670 N.3   140  VAL140     -0.1245
    152  CA       -21.9670   25.0440   35.8680 C.3   140  VAL140      0.1561
    153  C        -22.9070   23.9890   36.3680 C.2   140  VAL140      0.2260
    154  O        -22.7980   23.4510   37.4490 O.2   140  VAL140     -0.2867
    155  CB       -20.5970   24.4950   35.5310 C.3   140  VAL140      0.0252
    156  CG1      -20.7360   23.4410   34.4020 C.3   140  VAL140      0.0019
    157  CG2      -19.6430   25.5990   35.0810 C.3   140  VAL140      0.0019
    158  N        -13.0400   25.4600   36.9630 N.3   195  LEU195     -0.1231
    159  CA       -13.0200   24.9040   35.6280 C.3   195  LEU195      0.1693
    160  C        -12.2990   23.5920   35.6740 C.2   195  LEU195      0.2593
    161  O        -11.3080   23.4270   36.4040 O.2   195  LEU195     -0.2718
    162  CB       -12.3110   25.8450   34.6660 C.3   195  LEU195      0.0284
    163  CG       -12.7320   27.2670   34.5840 C.3   195  LEU195      0.0019
    164  CD1      -11.8840   28.0400   33.5930 C.3   195  LEU195      0.0001
    165  CD2      -14.1020   27.3390   34.1430 C.3   195  LEU195      0.0001
    166  N        -12.7230   22.6310   34.8390 N.am  196  THR196     -0.1939
    167  CA       -12.0450   21.3310   34.7670 C.3   196  THR196      0.2028
    168  C        -11.0110   21.2360   33.6550 C.2   196  THR196      0.2643
    169  O        -10.4190   20.1660   33.4680 O.2   196  THR196     -0.2714
    170  CB       -13.0360   20.1730   34.6880 C.3   196  THR196      0.1808
    171  OG1      -13.6590   20.2920   33.4170 O.3   196  THR196     -0.2208
    172  CG2      -14.0380   20.1520   35.8180 C.3   196  THR196      0.0379
    173  N        -10.8070   22.3360   32.8960 N.am  197  THR197     -0.1937
    174  CA        -9.8240   22.4360   31.8790 C.3   197  THR197      0.2013
    175  C         -8.9910   23.6830   32.1960 C.2   197  THR197      0.2484
    176  O         -9.4490   24.6150   32.8150 O.2   197  THR197     -0.2729
    177  CB       -10.4460   22.6160   30.5020 C.3   197  THR197      0.1807
    178  OG1      -11.3700   23.7300   30.5250 O.3   197  THR197     -0.2208
    179  CG2      -11.1560   21.3570   30.0820 C.3   197  THR197      0.0379
    180  N         -7.7070   23.6820   31.7560 N.am  198  PRO198     -0.2726
    181  CA        -6.9480   24.9140   31.8080 C.3   198  PRO198      0.1402
    182  C         -7.7610   26.0820   31.2500 C.2   198  PRO198      0.2269
    183  O         -8.4080   25.9380   30.2210 O.2   198  PRO198     -0.2865
    184  CB        -5.7170   24.5660   30.9100 C.3   198  PRO198      0.0296
    185  CG        -5.5250   23.1220   31.1780 C.3   198  PRO198      0.0237
    186  CD        -6.9110   22.5720   31.1270 C.3   198  PRO198      0.0939
    187  N        -16.0890   28.5530   40.0140 N.3   204  VAL204     -0.1245
    188  CA       -17.3180   27.8460   39.6610 C.3   204  VAL204      0.1561
    189  C        -18.1030   27.4010   40.9020 C.2   204  VAL204      0.2260
    190  O        -17.5140   26.7290   41.7890 O.2   204  VAL204     -0.2867
    191  CB       -17.0320   26.5810   38.8160 C.3   204  VAL204      0.0252
    192  CG1      -18.3310   25.8700   38.4950 C.3   204  VAL204      0.0019
    193  CG2      -16.2840   26.9380   37.5350 C.3   204  VAL204      0.0019
    194  N        -20.5050   24.5950   41.3920 N.3   206  TRP206     -0.1241
    195  CA       -20.9870   23.4010   40.6890 C.3   206  TRP206      0.1605
    196  C        -22.3240   22.9930   41.2260 C.2   206  TRP206      0.2264
    197  O        -22.5480   22.9360   42.4290 O.2   206  TRP206     -0.2867
    198  CB       -19.9530   22.2410   40.8990 C.3   206  TRP206      0.0550
    199  CG       -18.8200   22.3500   39.9380 C.ar  206  TRP206      0.0003
    200  CD1      -17.5940   22.9130   40.1300 C.ar  206  TRP206      0.0946
    201  CD2      -18.8690   21.9400   38.5740 C.ar  206  TRP206      0.0152
    202  NE1      -16.8740   22.8900   38.9640 N.ar  206  TRP206     -0.2442
    203  CE2      -17.6140   22.2950   37.9790 C.ar  206  TRP206      0.0810
    204  CE3      -19.8420   21.3210   37.7800 C.ar  206  TRP206      0.0012
    205  CZ2      -17.3340   22.0440   36.6270 C.ar  206  TRP206      0.0191
    206  CZ3      -19.5350   21.0370   36.4690 C.ar  206  TRP206      0.0001
    207  CH2      -18.3440   21.4110   35.8930 C.ar  206  TRP206      0.0015
    208  N        -11.8200   12.8000   27.1020 N.3   241  ASN241     -0.1240
    209  CA       -11.5790   14.2090   27.3180 C.3   241  ASN241      0.1653
    210  C        -12.0850   14.6840   28.6940 C.2   241  ASN241      0.2266
    211  O        -12.7050   15.7110   28.8070 O.2   241  ASN241     -0.2867
    212  CB       -12.1340   15.0650   26.1630 C.3   241  ASN241      0.1155
    213  CG       -13.5920   14.8670   25.9540 C.2   241  ASN241      0.2627
    214  OD1      -14.2350   14.0630   26.6120 O.2   241  ASN241     -0.2716
    215  ND2      -14.1420   15.6610   25.0310 N.am  241  ASN241     -0.0877
@<TRIPOS>BOND
     1    65    64   ar
     2    27    28    1
     3    66    64   ar
     4    28    29    1
     5    28    31    1
     6    64    63    1
     7    29    30    2
     8    53    52    2
     9    61    60    2
    10    62    63    1
    11    62    59    1
    12    31    32    1
    13    48    47    2
    14    58    59    1
    15    52    51    1
    16    50    51    1
    17    60    59    1
    18    47    46    1
    19    35    36    1
    20    32    33    2
    21    32    34   am
    22    51    54    1
    23    54    55    1
    24    45    46    1
    25    45    37   am
    26    46    49    1
    27    36    37    1
    28    36    39    1
    29    37    38    2
    30    57    55   am
    31    55    56    2
    32    44    42   ar
    33    44    43   ar
    34    42    40   ar
    35    40    39    1
    36    40    41   ar
    37    43    41   ar
    38   102   100   ar
    39   102   104   ar
    40   100    99   ar
    41   215   213   am
    42   104   103   ar
    43     4     3    2
    44    70    69    2
    45    79    76    1
    46    79    80    1
    47    99    98    1
    48    99   101   ar
    49   213   212    1
    50   213   214    2
    51    88    85    1
    52    88    89    1
    53    85    84    1
    54    85    86    1
    55    76    77    1
    56    76    75    1
    57   212   209    1
    58    98    95    1
    59     3     2    1
    60     1     2    1
    61   103   101   ar
    62    83    81   am
    63    94    86   am
    64    94    95    1
    65    69    75   am
    66    69    68    1
    67    15    16    1
    68    97    96    2
    69    80    81    1
    70    72    74    1
    71    72    71    1
    72    81    82    2
    73    86    87    2
    74    77    78    2
    75    22    24   ar
    76    22    20   ar
    77     2     5    1
    78    95    96    1
    79   208   209    1
    80    96   105   am
    81    12    10   ar
    82    12    14   ar
    83   209   210    1
    84    24    25   ar
    85     9    10   ar
    86     9     7   ar
    87    19    16    1
    88    19    20    1
    89    89    90   ar
    90    89    91   ar
    91    68    71    1
    92    68    67    1
    93    10     8   ar
    94    14    13   ar
    95    17    16    1
    96    17    18    1
    97     7     6   ar
    98    20    21   ar
    99     8     6   ar
   100     8    11   ar
   101    13    11   ar
   102     6     5    1
   103    71    73    1
   104    90    92   ar
   105   105   106    1
   106   107   106    1
   107   107   108    2
   108    91    93   ar
   109   106   109    1
   110    25    26    1
   111    25    23   ar
   112   210   211    2
   113    21    23   ar
   114    92    93   ar
   115   118   117    2
   116   139   141   ar
   117   139   137   ar
   118   109   110    1
   119   136   137    1
   120   136   133    1
   121   111   110   ar
   122   111   113   ar
   123   141   142   ar
   124   110   112   ar
   125   137   138   ar
   126   179   177    1
   127   113   114   ar
   128   183   182    2
   129   112   114   ar
   130   177   178    1
   131   177   174    1
   132   132   133    1
   133   128   127    2
   134   142   140   ar
   135   115   116    1
   136   117   116    1
   137   138   140   ar
   138   131   129    1
   139   129   130    1
   140   129   126    1
   141   184   185    1
   142   184   181    1
   143   133   134    1
   144   125   126    1
   145   186   185    1
   146   186   180    1
   147   182   181    1
   148   134   135    2
   149   116   119    1
   150   119   120    1
   151   126   127    1
   152   180   181    1
   153   180   175   am
   154   174   175    1
   155   174   173    1
   156   175   176    2
   157   121   120   ar
   158   121   123   ar
   159   120   122   ar
   160   173   168   am
   161   123   124   ar
   162   122   124   ar
   163   171   170    1
   164   169   168    2
   165   164   163    1
   166   168   167    1
   167   165   163    1
   168   150   148    1
   169   156   155    1
   170   149   148    1
   171   163   162    1
   172   162   159    1
   173   170   167    1
   174   170   172    1
   175   167   166    1
   176   166   160   am
   177   157   155    1
   178   148   147    1
   179   155   152    1
   180   159   160    1
   181   159   158    1
   182   160   161    2
   183   152   153    1
   184   152   151    1
   185   207   206   ar
   186   207   205   ar
   187   147   144    1
   188   153   154    2
   189   206   204   ar
   190   205   203   ar
   191   144   145    1
   192   144   143    1
   193   193   191    1
   194   204   201   ar
   195   145   146    2
   196   203   201   ar
   197   203   202   ar
   198   192   191    1
   199   201   199   ar
   200   191   188    1
   201   202   200   ar
   202   188   187    1
   203   188   189    1
   204   199   200   ar
   205   199   198    1
   206   195   198    1
   207   195   196    1
   208   195   194    1
   209   189   190    2
   210   196   197    2
