@<TRIPOS>MOLECULE
tmp/5dp3A00.pdb
 109 109 0 0 0
SMALL
GASTEIGER

@<TRIPOS>ATOM
      1  N          9.7530    3.4180  -12.9760 N.3    25  HIS25      -0.1226
      2  CA         9.6890    4.6250  -13.7650 C.3    25  HIS25       0.1752
      3  C          9.7570    5.8600  -12.8970 C.2    25  HIS25       0.2596
      4  O          9.0340    5.9460  -11.9310 O.2    25  HIS25      -0.2718
      5  CB         8.3490    4.6560  -14.5070 C.3    25  HIS25       0.0759
      6  CG         8.2450    3.6260  -15.5960 C.ar   25  HIS25       0.0818
      7  ND1        7.9990    2.2870  -15.3390 N.ar   25  HIS25      -0.2268
      8  CD2        8.4010    3.7340  -16.9350 C.ar   25  HIS25       0.1154
      9  CE1        7.9640    1.6310  -16.4890 C.ar   25  HIS25       0.1986
     10  NE2        8.2230    2.4820  -17.4660 N.ar   25  HIS25      -0.2212
     11  N         10.5290    6.8540  -13.3110 N.am   26  PHE26      -0.1976
     12  CA        10.6550    8.1280  -12.5900 C.3    26  PHE26       0.1639
     13  C         10.7030    9.2840  -13.5620 C.2    26  PHE26       0.2290
     14  O         10.8800    9.0840  -14.7560 O.2    26  PHE26      -0.2864
     15  CB        11.9070    8.1080  -11.6340 C.3    26  PHE26       0.0560
     16  CG        11.8600    7.0050  -10.6480 C.ar   26  PHE26      -0.0200
     17  CD1       11.2040    7.1820   -9.4050 C.ar   26  PHE26      -0.0042
     18  CD2       12.3620    5.7510  -10.9610 C.ar   26  PHE26      -0.0042
     19  CE1       11.0660    6.1200   -8.5270 C.ar   26  PHE26      -0.0003
     20  CE2       12.2560    4.7110  -10.0800 C.ar   26  PHE26      -0.0003
     21  CZ        11.6000    4.8910   -8.8590 C.ar   26  PHE26      -0.0000
     22  N         15.3070    7.2900   -3.9240 N.3    41  HIS41      -0.1241
     23  CA        14.7520    5.9160   -3.9720 C.3    41  HIS41       0.1621
     24  C         14.5940    5.3550   -5.4170 C.2    41  HIS41       0.2264
     25  O         14.2580    4.1800   -5.6060 O.2    41  HIS41      -0.2867
     26  CB        13.4510    5.7880   -3.1680 C.3    41  HIS41       0.0745
     27  CG        12.3540    6.6570   -3.6590 C.ar   41  HIS41       0.0817
     28  ND1       12.1440    7.9360   -3.1700 N.ar   41  HIS41      -0.2268
     29  CD2       11.4030    6.4410   -4.5970 C.ar   41  HIS41       0.1154
     30  CE1       11.1000    8.4680   -3.7890 C.ar   41  HIS41       0.1986
     31  NE2       10.6280    7.5830   -4.6570 N.ar   41  HIS41      -0.2212
     32  N         -1.2530   12.7500   -3.9970 N.3   143  THR143     -0.1203
     33  CA        -0.3920   12.3280   -5.0600 C.3   143  THR143      0.1994
     34  C         -0.4360   10.8150   -5.1100 C.2   143  THR143      0.2618
     35  O         -1.0040   10.2130   -4.2200 O.2   143  THR143     -0.2717
     36  CB         1.0220   12.9580   -4.9840 C.3   143  THR143      0.1784
     37  OG1        1.6420   12.7110   -3.7320 O.3   143  THR143     -0.2211
     38  CG2        0.9050   14.4870   -5.2200 C.3   143  THR143      0.0376
     39  N          0.0950   10.2250   -6.1810 N.am  144  LYS144     -0.1965
     40  CA         0.1010    8.7790   -6.3340 C.3   144  LYS144      0.1728
     41  C          1.4630    8.2130   -6.7550 C.2   144  LYS144      0.2616
     42  O          2.3860    8.9520   -7.1330 O.2   144  LYS144     -0.2715
     43  CB        -0.9900    8.3650   -7.3140 C.3   144  LYS144      0.0311
     44  CG        -0.8490    8.9210   -8.7200 C.3   144  LYS144      0.0038
     45  CD        -2.1850    9.0900   -9.4340 C.3   144  LYS144      0.0206
     46  CE        -2.9660    7.7860   -9.5630 C.3   144  LYS144      0.1093
     47  NZ        -2.2960    6.8030  -10.4670 N.3   144  LYS144     -0.1314
     48  N          1.5770    6.8910   -6.6170 N.am  145  ALA145     -0.1963
     49  CA         2.7010    6.1540   -7.1020 C.3   145  ALA145      0.1728
     50  C          2.9810    6.5280   -8.5770 C.2   145  ALA145      0.2617
     51  O          2.0710    6.8940   -9.3180 O.2   145  ALA145     -0.2715
     52  CB         2.4650    4.6380   -6.9550 C.3   145  ALA145      0.0334
     53  N          4.2510    6.4510   -8.9590 N.am  146  GLY146     -0.1940
     54  CA         4.6590    6.8130  -10.2750 C.3   146  GLY146      0.2014
     55  C          4.9260    8.3200  -10.4550 C.2   146  GLY146      0.2639
     56  O          5.2910    8.6980  -11.5380 O.2   146  GLY146     -0.2714
     57  N          4.6920    9.1870   -9.4520 N.am  147  GLN147     -0.1963
     58  CA         4.9430   10.6290   -9.7130 C.3   147  GLN147      0.1733
     59  C          6.2220   11.1340   -9.0840 C.2   147  GLN147      0.2616
     60  O          6.4760   12.3480   -9.0840 O.2   147  GLN147     -0.2715
     61  CB         3.7440   11.4670   -9.2720 C.3   147  GLN147      0.0408
     62  CG         2.4660   10.9400   -9.9090 C.3   147  GLN147      0.0908
     63  CD         1.2140   11.6900   -9.5300 C.2   147  GLN147      0.2608
     64  OE1        0.9890   11.9940   -8.3600 O.2   147  GLN147     -0.2717
     65  NE2        0.3590   11.9650  -10.5410 N.am  147  GLN147     -0.0878
     66  N          7.0300   10.2210   -8.5710 N.am  148  CYS148     -0.1968
     67  CA         8.2870   10.5650   -7.8850 C.3   148  CYS148      0.1712
     68  C          9.2570   11.0480   -8.9460 C.2   148  CYS148      0.2296
     69  O          9.2770   10.4960  -10.0450 O.2   148  CYS148     -0.2864
     70  CB         8.8950    9.3670   -7.1420 C.3   148  CYS148      0.0983
     71  SG         7.9400    8.8330   -5.7440 S.3   148  CYS148     -0.0798
     72  N          9.3390   15.8180   -6.3980 N.3   162  HIS162     -0.1226
     73  CA         8.4220   14.9410   -5.6970 C.3   162  HIS162      0.1752
     74  C          9.0770   13.6530   -5.1560 C.2   162  HIS162      0.2596
     75  O          9.7530   12.9330   -5.8870 O.2   162  HIS162     -0.2718
     76  CB         7.2410   14.6080   -6.6090 C.3   162  HIS162      0.0759
     77  CG         6.1190   13.9320   -5.8970 C.ar  162  HIS162      0.0818
     78  ND1        5.2560   14.6180   -5.0780 N.ar  162  HIS162     -0.2268
     79  CD2        5.7490   12.6280   -5.8350 C.ar  162  HIS162      0.1154
     80  CE1        4.3880   13.7660   -4.5490 C.ar  162  HIS162      0.1986
     81  NE2        4.6660   12.5510   -4.9980 N.ar  162  HIS162     -0.2212
     82  N          8.8090   13.3570   -3.8570 N.am  163  ILE163     -0.1966
     83  CA         9.5640   12.3820   -3.0730 C.3   163  ILE163      0.1727
     84  C          8.6390   11.3010   -2.4460 C.2   163  ILE163      0.2617
     85  O          9.0230   10.1660   -2.2080 O.2   163  ILE163     -0.2715
     86  CB        10.4920   13.2160   -2.1610 C.3   163  ILE163      0.0290
     87  CG1       11.8930   13.3810   -2.8140 C.3   163  ILE163      0.0022
     88  CG2       10.5580   12.8040   -0.6840 C.3   163  ILE163      0.0023
     89  CD1       12.5830   12.1020   -3.0990 C.3   163  ILE163      0.0001
     90  N          7.3850   11.6270   -2.2740 N.am  164  GLY164     -0.1940
     91  CA         6.4330   10.6530   -1.7760 C.3   164  GLY164      0.2014
     92  C          5.1170   11.2940   -1.4540 C.2   164  GLY164      0.2639
     93  O          4.8420   12.4500   -1.8260 O.2   164  GLY164     -0.2714
     94  N          4.3230   10.5630   -0.6850 N.am  165  GLY165     -0.1939
     95  CA         2.9440   10.9860   -0.3670 C.3   165  GLY165      0.2014
     96  C          2.2580    9.9500    0.4780 C.2   165  GLY165      0.2639
     97  O          2.8080    8.8800    0.7080 O.2   165  GLY165     -0.2714
     98  N          1.0720   10.2900    0.9720 N.am  166  ASN166     -0.1958
     99  CA         0.3600    9.4800    2.0170 C.3   166  ASN166      0.1819
    100  C         -1.1020    9.2300    1.6830 C.2   166  ASN166      0.2621
    101  O         -1.8600    8.7130    2.5050 O.2   166  ASN166     -0.2715
    102  CB         0.4760   10.1560    3.4200 C.3   166  ASN166      0.1195
    103  CG        -0.1140   11.5760    3.4640 C.2   166  ASN166      0.2630
    104  OD1       -1.0870   11.9140    2.7550 O.2   166  ASN166     -0.2716
    105  ND2        0.4400   12.4050    4.3430 N.am  166  ASN166     -0.0877
    106  N         -1.5060    9.6020    0.4870 N.am  167  GLY167     -0.1954
    107  CA        -2.8630    9.4110    0.0450 C.3   167  GLY167      0.1869
    108  C         -3.7090   10.6490    0.1230 C.2   167  GLY167      0.2309
    109  O         -4.7330   10.7110   -0.5530 O.2   167  GLY167     -0.2863
@<TRIPOS>BOND
     1    10     8   ar
     2    10     9   ar
     3     8     6   ar
     4     9     7   ar
     5     6     7   ar
     6     6     5    1
     7    14    13    2
     8     5     2    1
     9     2     1    1
    10     2     3    1
    11    13    12    1
    12    11     3   am
    13    11    12    1
    14     3     4    2
    15    12    15    1
    16    15    16    1
    17    56    55    2
    18    18    16   ar
    19    18    20   ar
    20    16    17   ar
    21    65    63   am
    22    47    46    1
    23    55    54    1
    24    55    57   am
    25    54    53    1
    26    20    21   ar
    27    69    68    2
    28    62    63    1
    29    62    61    1
    30    58    57    1
    31    58    61    1
    32    58    59    1
    33    46    45    1
    34    63    64    2
    35    45    44    1
    36    17    19   ar
    37    51    50    2
    38    60    59    2
    39    59    66   am
    40    53    50   am
    41    68    67    1
    42    21    19   ar
    43    44    43    1
    44    50    49    1
    45    66    67    1
    46    67    70    1
    47    43    40    1
    48    70    71    1
    49    42    41    2
    50    49    52    1
    51    49    48    1
    52    41    48   am
    53    41    40    1
    54    76    77    1
    55    76    73    1
    56    72    73    1
    57    40    39    1
    58    39    34   am
    59    77    79   ar
    60    77    78   ar
    61    75    74    2
    62    79    81   ar
    63    73    74    1
    64    25    24    2
    65    24    23    1
    66    38    36    1
    67    74    82   am
    68    34    33    1
    69    34    35    2
    70    78    80   ar
    71    33    36    1
    72    33    32    1
    73    81    80   ar
    74    36    37    1
    75    31    29   ar
    76    31    30   ar
    77    29    27   ar
    78    23    22    1
    79    23    26    1
    80    82    83    1
    81    30    28   ar
    82    27    28   ar
    83    27    26    1
    84    89    87    1
    85    83    84    1
    86    83    86    1
    87    87    86    1
    88    84    90   am
    89    84    85    2
    90    90    91    1
    91    86    88    1
    92    93    92    2
    93    91    92    1
    94    92    94   am
    95    94    95    1
    96   109   108    2
    97    95    96    1
    98   107   108    1
    99   107   106    1
   100    96    97    2
   101    96    98   am
   102   106   100   am
   103    98    99    1
   104   100    99    1
   105   100   101    2
   106    99   102    1
   107   104   103    2
   108   102   103    1
   109   103   105   am
