@<TRIPOS>MOLECULE
tmp/5dp4C00.pdb
 144 138 0 0 0
SMALL
GASTEIGER

@<TRIPOS>ATOM
      1  N         80.9780    9.8500   96.4290 N.3    23  GLN23      -0.1245
      2  CA        82.0400    8.8970   96.1680 C.3    23  GLN23       0.1566
      3  C         83.3830    9.5230   95.8020 C.2    23  GLN23       0.2260
      4  O         84.3770    8.8330   95.7790 O.2    23  GLN23      -0.2867
      5  CB        81.6160    7.9050   95.0540 C.3    23  GLN23       0.0367
      6  CG        80.4370    7.0030   95.4380 C.3    23  GLN23       0.0905
      7  CD        80.7050    6.2460   96.7520 C.2    23  GLN23       0.2608
      8  OE1       80.0960    6.5290   97.7930 O.2    23  GLN23      -0.2717
      9  NE2       81.6420    5.3370   96.7160 N.am   23  GLN23      -0.0878
     10  N         85.7040   12.4690   93.2280 N.3    25  HIS25      -0.1226
     11  CA        85.8260   13.3500   92.0690 C.3    25  HIS25       0.1752
     12  C         85.7300   12.5830   90.7470 C.2    25  HIS25       0.2596
     13  O         86.3950   11.5290   90.5410 O.2    25  HIS25      -0.2718
     14  CB        87.1320   14.1040   92.1450 C.3    25  HIS25       0.0759
     15  CG        87.1070   15.2140   93.1320 C.ar   25  HIS25       0.0818
     16  ND1       87.3890   15.0440   94.4820 N.ar   25  HIS25      -0.2268
     17  CD2       86.8690   16.5330   92.9590 C.ar   25  HIS25       0.1154
     18  CE1       87.2890   16.2110   95.0950 C.ar   25  HIS25       0.1986
     19  NE2       86.9830   17.1330   94.1880 N.ar   25  HIS25      -0.2212
     20  N         84.8920   13.0930   89.8360 N.am   26  PHE26      -0.1976
     21  CA        84.7050   12.4290   88.5340 C.3    26  PHE26       0.1639
     22  C         84.6610   13.4350   87.3820 C.2    26  PHE26       0.2290
     23  O         84.4670   14.6550   87.5970 O.2    26  PHE26      -0.2864
     24  CB        83.4180   11.6130   88.5830 C.3    26  PHE26       0.0560
     25  CG        83.4570   10.5010   89.5810 C.ar   26  PHE26      -0.0200
     26  CD1       83.0530   10.7220   90.8980 C.ar   26  PHE26      -0.0042
     27  CD2       83.9030    9.2370   89.2110 C.ar   26  PHE26      -0.0042
     28  CE1       83.0950    9.7000   91.8440 C.ar   26  PHE26      -0.0003
     29  CE2       83.9540    8.2180   90.1570 C.ar   26  PHE26      -0.0003
     30  CZ        83.5430    8.4540   91.4850 C.ar   26  PHE26      -0.0000
     31  N         78.7940    4.3640   86.7140 N.3    40  ARG40      -0.1231
     32  CA        77.8260    3.9210   87.7110 C.3    40  ARG40       0.1694
     33  C         78.3660    3.9950   89.1560 C.2    40  ARG40       0.2592
     34  O         77.6060    4.4040   90.0630 O.2    40  ARG40      -0.2718
     35  CB        77.3140    2.5350   87.3850 C.3    40  ARG40       0.0321
     36  CG        76.1310    2.0960   88.2290 C.3    40  ARG40       0.0489
     37  CD        76.0370    0.5720   88.3070 C.3    40  ARG40       0.2205
     38  NE        77.3640    0.0730   88.6590 N.pl3  40  ARG40      -0.0865
     39  CZ        77.8710   -0.0070   89.8890 C.cat  40  ARG40       0.5346
     40  NH1       77.1420    0.3600   90.9370 N.pl3  40  ARG40       0.1354
     41  NH2       79.1200   -0.4820   90.0680 N.pl3  40  ARG40       0.1354
     42  N         79.6430    3.6670   89.3860 N.am   41  HIS41      -0.1976
     43  CA        80.1570    3.6350   90.7440 C.3    41  HIS41       0.1656
     44  C         80.2890    5.0300   91.3690 C.2    41  HIS41       0.2291
     45  O         80.5110    5.1300   92.5660 O.2    41  HIS41      -0.2864
     46  CB        81.5240    2.9140   90.8160 C.3    41  HIS41       0.0771
     47  CG        82.5790    3.5820   89.9950 C.ar   41  HIS41       0.0820
     48  ND1       82.8990    3.1700   88.7170 N.ar   41  HIS41      -0.2267
     49  CD2       83.3820    4.6470   90.2650 C.ar   41  HIS41       0.1154
     50  CE1       83.8730    3.9360   88.2460 C.ar   41  HIS41       0.1986
     51  NE2       84.1590    4.8620   89.1530 N.ar   41  HIS41      -0.2212
     52  N         77.9940   -0.1900   83.7020 N.3    72  GLU72      -0.1245
     53  CA        78.7980    0.7730   84.4230 C.3    72  GLU72       0.1567
     54  C         78.5850    2.2400   83.9960 C.2    72  GLU72       0.2260
     55  O         79.4800    3.0640   84.1820 O.2    72  GLU72      -0.2867
     56  CB        80.2890    0.4060   84.3160 C.3    72  GLU72       0.0388
     57  CG        81.1300    0.9600   85.4660 C.3    72  GLU72       0.1160
     58  CD        80.5470    0.7290   86.8780 C.2    72  GLU72       0.3649
     59  OE1       79.8760   -0.2970   87.0880 O.co2  72  GLU72      -0.2457
     60  OE2       80.8000    1.5590   87.7970 O.co2  72  GLU72      -0.2457
     61  N         84.5620   -5.9160   87.5370 N.3   128  LEU128     -0.1231
     62  CA        85.0180   -4.6410   88.0530 C.3   128  LEU128      0.1693
     63  C         84.7560   -4.4870   89.5680 C.2   128  LEU128      0.2592
     64  O         83.6530   -4.0960   89.9710 O.2   128  LEU128     -0.2718
     65  CB        84.2760   -3.5960   87.2790 C.3   128  LEU128      0.0284
     66  CG        84.8160   -2.1970   87.3320 C.3   128  LEU128      0.0019
     67  CD1       85.9680   -2.0390   86.3600 C.3   128  LEU128      0.0001
     68  CD2       83.6570   -1.2720   86.9720 C.3   128  LEU128      0.0001
     69  N         85.7490   -4.7940   90.4080 N.am  129  SER129     -0.1952
     70  CA        85.5860   -4.7670   91.8880 C.3   129  SER129      0.1924
     71  C         84.3820   -5.5700   92.2910 C.2   129  SER129      0.2314
     72  O         83.4650   -5.0750   92.9690 O.2   129  SER129     -0.2863
     73  CB        85.4070   -3.3620   92.4270 C.3   129  SER129      0.2116
     74  OG        86.4550   -2.5750   91.9310 O.3   129  SER129     -0.2180
     75  N         82.0120   -6.5880   90.5030 N.3   131  LYS131     -0.1245
     76  CA        80.8110   -6.3260   89.7420 C.3   131  LYS131      0.1561
     77  C         80.9960   -6.7460   88.2710 C.2   131  LYS131      0.2260
     78  O         81.7980   -6.1770   87.5490 O.2   131  LYS131     -0.2867
     79  CB        80.4940   -4.8450   89.8290 C.3   131  LYS131      0.0271
     80  CG        79.2330   -4.4220   89.0950 C.3   131  LYS131      0.0035
     81  CD        77.9910   -4.7400   89.8930 C.3   131  LYS131      0.0206
     82  CE        77.1200   -3.4930   89.9040 C.3   131  LYS131      0.1093
     83  NZ        75.9470   -3.6940   90.7880 N.3   131  LYS131     -0.1314
     84  N         96.1580    3.8950   83.6650 N.3   143  THR143     -0.1203
     85  CA        95.2360    4.8380   84.2180 C.3   143  THR143      0.1994
     86  C         95.1860    4.6350   85.7350 C.2   143  THR143      0.2618
     87  O         95.5570    3.5810   86.2310 O.2   143  THR143     -0.2717
     88  CB        93.8500    4.6300   83.6330 C.3   143  THR143      0.1784
     89  OG1       93.4430    3.2750   83.8670 O.3   143  THR143     -0.2211
     90  CG2       93.8520    4.9610   82.1850 C.3   143  THR143      0.0376
     91  N         94.7190    5.6480   86.4500 N.am  144  LYS144     -0.1965
     92  CA        94.7840    5.6210   87.9020 C.3   144  LYS144      0.1728
     93  C         93.4910    6.1970   88.4940 C.2   144  LYS144      0.2616
     94  O         92.6670    6.7380   87.7850 O.2   144  LYS144     -0.2715
     95  CB        96.0070    6.4360   88.3910 C.3   144  LYS144      0.0311
     96  CG        95.8770    7.9430   88.1840 C.3   144  LYS144      0.0038
     97  CD        97.0500    8.5510   87.4060 C.3   144  LYS144      0.0206
     98  CE        98.2230    8.9680   88.2520 C.3   144  LYS144      0.1093
     99  NZ        97.7860    9.8920   89.3290 N.3   144  LYS144     -0.1314
    100  N         93.3930    6.1210   89.8120 N.am  145  ALA145     -0.1963
    101  CA        92.3020    6.7010   90.5530 C.3   145  ALA145      0.1728
    102  C         92.1910    8.2110   90.2530 C.2   145  ALA145      0.2616
    103  O         93.1750    8.8910   89.9320 O.2   145  ALA145     -0.2715
    104  CB        92.4960    6.4660   92.0420 C.3   145  ALA145      0.0334
    105  N         90.9460    8.6920   90.2640 N.am  146  GLY146     -0.1955
    106  CA        90.6580   10.0300   89.9380 C.3   146  GLY146      0.1869
    107  C         90.3430   10.2150   88.4640 C.2   146  GLY146      0.2309
    108  O         89.8980   11.2950   88.0700 O.2   146  GLY146     -0.2863
    109  N         88.3050    8.1790   86.5800 N.3   148  CYS148     -0.1235
    110  CA        86.9910    7.6260   86.1510 C.3   148  CYS148      0.1677
    111  C         86.0210    8.6900   85.6540 C.2   148  CYS148      0.2270
    112  O         85.9050    9.7910   86.2360 O.2   148  CYS148     -0.2867
    113  CB        86.3150    6.7940   87.2450 C.3   148  CYS148      0.0956
    114  SG        87.1340    5.2430   87.4120 S.3   148  CYS148     -0.0801
    115  N         85.8620    6.2270   80.9260 N.3   162  HIS162     -0.1226
    116  CA        86.7940    5.4740   81.7610 C.3   162  HIS162      0.1752
    117  C         86.1840    4.9870   83.0680 C.2   162  HIS162      0.2596
    118  O         85.5450    5.7550   83.7710 O.2   162  HIS162     -0.2718
    119  CB        88.0830    6.2570   82.0320 C.3   162  HIS162      0.0759
    120  CG        89.1130    5.4270   82.7110 C.ar  162  HIS162      0.0818
    121  ND1       89.8480    4.4800   82.0300 N.ar  162  HIS162     -0.2268
    122  CD2       89.4610    5.3120   84.0150 C.ar  162  HIS162      0.1154
    123  CE1       90.6330    3.8490   82.8760 C.ar  162  HIS162      0.1986
    124  NE2       90.4330    4.3490   84.0890 N.ar  162  HIS162     -0.2212
    125  N         86.3640    3.6840   83.3690 N.am  163  ILE163     -0.1966
    126  CA        85.7530    3.0610   84.5470 C.3   163  ILE163      0.1727
    127  C         86.6990    2.2660   85.4760 C.2   163  ILE163      0.2617
    128  O         86.3400    1.9260   86.5930 O.2   163  ILE163     -0.2715
    129  CB        84.5580    2.1340   84.1530 C.3   163  ILE163      0.0290
    130  CG1       85.0140    1.0420   83.1760 C.3   163  ILE163      0.0022
    131  CG2       83.4100    3.0060   83.6070 C.3   163  ILE163      0.0023
    132  CD1       84.0490   -0.1120   83.0200 C.3   163  ILE163      0.0001
    133  N         87.8780    1.9150   84.9940 N.am  164  GLY164     -0.1940
    134  CA        88.7680    1.0930   85.8110 C.3   164  GLY164      0.2014
    135  C         90.0650    0.7690   85.1290 C.2   164  GLY164      0.2639
    136  O         90.3160    1.1210   83.9590 O.2   164  GLY164     -0.2714
    137  N         90.9020    0.0580   85.8690 N.am  165  GLY165     -0.1954
    138  CA        92.2630   -0.2730   85.4010 C.3   165  GLY165      0.1869
    139  C         92.9460   -1.1920   86.3920 C.2   165  GLY165      0.2309
    140  O         92.5940   -1.2130   87.5400 O.2   165  GLY165     -0.2863
    141  N         96.4490   -1.2660   86.6940 N.3   167  GLY167     -0.1225
    142  CA        97.7490   -0.7160   86.9900 C.3   167  GLY167      0.1811
    143  C         98.6300   -0.7100   85.7840 C.2   167  GLY167      0.2280
    144  O         99.6000    0.0020   85.7650 O.2   167  GLY167     -0.2866
@<TRIPOS>BOND
     1   115   116    1
     2   116   119    1
     3   116   117    1
     4   121   120   ar
     5   121   123   ar
     6   119   120    1
     7    90    88    1
     8   120   122   ar
     9   123   124   ar
    10   132   130    1
    11   117   125   am
    12   117   118    2
    13   130   129    1
    14   125   126    1
    15   131   129    1
    16    88    89    1
    17    88    85    1
    18    84    85    1
    19    52    53    1
    20   136   135    2
    21    54    55    2
    22    54    53    1
    23   122   124   ar
    24   129   126    1
    25    85    86    1
    26    56    53    1
    27    56    57    1
    28   126   127    1
    29   133   127   am
    30   133   134    1
    31   135   134    1
    32   135   137   am
    33   138   137    1
    34   138   139    1
    35    57    58    1
    36   127   128    2
    37   111   110    1
    38   111   112    2
    39    86    87    2
    40    86    91   am
    41   144   143    2
    42   143   142    1
    43   110   109    1
    44   110   113    1
    45    67    66    1
    46   139   140    2
    47    91    92    1
    48   141   142    1
    49    31    32    1
    50    58    59   ar
    51    58    60   ar
    52    68    66    1
    53   113   114    1
    54    65    66    1
    55    65    62    1
    56    22    23    2
    57    22    21    1
    58    35    32    1
    59    35    36    1
    60    97    96    1
    61    97    98    1
    62    61    62    1
    63    78    77    2
    64    32    33    1
    65    94    93    2
    66    92    95    1
    67    92    93    1
    68    62    63    1
    69   108   107    2
    70    96    95    1
    71    36    37    1
    72    50    48   ar
    73    50    51   ar
    74    98    99    1
    75    77    76    1
    76    37    38    1
    77   107   106    1
    78    93   100   am
    79    21    24    1
    80    21    20    1
    81    24    25    1
    82    38    39    2
    83    48    47   ar
    84    80    79    1
    85    80    81    1
    86    51    49   ar
    87    33    42   am
    88    33    34    2
    89    27    25   ar
    90    27    29   ar
    91    42    43    1
    92    63    64    2
    93    63    69   am
    94    25    26   ar
    95    76    79    1
    96    76    75    1
    97   100   101    1
    98    20    12   am
    99    39    41    1
   100    39    40    1
   101    81    82    1
   102    82    83    1
   103   103   102    2
   104   106   105    1
   105    47    49   ar
   106    47    46    1
   107    29    30   ar
   108   102   105   am
   109   102   101    1
   110    69    70    1
   111    13    12    2
   112   101   104    1
   113    43    46    1
   114    43    44    1
   115    12    11    1
   116    26    28   ar
   117    44    45    2
   118    30    28   ar
   119    70    71    1
   120    70    73    1
   121    74    73    1
   122    11    14    1
   123    11    10    1
   124    14    15    1
   125    71    72    2
   126    17    15   ar
   127    17    19   ar
   128    15    16   ar
   129    19    18   ar
   130    16    18   ar
   131     5     6    1
   132     5     2    1
   133     6     7    1
   134     4     3    2
   135     3     2    1
   136     2     1    1
   137     9     7   am
   138     7     8    2
