@<TRIPOS>MOLECULE
tmp/5dp5A00.pdb
 164 160 0 0 0
SMALL
GASTEIGER

@<TRIPOS>ATOM
      1  N        -14.2470   -0.6440  -10.1680 N.3    23  GLN23      -0.1231
      2  CA       -13.1310   -0.9070   -9.2090 C.3    23  GLN23       0.1698
      3  C        -11.8180   -1.3530   -9.8750 C.2    23  GLN23       0.2593
      4  O        -10.8360   -1.5580   -9.1910 O.2    23  GLN23      -0.2718
      5  CB       -13.5320   -1.9740   -8.1750 C.3    23  GLN23       0.0381
      6  CG       -14.6610   -1.5430   -7.2510 C.3    23  GLN23       0.0905
      7  CD       -14.3890   -0.1870   -6.6280 C.2    23  GLN23       0.2608
      8  OE1      -15.1840    0.7600   -6.7880 O.2    23  GLN23      -0.2717
      9  NE2      -13.2460   -0.0670   -5.9350 N.am   23  GLN23      -0.0878
     10  N        -11.8300   -1.5810  -11.1890 N.am   24  GLY24      -0.1942
     11  CA       -10.6400   -1.9740  -11.9510 C.3    24  GLY24       0.2014
     12  C        -10.7550   -3.2900  -12.7340 C.2    24  GLY24       0.2639
     13  O        -11.8380   -3.7380  -13.0900 O.2    24  GLY24      -0.2714
     14  N         -9.6120   -3.9160  -12.9580 N.am   25  HIS25      -0.1959
     15  CA        -9.4930   -5.1400  -13.7370 C.3    25  HIS25       0.1787
     16  C         -9.5990   -6.4170  -12.8990 C.2    25  HIS25       0.2620
     17  O         -8.9770   -6.5490  -11.8430 O.2    25  HIS25      -0.2715
     18  CB        -8.1630   -5.1280  -14.4960 C.3    25  HIS25       0.0785
     19  CG        -8.1410   -4.1590  -15.6280 C.ar   25  HIS25       0.0821
     20  ND1       -7.8090   -2.8280  -15.4790 N.ar   25  HIS25      -0.2267
     21  CD2       -8.4540   -4.3220  -16.9300 C.ar   25  HIS25       0.1154
     22  CE1       -7.9100   -2.2210  -16.6470 C.ar   25  HIS25       0.1986
     23  NE2       -8.2860   -3.1110  -17.5470 N.ar   25  HIS25      -0.2212
     24  N        -10.3860   -7.3660  -13.3900 N.am   26  PHE26      -0.1974
     25  CA       -10.6520   -8.6490  -12.6840 C.3    26  PHE26       0.1639
     26  C        -10.7450   -9.7730  -13.7120 C.2    26  PHE26       0.2290
     27  O        -10.9690   -9.5460  -14.8950 O.2    26  PHE26      -0.2864
     28  CB       -11.9680   -8.5840  -11.8530 C.3    26  PHE26       0.0560
     29  CG       -11.8980   -7.6000  -10.7420 C.ar   26  PHE26      -0.0200
     30  CD1      -11.3200   -7.9550   -9.4880 C.ar   26  PHE26      -0.0042
     31  CD2      -12.2540   -6.3080  -10.9550 C.ar   26  PHE26      -0.0042
     32  CE1      -11.1580   -7.0070   -8.5040 C.ar   26  PHE26      -0.0003
     33  CE2      -12.1250   -5.3570   -9.9510 C.ar   26  PHE26      -0.0003
     34  CZ       -11.5710   -5.6940   -8.7170 C.ar   26  PHE26      -0.0000
     35  N        -16.2940  -10.3960   -4.5800 N.3    40  ARG40      -0.1231
     36  CA       -17.2600   -9.4060   -4.1730 C.3    40  ARG40       0.1694
     37  C        -16.6830   -7.9780   -4.2490 C.2    40  ARG40       0.2592
     38  O        -17.4170   -7.0560   -4.6510 O.2    40  ARG40      -0.2718
     39  CB       -17.7890   -9.6760   -2.7710 C.3    40  ARG40       0.0321
     40  CG       -18.8910   -8.7410   -2.3400 C.3    40  ARG40       0.0489
     41  CD       -18.9850   -8.6940   -0.8200 C.3    40  ARG40       0.2205
     42  NE       -17.6720   -8.4780   -0.2490 N.pl3  40  ARG40      -0.0865
     43  CZ       -17.0310   -7.3260   -0.2560 C.cat  40  ARG40       0.5346
     44  NH1      -17.5890   -6.2410   -0.7740 N.pl3  40  ARG40       0.1354
     45  NH2      -15.8150   -7.2570    0.2510 N.pl3  40  ARG40       0.1354
     46  N        -15.4110   -7.7860   -3.8930 N.am   41  HIS41      -0.1976
     47  CA       -14.8420   -6.4440   -3.9000 C.3    41  HIS41       0.1656
     48  C        -14.8200   -5.7730   -5.2720 C.2    41  HIS41       0.2291
     49  O        -14.7240   -4.5470   -5.3560 O.2    41  HIS41      -0.2864
     50  CB       -13.4510   -6.4020   -3.2580 C.3    41  HIS41       0.0771
     51  CG       -12.4620   -7.3300   -3.8620 C.ar   41  HIS41       0.0820
     52  ND1      -12.2450   -8.6080   -3.3810 N.ar   41  HIS41      -0.2267
     53  CD2      -11.5860   -7.1570   -4.8820 C.ar   41  HIS41       0.1154
     54  CE1      -11.2990   -9.1930   -4.0940 C.ar   41  HIS41       0.1986
     55  NE2      -10.8900   -8.3350   -5.0170 N.ar   41  HIS41      -0.2212
     56  N        -16.9550  -13.3830    0.0130 N.3    72  GLU72      -0.1245
     57  CA       -16.1580  -12.6710   -0.9700 C.3    72  GLU72       0.1567
     58  C        -16.4040  -13.1260   -2.4070 C.2    72  GLU72       0.2260
     59  O        -15.5200  -13.0280   -3.2820 O.2    72  GLU72      -0.2867
     60  CB       -14.6920  -12.7320   -0.5850 C.3    72  GLU72       0.0388
     61  CG       -13.7670  -11.7800   -1.2950 C.3    72  GLU72       0.1160
     62  CD       -14.1970  -10.3470   -1.1940 C.2    72  GLU72       0.3649
     63  OE1      -14.8460   -9.9600   -0.1900 O.co2  72  GLU72      -0.2457
     64  OE2      -13.9200   -9.6140   -2.1580 O.co2  72  GLU72      -0.2457
     65  N         -8.9030  -11.8730    7.2010 N.3   127  ASN127     -0.1225
     66  CA        -9.3510  -10.5210    7.4220 C.3   127  ASN127      0.1785
     67  C         -8.9510   -9.6490    6.2350 C.2   127  ASN127      0.2597
     68  O         -7.7750   -9.4230    5.9810 O.2   127  ASN127     -0.2718
     69  CB        -8.7770   -9.9900    8.7140 C.3   127  ASN127      0.1169
     70  CG        -8.6460   -8.5100    8.7060 C.2   127  ASN127      0.2627
     71  OD1       -7.5450   -8.0040    8.8950 O.2   127  ASN127     -0.2716
     72  ND2       -9.7640   -7.7910    8.4840 N.am  127  ASN127     -0.0877
     73  N         -9.9460   -9.1770    5.5020 N.am  128  LEU128     -0.1966
     74  CA        -9.7130   -8.5300    4.2230 C.3   128  LEU128      0.1728
     75  C         -9.8360   -7.0310    4.3580 C.2   128  LEU128      0.2616
     76  O        -10.8950   -6.4840    4.1520 O.2   128  LEU128     -0.2715
     77  CB       -10.7650   -9.0060    3.2450 C.3   128  LEU128      0.0311
     78  CG       -10.2410   -9.6610    2.0090 C.3   128  LEU128      0.0022
     79  CD1       -8.9470  -10.4390    2.2310 C.3   128  LEU128      0.0001
     80  CD2      -11.3660  -10.5690    1.5120 C.3   128  LEU128      0.0001
     81  N         -8.7420   -6.3650    4.7170 N.am  129  SER129     -0.1950
     82  CA        -8.7480   -4.9190    4.8730 C.3   129  SER129      0.1924
     83  C         -9.9240   -4.4630    5.7430 C.2   129  SER129      0.2314
     84  O        -10.6380   -3.5350    5.4000 O.2   129  SER129     -0.2863
     85  CB        -8.7670   -4.2720    3.4800 C.3   129  SER129      0.2116
     86  OG        -7.5970   -4.6410    2.7510 O.3   129  SER129     -0.2180
     87  N        -12.5770   -6.5460    6.6270 N.3   131  LYS131     -0.1245
     88  CA       -13.7760   -7.3360    6.3740 C.3   131  LYS131      0.1561
     89  C        -13.4500   -8.7970    6.6750 C.2   131  LYS131      0.2260
     90  O        -12.5770   -9.4030    6.0180 O.2   131  LYS131     -0.2867
     91  CB       -14.2140   -7.1240    4.9430 C.3   131  LYS131      0.0271
     92  CG       -15.1260   -8.1800    4.3670 C.3   131  LYS131      0.0035
     93  CD       -16.5540   -7.7230    4.4140 C.3   131  LYS131      0.0206
     94  CE       -16.8310   -6.5460    3.4860 C.3   131  LYS131      0.1093
     95  NZ       -18.0500   -5.8530    3.9880 N.3   131  LYS131     -0.1314
     96  N          1.2280  -13.4710   -4.4490 N.3   143  THR143     -0.1203
     97  CA         0.3110  -12.9520   -5.4430 C.3   143  THR143      0.1994
     98  C          0.2810  -11.4240   -5.3240 C.2   143  THR143      0.2618
     99  O          0.8280  -10.8720   -4.3310 O.2   143  THR143     -0.2717
    100  CB        -1.0890  -13.5590   -5.2620 C.3   143  THR143      0.1784
    101  OG1       -1.5400  -13.3930   -3.9020 O.3   143  THR143     -0.2211
    102  CG2       -1.0740  -15.0650   -5.6420 C.3   143  THR143      0.0376
    103  N         -0.3140  -10.7510   -6.3300 N.am  144  LYS144     -0.1965
    104  CA        -0.3560   -9.2710   -6.3620 C.3   144  LYS144      0.1728
    105  C         -1.6530   -8.6490   -6.8270 C.2   144  LYS144      0.2616
    106  O         -2.5360   -9.3370   -7.3260 O.2   144  LYS144     -0.2715
    107  CB         0.7970   -8.7440   -7.2210 C.3   144  LYS144      0.0311
    108  CG         0.8160   -9.2220   -8.6410 C.3   144  LYS144      0.0038
    109  CD         2.1380   -8.8190   -9.2960 C.3   144  LYS144      0.0206
    110  CE         2.0140   -7.6790  -10.2830 C.3   144  LYS144      0.1093
    111  NZ         1.9720   -8.2280  -11.6800 N.3   144  LYS144     -0.1314
    112  N         -1.7600   -7.3210   -6.6740 N.am  145  ALA145     -0.1963
    113  CA        -2.8670   -6.5680   -7.2400 C.3   145  ALA145      0.1728
    114  C         -3.0480   -6.9140   -8.7150 C.2   145  ALA145      0.2616
    115  O         -2.0840   -7.1710   -9.4530 O.2   145  ALA145     -0.2715
    116  CB        -2.6840   -5.0490   -7.0640 C.3   145  ALA145      0.0334
    117  N         -4.3140   -6.9600   -9.1250 N.am  146  GLY146     -0.1955
    118  CA        -4.6600   -7.2620  -10.4890 C.3   146  GLY146      0.1869
    119  C         -4.9410   -8.7350  -10.6900 C.2   146  GLY146      0.2309
    120  O         -5.3500   -9.1150  -11.7700 O.2   146  GLY146     -0.2863
    121  N         -7.0110  -10.6900   -8.5930 N.3   148  CYS148     -0.1235
    122  CA        -8.2950  -11.1020   -8.0000 C.3   148  CYS148      0.1677
    123  C         -9.2570  -11.5860   -9.0910 C.2   148  CYS148      0.2270
    124  O         -9.2850  -11.0060  -10.1740 O.2   148  CYS148     -0.2867
    125  CB        -8.9130   -9.9850   -7.1820 C.3   148  CYS148      0.0956
    126  SG        -7.9860   -9.7840   -5.6650 S.3   148  CYS148     -0.0801
    127  N         -9.3990  -16.1720   -6.6320 N.3   162  HIS162     -0.1226
    128  CA        -8.4080  -15.4130   -5.9400 C.3   162  HIS162      0.1752
    129  C         -8.9690  -14.1380   -5.4360 C.2   162  HIS162      0.2596
    130  O         -9.6130  -13.4410   -6.1800 O.2   162  HIS162     -0.2718
    131  CB        -7.1710  -15.1470   -6.8250 C.3   162  HIS162      0.0759
    132  CG        -6.0720  -14.4800   -6.0720 C.ar  162  HIS162      0.0818
    133  ND1       -5.2750  -15.1700   -5.1860 N.ar  162  HIS162     -0.2268
    134  CD2       -5.7120  -13.1760   -5.9660 C.ar  162  HIS162      0.1154
    135  CE1       -4.4350  -14.3310   -4.5980 C.ar  162  HIS162      0.1986
    136  NE2       -4.6780  -13.1140   -5.0480 N.ar  162  HIS162     -0.2212
    137  N         -8.7550  -13.8640   -4.1340 N.am  163  ILE163     -0.1966
    138  CA        -9.3410  -12.7170   -3.4470 C.3   163  ILE163      0.1727
    139  C         -8.3920  -11.8000   -2.6660 C.2   163  ILE163      0.2617
    140  O         -8.8060  -10.7070   -2.2740 O.2   163  ILE163     -0.2715
    141  CB       -10.4660  -13.1050   -2.4370 C.3   163  ILE163      0.0290
    142  CG1       -9.9400  -14.0250   -1.3390 C.3   163  ILE163      0.0022
    143  CG2      -11.7060  -13.6730   -3.1690 C.3   163  ILE163      0.0023
    144  CD1      -10.9110  -14.1890   -0.1820 C.3   163  ILE163      0.0001
    145  N         -7.1580  -12.2270   -2.4000 N.am  164  GLY164     -0.1940
    146  CA        -6.2990  -11.3960   -1.5700 C.3   164  GLY164      0.2014
    147  C         -4.9370  -11.9560   -1.3220 C.2   164  GLY164      0.2639
    148  O         -4.6510  -13.1000   -1.6770 O.2   164  GLY164     -0.2714
    149  N         -4.0940  -11.1390   -0.6960 N.am  165  GLY165     -0.1939
    150  CA        -2.7530  -11.5440   -0.4120 C.3   165  GLY165      0.2014
    151  C         -2.0830  -10.5870    0.5390 C.2   165  GLY165      0.2639
    152  O         -2.5730   -9.4870    0.7810 O.2   165  GLY165     -0.2714
    153  N         -0.9500  -11.0140    1.0780 N.am  166  ASN166     -0.1958
    154  CA        -0.2400  -10.2110    2.0660 C.3   166  ASN166      0.1819
    155  C          1.1970   -9.9690    1.7280 C.2   166  ASN166      0.2621
    156  O          1.9560   -9.5180    2.5780 O.2   166  ASN166     -0.2715
    157  CB        -0.3370  -10.8950    3.4330 C.3   166  ASN166      0.1195
    158  CG         0.3800  -12.2380    3.4680 C.2   166  ASN166      0.2630
    159  OD1        1.2260  -12.5700    2.6090 O.2   166  ASN166     -0.2716
    160  ND2        0.0230  -13.0220    4.4260 N.am  166  ASN166     -0.0877
    161  N          1.5830  -10.2440    0.4950 N.am  167  GLY167     -0.1954
    162  CA         2.9020   -9.9650    0.0190 C.3   167  GLY167      0.1869
    163  C          3.7560  -11.2110   -0.0300 C.2   167  GLY167      0.2309
    164  O          4.7940  -11.2090   -0.6630 O.2   167  GLY167     -0.2863
@<TRIPOS>BOND
     1    23    21   ar
     2    23    22   ar
     3    21    19   ar
     4    22    20   ar
     5    19    20   ar
     6    19    18    1
     7    27    26    2
     8    18    15    1
     9    15    14    1
    10    15    16    1
    11    26    25    1
    12    24    16   am
    13    24    25    1
    14    13    12    2
    15    14    12   am
    16    16    17    2
    17    12    11    1
    18    25    28    1
    19    11    10    1
    20    28    29    1
    21   120   119    2
    22   111   110    1
    23    10     3   am
    24    31    29   ar
    25    31    33   ar
    26    29    30   ar
    27   119   118    1
    28   118   117    1
    29   110   109    1
    30   124   123    2
    31     1     2    1
    32    33    34   ar
    33     3     2    1
    34     3     4    2
    35    30    32   ar
    36   115   114    2
    37   109   108    1
    38     2     5    1
    39   117   114   am
    40   123   122    1
    41    34    32   ar
    42   114   113    1
    43   108   107    1
    44   121   122    1
    45     5     6    1
    46   122   125    1
    47   106   105    2
    48     6     7    1
    49   113   116    1
    50   113   112    1
    51   107   104    1
    52   125   126    1
    53   105   112   am
    54   105   104    1
    55   131   132    1
    56   131   128    1
    57     8     7    2
    58   127   128    1
    59     7     9   am
    60   104   103    1
    61   103    98   am
    62   130   129    2
    63   132   134   ar
    64   132   133   ar
    65   134   136   ar
    66   128   129    1
    67   102   100    1
    68    97    98    1
    69    97   100    1
    70    97    96    1
    71   129   137   am
    72    49    48    2
    73    98    99    2
    74    48    47    1
    75   100   101    1
    76   133   135   ar
    77   136   135   ar
    78    55    53   ar
    79    55    54   ar
    80    53    51   ar
    81    38    37    2
    82    35    36    1
    83    37    36    1
    84    37    46   am
    85    36    39    1
    86   137   138    1
    87    54    52   ar
    88    47    46    1
    89    47    50    1
    90    51    52   ar
    91    51    50    1
    92   138   139    1
    93   138   141    1
    94    59    58    2
    95   143   141    1
    96    39    40    1
    97   139   145   am
    98   139   140    2
    99   141   142    1
   100    58    57    1
   101   145   146    1
   102    40    41    1
   103    64    62   ar
   104   148   147    2
   105   146   147    1
   106   142   144    1
   107   147   149   am
   108    61    62    1
   109    61    60    1
   110    62    63   ar
   111    57    60    1
   112    57    56    1
   113    41    42    1
   114    44    43    1
   115   149   150    1
   116   164   163    2
   117   150   151    1
   118    43    42    2
   119    43    45    1
   120   163   162    1
   121   162   161    1
   122   161   155   am
   123   151   152    2
   124   151   153   am
   125   153   154    1
   126    80    78    1
   127   155   154    1
   128   155   156    2
   129    78    79    1
   130    78    77    1
   131   154   157    1
   132   159   158    2
   133    86    85    1
   134    77    74    1
   135   157   158    1
   136   158   160   am
   137    85    82    1
   138    94    95    1
   139    94    93    1
   140    76    75    2
   141    74    75    1
   142    74    73    1
   143    75    81   am
   144    92    93    1
   145    92    91    1
   146    81    82    1
   147    82    83    1
   148    91    88    1
   149    84    83    2
   150    73    67   am
   151    68    67    2
   152    90    89    2
   153    67    66    1
   154    88    87    1
   155    88    89    1
   156    65    66    1
   157    66    69    1
   158    72    70   am
   159    70    69    1
   160    70    71    2
