@<TRIPOS>MOLECULE
tmp/5dp6A00.pdb
 183 179 0 0 0
SMALL
GASTEIGER

@<TRIPOS>ATOM
      1  N        -30.0470   22.6320  -11.4300 N.3    20  GLN20      -0.1231
      2  CA       -29.8760   21.2900  -12.0040 C.3    20  GLN20       0.1698
      3  C        -28.7470   20.4570  -11.3700 C.2    20  GLN20       0.2593
      4  O        -28.6880   19.2250  -11.5350 O.2    20  GLN20      -0.2718
      5  CB       -29.5770   21.4080  -13.4870 C.3    20  GLN20       0.0381
      6  CG       -30.6040   22.1620  -14.3090 C.3    20  GLN20       0.0905
      7  CD       -31.9080   21.4370  -14.4140 C.2    20  GLN20       0.2608
      8  OE1      -32.9710   22.0450  -14.3930 O.2    20  GLN20      -0.2717
      9  NE2      -31.8380   20.1260  -14.5680 N.am   20  GLN20      -0.0878
     10  N        -27.8340   21.1290  -10.6740 N.am   21  GLY21      -0.1942
     11  CA       -26.8010   20.4520   -9.9150 C.3    21  GLY21       0.2014
     12  C        -25.4570   21.1210  -10.0250 C.2    21  GLY21       0.2639
     13  O        -25.3840   22.3140  -10.1890 O.2    21  GLY21      -0.2714
     14  N        -24.3970   20.3270   -9.9080 N.am   22  HIS22      -0.1959
     15  CA       -23.0100   20.8050   -9.9460 C.3    22  HIS22       0.1787
     16  C        -22.3550   20.6550  -11.3150 C.2    22  HIS22       0.2620
     17  O        -22.4630   19.6290  -11.9530 O.2    22  HIS22      -0.2715
     18  CB       -22.1670   20.0500   -8.9350 C.3    22  HIS22       0.0785
     19  CG       -22.5270   20.3450   -7.5260 C.ar   22  HIS22       0.0821
     20  ND1      -23.4190   19.5760   -6.8210 N.ar   22  HIS22      -0.2267
     21  CD2      -22.1560   21.3450   -6.7050 C.ar   22  HIS22       0.1154
     22  CE1      -23.5680   20.0750   -5.6110 C.ar   22  HIS22       0.1986
     23  NE2      -22.8160   21.1560   -5.5190 N.ar   22  HIS22      -0.2212
     24  N        -21.6850   21.7130  -11.7500 N.am   23  PHE23      -0.1974
     25  CA       -21.0930   21.8060  -13.0660 C.3    23  PHE23       0.1639
     26  C        -19.7830   22.5440  -12.9800 C.2    23  PHE23       0.2290
     27  O        -19.5010   23.2800  -12.0550 O.2    23  PHE23      -0.2864
     28  CB       -21.9950   22.5830  -14.0230 C.3    23  PHE23       0.0560
     29  CG       -23.2830   21.9040  -14.3250 C.ar   23  PHE23      -0.0200
     30  CD1      -24.3730   22.0590  -13.5280 C.ar   23  PHE23      -0.0042
     31  CD2      -23.3990   21.1310  -15.4060 C.ar   23  PHE23      -0.0042
     32  CE1      -25.5700   21.4280  -13.8020 C.ar   23  PHE23      -0.0003
     33  CE2      -24.5870   20.5070  -15.7070 C.ar   23  PHE23      -0.0003
     34  CZ       -25.6710   20.6540  -14.8970 C.ar   23  PHE23      -0.0000
     35  N        -25.7940   23.4520  -21.9790 N.3    37  ARG37      -0.1231
     36  CA       -27.1180   24.0140  -22.1070 C.3    37  ARG37       0.1694
     37  C        -28.0590   23.3990  -21.0780 C.2    37  ARG37       0.2592
     38  O        -28.9020   24.1160  -20.5690 O.2    37  ARG37      -0.2718
     39  CB       -27.6810   23.8190  -23.5120 C.3    37  ARG37       0.0321
     40  CG       -28.9410   24.6360  -23.7990 C.3    37  ARG37       0.0489
     41  CD       -29.8890   23.8860  -24.7070 C.3    37  ARG37       0.2205
     42  NE       -29.8620   22.4290  -24.4660 N.pl3  37  ARG37      -0.0865
     43  CZ       -30.6840   21.7510  -23.6630 C.cat  37  ARG37       0.5346
     44  NH1      -31.6300   22.3570  -22.9680 N.pl3  37  ARG37       0.1354
     45  NH2      -30.5640   20.4380  -23.5610 N.pl3  37  ARG37       0.1354
     46  N        -27.9000   22.1030  -20.7610 N.am   38  HIS38      -0.1976
     47  CA       -28.7800   21.4110  -19.8010 C.3    38  HIS38       0.1656
     48  C        -28.4890   21.7900  -18.3620 C.2    38  HIS38       0.2291
     49  O        -29.1390   21.2900  -17.4750 O.2    38  HIS38      -0.2864
     50  CB       -28.7060   19.8920  -19.9430 C.3    38  HIS38       0.0771
     51  CG       -27.3460   19.3330  -19.6980 C.ar   38  HIS38       0.0820
     52  ND1      -26.4610   19.0510  -20.7230 N.ar   38  HIS38      -0.2267
     53  CD2      -26.7070   19.0060  -18.5520 C.ar   38  HIS38       0.1154
     54  CE1      -25.3380   18.5650  -20.2170 C.ar   38  HIS38       0.1986
     55  NE2      -25.4620   18.5250  -18.9020 N.ar   38  HIS38      -0.2212
     56  N        -25.7680   22.3820  -27.5110 N.3    69  GLU69      -0.1245
     57  CA       -25.5420   21.9670  -26.1470 C.3    69  GLU69       0.1567
     58  C        -24.6170   22.9300  -25.3820 C.2    69  GLU69       0.2260
     59  O        -23.8990   22.5680  -24.4600 O.2    69  GLU69      -0.2867
     60  CB       -25.0030   20.5360  -26.1320 C.3    69  GLU69       0.0388
     61  CG       -25.2140   19.8500  -24.8110 C.3    69  GLU69       0.1160
     62  CD       -26.6330   20.0610  -24.3060 C.2    69  GLU69       0.3649
     63  OE1      -27.5460   20.3670  -25.1250 O.co2  69  GLU69      -0.2457
     64  OE2      -26.8430   19.8980  -23.0800 O.co2  69  GLU69      -0.2457
     65  N        -25.4950   13.5830  -32.4380 N.3   123  LEU123     -0.1231
     66  CA       -25.6480   12.7060  -31.2920 C.3   123  LEU123      0.1693
     67  C        -26.9720   12.9160  -30.6200 C.2   123  LEU123      0.2592
     68  O        -27.4020   14.0430  -30.4600 O.2   123  LEU123     -0.2718
     69  CB       -24.5520   12.9760  -30.2960 C.3   123  LEU123      0.0284
     70  CG       -24.6680   12.2630  -28.9470 C.3   123  LEU123      0.0019
     71  CD1      -24.0060   10.8960  -28.9640 C.3   123  LEU123      0.0001
     72  CD2      -23.9930   13.1330  -27.9140 C.3   123  LEU123      0.0001
     73  N        -27.6230   11.8170  -30.2410 N.am  124  ASN124     -0.1960
     74  CA       -28.8990   11.8790  -29.5260 C.3   124  ASN124      0.1819
     75  C        -28.6470   11.9400  -28.0360 C.2   124  ASN124      0.2621
     76  O        -28.4080   10.9300  -27.3850 O.2   124  ASN124     -0.2715
     77  CB       -29.8050   10.6870  -29.8540 C.3   124  ASN124      0.1195
     78  CG       -31.1280   10.6850  -29.0660 C.2   124  ASN124      0.2630
     79  OD1      -31.8690    9.6820  -29.0800 O.2   124  ASN124     -0.2716
     80  ND2      -31.4640   11.8060  -28.4190 N.am  124  ASN124     -0.0877
     81  N        -28.7400   13.1420  -27.5040 N.am  125  LEU125     -0.1963
     82  CA       -28.4320   13.3580  -26.1330 C.3   125  LEU125      0.1728
     83  C        -29.7320   13.3990  -25.3610 C.2   125  LEU125      0.2616
     84  O        -30.3800   14.4380  -25.2350 O.2   125  LEU125     -0.2715
     85  CB       -27.6640   14.6400  -26.0350 C.3   125  LEU125      0.0311
     86  CG       -27.0090   14.9310  -24.7180 C.3   125  LEU125      0.0022
     87  CD1      -25.5340   14.5820  -24.6320 C.3   125  LEU125      0.0001
     88  CD2      -27.1520   16.4170  -24.6610 C.3   125  LEU125      0.0001
     89  N        -30.1220   12.2270  -24.8730 N.am  126  SER126     -0.1950
     90  CA       -31.2510   12.0950  -23.9650 C.3   126  SER126      0.1924
     91  C        -32.4630   12.7390  -24.5980 C.2   126  SER126      0.2314
     92  O        -33.1110   13.5640  -23.9860 O.2   126  SER126     -0.2863
     93  CB       -30.9460   12.7480  -22.5960 C.3   126  SER126      0.2116
     94  OG       -29.9720   12.0290  -21.8590 O.3   126  SER126     -0.2180
     95  N        -32.6350   14.8950  -26.9780 N.3   128  LYS128     -0.1245
     96  CA       -32.3180   16.1360  -27.6760 C.3   128  LYS128      0.1561
     97  C        -31.2850   15.8970  -28.7930 C.2   128  LYS128      0.2260
     98  O        -30.1390   15.5120  -28.5250 O.2   128  LYS128     -0.2867
     99  CB       -31.7680   17.1420  -26.6900 C.3   128  LYS128      0.0271
    100  CG       -31.7920   18.5620  -27.1940 C.3   128  LYS128      0.0035
    101  CD       -32.8270   19.4050  -26.4550 C.3   128  LYS128      0.0206
    102  CE       -32.8200   20.8600  -26.9000 C.3   128  LYS128      0.1093
    103  NZ       -33.7330   21.1090  -28.0570 N.3   128  LYS128     -0.1314
    104  N        -16.6860    8.4320  -18.9110 N.3   140  THR140     -0.1203
    105  CA       -16.9550    9.6170  -18.1000 C.3   140  THR140      0.1994
    106  C        -18.2040    9.3930  -17.2540 C.2   140  THR140      0.2618
    107  O        -18.9950    8.5290  -17.5550 O.2   140  THR140     -0.2717
    108  CB       -17.1610   10.8440  -18.9790 C.3   140  THR140      0.1784
    109  OG1      -18.2980   10.6570  -19.8220 O.3   140  THR140     -0.2211
    110  CG2      -15.9430   11.0840  -19.8340 C.3   140  THR140      0.0376
    111  N        -18.3760   10.1620  -16.1900 N.am  141  LYS141     -0.1965
    112  CA       -19.4760    9.9100  -15.2520 C.3   141  LYS141      0.1728
    113  C        -20.2110   11.1700  -14.8920 C.2   141  LYS141      0.2616
    114  O        -19.8020   12.2450  -15.2880 O.2   141  LYS141     -0.2715
    115  CB       -18.9840    9.1730  -13.9910 C.3   141  LYS141      0.0311
    116  CG       -17.7000    9.7020  -13.3810 C.3   141  LYS141      0.0038
    117  CD       -17.0000    8.6500  -12.5250 C.3   141  LYS141      0.0206
    118  CE       -17.4380    8.7130  -11.0620 C.3   141  LYS141      0.1093
    119  NZ       -16.8060    9.8410  -10.3090 N.3   141  LYS141     -0.1314
    120  N        -21.3080   11.0260  -14.1540 N.am  142  ALA142     -0.1963
    121  CA       -22.1400   12.1560  -13.7540 C.3   142  ALA142      0.1728
    122  C        -21.3340   13.0850  -12.8760 C.2   142  ALA142      0.2616
    123  O        -20.4180   12.6430  -12.1960 O.2   142  ALA142     -0.2715
    124  CB       -23.3650   11.6710  -12.9850 C.3   142  ALA142      0.0334
    125  N        -21.6830   14.3610  -12.8910 N.am  143  GLY143     -0.1955
    126  CA       -20.9760   15.3700  -12.1190 C.3   143  GLY143      0.1869
    127  C        -19.7570   15.9380  -12.8190 C.2   143  GLY143      0.2309
    128  O        -19.0980   16.8410  -12.2870 O.2   143  GLY143     -0.2863
    129  N        -19.9990   17.0610  -16.1180 N.3   145  CYS145     -0.1235
    130  CA       -20.3820   17.8880  -17.2520 C.3   145  CYS145      0.1677
    131  C        -19.8050   19.2730  -17.0770 C.2   145  CYS145      0.2270
    132  O        -19.6460   19.7560  -15.9680 O.2   145  CYS145     -0.2867
    133  CB       -21.8910   18.0150  -17.4530 C.3   145  CYS145      0.0956
    134  SG       -22.5790   16.5740  -18.2400 S.3   145  CYS145     -0.0801
    135  N        -17.3840   19.0070  -22.1520 N.3   159  HIS159     -0.1226
    136  CA       -18.0370   17.7280  -21.9180 C.3   159  HIS159      0.1752
    137  C        -19.5090   17.9060  -21.6680 C.2   159  HIS159      0.2596
    138  O        -19.8910   18.7770  -20.9460 O.2   159  HIS159     -0.2718
    139  CB       -17.4170   17.0330  -20.7240 C.3   159  HIS159      0.0759
    140  CG       -17.9290   15.6570  -20.5020 C.ar  159  HIS159      0.0818
    141  ND1      -17.5310   14.5870  -21.2660 N.ar  159  HIS159     -0.2268
    142  CD2      -18.7860   15.1700  -19.5810 C.ar  159  HIS159      0.1154
    143  CE1      -18.1300   13.4960  -20.8310 C.ar  159  HIS159      0.1986
    144  NE2      -18.8940   13.8210  -19.8050 N.ar  159  HIS159     -0.2212
    145  N        -20.3290   17.0760  -22.2950 N.am  160  ILE160     -0.1966
    146  CA       -21.7830   17.1620  -22.1620 C.3   160  ILE160      0.1727
    147  C        -22.4930   15.8250  -21.9410 C.2   160  ILE160      0.2617
    148  O        -23.6220   15.8150  -21.4870 O.2   160  ILE160     -0.2715
    149  CB       -22.4240   17.8200  -23.3870 C.3   160  ILE160      0.0290
    150  CG1      -22.1870   16.9620  -24.6300 C.3   160  ILE160      0.0022
    151  CG2      -21.8790   19.2320  -23.5630 C.3   160  ILE160      0.0023
    152  CD1      -22.9800   17.3890  -25.8430 C.3   160  ILE160      0.0001
    153  N        -21.8580   14.7000  -22.2400 N.am  161  GLY161     -0.1940
    154  CA       -22.5380   13.4250  -22.0900 C.3   161  GLY161      0.2014
    155  C        -21.6490   12.2130  -22.2100 C.2   161  GLY161      0.2639
    156  O        -20.4720   12.3130  -22.5420 O.2   161  GLY161     -0.2714
    157  N        -22.2330   11.0610  -21.8940 N.am  162  GLY162     -0.1939
    158  CA       -21.5360    9.7860  -21.9450 C.3   162  GLY162      0.2014
    159  C        -22.4680    8.6200  -21.6820 C.2   162  GLY162      0.2639
    160  O        -23.4860    8.7590  -20.9910 O.2   162  GLY162     -0.2714
    161  N        -22.1100    7.4690  -22.2510 N.am  163  ASN163     -0.1958
    162  CA       -22.9450    6.2680  -22.2200 C.3   163  ASN163      0.1819
    163  C        -22.3490    5.1560  -21.3770 C.2   163  ASN163      0.2621
    164  O        -22.7110    4.0220  -21.5420 O.2   163  ASN163     -0.2715
    165  CB       -23.1370    5.7710  -23.6400 C.3   163  ASN163      0.1195
    166  CG       -21.8450    5.3710  -24.2900 C.2   163  ASN163      0.2630
    167  OD1      -20.8680    5.0530  -23.6230 O.2   163  ASN163     -0.2716
    168  ND2      -21.8220    5.3990  -25.6100 N.am  163  ASN163     -0.0877
    169  N        -21.4210    5.4820  -20.4890 N.am  164  GLY164     -0.1954
    170  CA       -20.7950    4.4990  -19.6230 C.3   164  GLY164      0.1869
    171  C        -19.5020    3.9640  -20.1870 C.2   164  GLY164      0.2309
    172  O        -18.6600    3.5020  -19.4430 O.2   164  GLY164     -0.2863
    173  N        -18.7990   12.3280  -24.6000 N.3   168  PHE168     -0.1241
    174  CA       -19.0290   13.2710  -25.6960 C.3   168  PHE168      0.1605
    175  C        -18.9460   14.7210  -25.2580 C.2   168  PHE168      0.2264
    176  O        -19.5170   15.0960  -24.2260 O.2   168  PHE168     -0.2867
    177  CB       -20.4050   13.0340  -26.3090 C.3   168  PHE168      0.0534
    178  CG       -20.5980   11.6410  -26.7660 C.ar  168  PHE168     -0.0203
    179  CD1      -20.0920   11.2350  -27.9860 C.ar  168  PHE168     -0.0042
    180  CD2      -21.2420   10.7130  -25.9530 C.ar  168  PHE168     -0.0042
    181  CE1      -20.2430    9.9340  -28.4040 C.ar  168  PHE168     -0.0003
    182  CE2      -21.3860    9.4100  -26.3710 C.ar  168  PHE168     -0.0003
    183  CZ       -20.8840    9.0230  -27.5940 C.ar  168  PHE168     -0.0000
@<TRIPOS>BOND
     1    65    66    1
     2    66    67    1
     3    66    69    1
     4    67    68    2
     5    67    73   am
     6    69    70    1
     7    73    74    1
     8    77    74    1
     9    77    78    1
    10    74    75    1
    11    79    78    2
    12    78    80   am
    13    71    70    1
    14    70    72    1
    15    97    98    2
    16    97    96    1
    17   181   179   ar
    18   181   183   ar
    19   103   102    1
    20    75    81   am
    21    75    76    2
    22   179   178   ar
    23    96    95    1
    24    96    99    1
    25   183   182   ar
    26    56    57    1
    27    81    82    1
    28   100    99    1
    29   100   101    1
    30   102   101    1
    31   178   177    1
    32   178   180   ar
    33   182   180   ar
    34   177   174    1
    35    57    60    1
    36    57    58    1
    37    82    85    1
    38    82    83    1
    39    60    61    1
    40    85    86    1
    41   152   150    1
    42   174   175    1
    43   174   173    1
    44   168   166   am
    45    58    59    2
    46    83    84    2
    47    83    89   am
    48   175   176    2
    49    63    62   ar
    50    89    90    1
    51    61    62    1
    52    86    88    1
    53    86    87    1
    54    41    42    1
    55    41    40    1
    56   150   149    1
    57    91    92    2
    58    91    90    1
    59    42    43    2
    60    62    64   ar
    61   166   165    1
    62   166   167    2
    63    90    93    1
    64    40    39    1
    65    43    45    1
    66    43    44    1
    67   165   162    1
    68   151   149    1
    69    39    36    1
    70   149   146    1
    71    93    94    1
    72   156   155    2
    73   145   146    1
    74   145   137   am
    75   161   162    1
    76   161   159   am
    77   153   154    1
    78   153   147   am
    79   162   163    1
    80   155   154    1
    81   155   157   am
    82   146   147    1
    83   135   136    1
    84    36    35    1
    85    36    37    1
    86   158   157    1
    87   158   159    1
    88   147   148    2
    89   136   137    1
    90   136   139    1
    91   159   160    2
    92   137   138    2
    93   164   163    2
    94   163   169   am
    95   141   143   ar
    96   141   140   ar
    97    37    46   am
    98    37    38    2
    99   143   144   ar
   100    46    47    1
   101   139   140    1
   102    52    54   ar
   103    52    51   ar
   104   140   142   ar
   105   169   170    1
   106    54    55   ar
   107   171   170    1
   108   171   172    2
   109    50    47    1
   110    50    51    1
   111   110   108    1
   112   109   108    1
   113   144   142   ar
   114    47    48    1
   115    51    53   ar
   116   108   105    1
   117   104   105    1
   118    55    53   ar
   119    48    49    2
   120   134   133    1
   121   105   106    1
   122   107   106    2
   123   133   130    1
   124   106   111   am
   125   130   131    1
   126   130   129    1
   127   131   132    2
   128   111   112    1
   129    33    31   ar
   130    33    34   ar
   131    31    29   ar
   132   114   113    2
   133   112   113    1
   134   112   115    1
   135    34    32   ar
   136   113   120   am
   137     9     7   am
   138     7     8    2
   139     7     6    1
   140    29    28    1
   141    29    30   ar
   142     6     5    1
   143   120   121    1
   144    28    25    1
   145   115   116    1
   146    32    30   ar
   147   121   124    1
   148   121   122    1
   149     5     2    1
   150   116   117    1
   151    25    26    1
   152    25    24    1
   153    26    27    2
   154   125   122   am
   155   125   126    1
   156   122   123    2
   157   127   128    2
   158   127   126    1
   159   117   118    1
   160     2     1    1
   161     2     3    1
   162    17    16    2
   163    24    16   am
   164     4     3    2
   165     3    10   am
   166    16    15    1
   167   118   119    1
   168    10    11    1
   169    13    12    2
   170    12    11    1
   171    12    14   am
   172    15    14    1
   173    15    18    1
   174    18    19    1
   175    19    20   ar
   176    19    21   ar
   177    20    22   ar
   178    21    23   ar
   179    22    23   ar
