@<TRIPOS>MOLECULE
tmp/5dp7A00.pdb
 170 166 0 0 0
SMALL
GASTEIGER

@<TRIPOS>ATOM
      1  N         14.1830    0.9570  -10.2550 N.3    23  GLN23      -0.1245
      2  CA        13.0230    1.2080   -9.3530 C.3    23  GLN23       0.1566
      3  C         11.7590    1.5920  -10.1160 C.2    23  GLN23       0.2260
      4  O         10.7040    1.6540   -9.5340 O.2    23  GLN23      -0.2867
      5  CB        13.3190    2.3500   -8.3730 C.3    23  GLN23       0.0367
      6  CG        14.3470    2.0320   -7.3250 C.3    23  GLN23       0.0905
      7  CD        14.2270    0.6260   -6.8400 C.2    23  GLN23       0.2608
      8  OE1       15.0990   -0.1820   -7.0920 O.2    23  GLN23      -0.2717
      9  NE2       13.1230    0.3060   -6.1920 N.am   23  GLN23      -0.0878
     10  N          9.6190    4.1300  -13.0890 N.3    25  HIS25      -0.1226
     11  CA         9.4880    5.3140  -13.9070 C.3    25  HIS25       0.1752
     12  C          9.5800    6.5940  -13.0830 C.2    25  HIS25       0.2596
     13  O          8.9820    6.6850  -12.0190 O.2    25  HIS25      -0.2718
     14  CB         8.1690    5.2170  -14.6480 C.3    25  HIS25       0.0759
     15  CG         8.2170    4.2990  -15.8140 C.ar   25  HIS25       0.0818
     16  ND1        7.8200    2.9740  -15.7590 N.ar   25  HIS25      -0.2268
     17  CD2        8.6230    4.5190  -17.0780 C.ar   25  HIS25       0.1154
     18  CE1        7.9690    2.4280  -16.9490 C.ar   25  HIS25       0.1986
     19  NE2        8.4560    3.3490  -17.7710 N.ar   25  HIS25      -0.2212
     20  N         10.3560    7.5670  -13.5700 N.am   26  PHE26      -0.1976
     21  CA        10.5610    8.8600  -12.8970 C.3    26  PHE26       0.1639
     22  C         10.7290    9.9960  -13.9210 C.2    26  PHE26       0.2290
     23  O         11.1180    9.7830  -15.0500 O.2    26  PHE26      -0.2864
     24  CB        11.8310    8.8360  -12.0570 C.3    26  PHE26       0.0560
     25  CG        11.7610    7.9120  -10.9330 C.ar   26  PHE26      -0.0200
     26  CD1       11.3480    8.3600   -9.6820 C.ar   26  PHE26      -0.0042
     27  CD2       12.0530    6.5500  -11.1170 C.ar   26  PHE26      -0.0042
     28  CE1       11.2310    7.4610   -8.6440 C.ar   26  PHE26      -0.0003
     29  CE2       11.9580    5.6630  -10.0630 C.ar   26  PHE26      -0.0003
     30  CZ        11.5440    6.1120   -8.8390 C.ar   26  PHE26      -0.0000
     31  N         16.1890   10.6660   -4.7020 N.3    40  ARG40      -0.1231
     32  CA        17.1300    9.6720   -4.2070 C.3    40  ARG40       0.1694
     33  C         16.6330    8.2530   -4.3090 C.2    40  ARG40       0.2592
     34  O         17.4040    7.3540   -4.7100 O.2    40  ARG40      -0.2718
     35  CB        17.5340    9.9530   -2.7690 C.3    40  ARG40       0.0321
     36  CG        18.7170    9.0850   -2.3360 C.3    40  ARG40       0.0489
     37  CD        18.7340    8.8040   -0.8490 C.3    40  ARG40       0.2205
     38  NE        17.3890    8.4720   -0.3800 N.pl3  40  ARG40      -0.0865
     39  CZ        16.8640    7.2430   -0.3180 C.cat  40  ARG40       0.5346
     40  NH1       17.5760    6.1660   -0.6930 N.pl3  40  ARG40       0.1354
     41  NH2       15.6070    7.0970    0.1190 N.pl3  40  ARG40       0.1354
     42  N         15.3660    8.0280   -3.9720 N.am   41  HIS41      -0.1976
     43  CA        14.8350    6.6780   -3.9550 C.3    41  HIS41       0.1656
     44  C         14.7420    6.0530   -5.3380 C.2    41  HIS41       0.2291
     45  O         14.5730    4.8750   -5.4310 O.2    41  HIS41      -0.2864
     46  CB        13.4810    6.6000   -3.2320 C.3    41  HIS41       0.0771
     47  CG        12.3940    7.3980   -3.8720 C.ar   41  HIS41       0.0820
     48  ND1       12.0270    8.6520   -3.4200 N.ar   41  HIS41      -0.2267
     49  CD2       11.5630    7.1100   -4.8970 C.ar   41  HIS41       0.1154
     50  CE1       11.0320    9.1120   -4.1500 C.ar   41  HIS41       0.1986
     51  NE2       10.7340    8.1970   -5.0550 N.ar   41  HIS41      -0.2212
     52  N         10.1300   15.2140    7.0760 N.3   126  LEU126     -0.1231
     53  CA         9.1620   14.2350    6.5940 C.3   126  LEU126      0.1693
     54  C          9.6620   12.8340    6.8250 C.2   126  LEU126      0.2592
     55  O         10.8290   12.6060    6.6090 O.2   126  LEU126     -0.2718
     56  CB         8.8660   14.4660    5.1130 C.3   126  LEU126      0.0284
     57  CG         7.7440   13.6690    4.4550 C.3   126  LEU126      0.0019
     58  CD1        6.3670   14.1100    4.9570 C.3   126  LEU126      0.0001
     59  CD2        7.8500   13.7980    2.9230 C.3   126  LEU126      0.0001
     60  N          8.8090   11.9200    7.3130 N.am  127  ASN127     -0.1960
     61  CA         9.1420   10.4860    7.3250 C.3   127  ASN127      0.1819
     62  C          8.7460    9.7800    6.0300 C.2   127  ASN127      0.2621
     63  O          7.5720    9.5420    5.7570 O.2   127  ASN127     -0.2715
     64  CB         8.5200    9.7230    8.5040 C.3   127  ASN127      0.1195
     65  CG         9.2980    8.4840    8.8360 C.2   127  ASN127      0.2630
     66  OD1        9.6790    8.2960    9.9830 O.2   127  ASN127     -0.2716
     67  ND2        9.6320    7.6750    7.8260 N.am  127  ASN127     -0.0877
     68  N          9.7530    9.4030    5.2580 N.am  128  LEU128     -0.1963
     69  CA         9.5680    8.9110    3.9190 C.3   128  LEU128      0.1728
     70  C          9.7770    7.4010    3.9040 C.2   128  LEU128      0.2616
     71  O         10.8930    6.9240    3.6900 O.2   128  LEU128     -0.2715
     72  CB        10.5840    9.6210    3.0340 C.3   128  LEU128      0.0311
     73  CG        10.6000    9.3580    1.5300 C.3   128  LEU128      0.0022
     74  CD1        9.4900   10.1170    0.7820 C.3   128  LEU128      0.0001
     75  CD2       11.9820    9.7610    1.0260 C.3   128  LEU128      0.0001
     76  N          8.6990    6.6610    4.1550 N.am  129  SER129     -0.1950
     77  CA         8.7260    5.2130    4.1140 C.3   129  SER129      0.1924
     78  C          9.8800    4.7130    4.9700 C.2   129  SER129      0.2314
     79  O         10.7600    3.9810    4.5220 O.2   129  SER129     -0.2863
     80  CB         8.8690    4.7580    2.6740 C.3   129  SER129      0.2116
     81  OG         7.8310    5.3140    1.8900 O.3   129  SER129     -0.2180
     82  N         12.3550    6.5980    6.1380 N.3   131  LYS131     -0.1245
     83  CA        13.5620    7.4270    6.0640 C.3   131  LYS131      0.1561
     84  C         13.2510    8.8650    6.4680 C.2   131  LYS131      0.2260
     85  O         12.4160    9.5160    5.8660 O.2   131  LYS131     -0.2867
     86  CB        14.1290    7.3750    4.6460 C.3   131  LYS131      0.0271
     87  CG        15.4540    8.0920    4.4200 C.3   131  LYS131      0.0035
     88  CD        16.6380    7.1340    4.4590 C.3   131  LYS131      0.0206
     89  CE        17.6340    7.4310    3.3510 C.3   131  LYS131      0.1093
     90  NZ        19.0300    7.2210    3.8030 N.3   131  LYS131     -0.1314
     91  N         -1.2930   13.6540   -4.5480 N.3   143  THR143     -0.1203
     92  CA        -0.3410   13.1230   -5.5130 C.3   143  THR143      0.1994
     93  C         -0.2700   11.5990   -5.3770 C.2   143  THR143      0.2618
     94  O         -0.6870   11.0240   -4.3520 O.2   143  THR143     -0.2717
     95  CB         1.0600   13.7590   -5.3230 C.3   143  THR143      0.1784
     96  OG1        1.4380   13.7650   -3.9360 O.3   143  THR143     -0.2211
     97  CG2        1.0350   15.2400   -5.7680 C.3   143  THR143      0.0376
     98  N          0.2540   10.9580   -6.4250 N.am  144  LYS144     -0.1965
     99  CA         0.2390    9.5280   -6.4860 C.3   144  LYS144      0.1728
    100  C          1.5370    8.9420   -6.9760 C.2   144  LYS144      0.2616
    101  O          2.4300    9.6450   -7.4350 O.2   144  LYS144     -0.2715
    102  CB        -0.8990    9.0840   -7.4010 C.3   144  LYS144      0.0311
    103  CG        -0.8170    9.6030   -8.8180 C.3   144  LYS144      0.0038
    104  CD        -2.1430    9.3190   -9.5180 C.3   144  LYS144      0.0206
    105  CE        -2.1140    8.0890  -10.4010 C.3   144  LYS144      0.1093
    106  NZ        -2.0310    8.5050  -11.8410 N.3   144  LYS144     -0.1314
    107  N          1.6130    7.6200   -6.8420 N.am  145  ALA145     -0.1963
    108  CA         2.7230    6.8650   -7.3430 C.3   145  ALA145      0.1728
    109  C          2.9150    7.2480   -8.8180 C.2   145  ALA145      0.2616
    110  O          1.9310    7.4490   -9.5760 O.2   145  ALA145     -0.2715
    111  CB         2.4510    5.3350   -7.2030 C.3   145  ALA145      0.0334
    112  N          4.1820    7.3270   -9.2140 N.am  146  GLY146     -0.1955
    113  CA         4.5320    7.5670  -10.5790 C.3   146  GLY146      0.1869
    114  C          4.9210    9.0030  -10.8030 C.2   146  GLY146      0.2309
    115  O          5.4230    9.3020  -11.8670 O.2   146  GLY146     -0.2863
    116  N          6.9810   10.9620   -8.8960 N.3   148  CYS148     -0.1235
    117  CA         8.2240   11.3600   -8.2460 C.3   148  CYS148      0.1677
    118  C          9.2110   11.9070   -9.2880 C.2   148  CYS148      0.2270
    119  O          9.3130   11.4000  -10.3960 O.2   148  CYS148     -0.2867
    120  CB         8.8460   10.2060   -7.4760 C.3   148  CYS148      0.0956
    121  SG         8.0370    9.9730   -5.9130 S.3   148  CYS148     -0.0801
    122  N          9.3380   16.4000   -6.7800 N.3   162  HIS162     -0.1226
    123  CA         8.3560   15.6530   -6.0450 C.3   162  HIS162      0.1752
    124  C          8.9110   14.3400   -5.5690 C.2   162  HIS162      0.2596
    125  O          9.5110   13.6220   -6.3270 O.2   162  HIS162     -0.2718
    126  CB         7.1060   15.3960   -6.8670 C.3   162  HIS162      0.0759
    127  CG         6.0320   14.7680   -6.0760 C.ar  162  HIS162      0.0818
    128  ND1        5.2530   15.4890   -5.2040 N.ar  162  HIS162     -0.2268
    129  CD2        5.6120   13.4810   -5.9910 C.ar  162  HIS162      0.1154
    130  CE1        4.4110   14.6780   -4.5970 C.ar  162  HIS162      0.1986
    131  NE2        4.5870   13.4560   -5.0870 N.ar  162  HIS162     -0.2212
    132  N          8.6700   14.0420   -4.2940 N.am  163  ILE163     -0.1965
    133  CA         9.2680   12.9130   -3.6330 C.3   163  ILE163      0.1730
    134  C          8.3260   11.9660   -2.8740 C.2   163  ILE163      0.2656
    135  O          8.7510   10.8350   -2.5410 O.2   163  ILE163     -0.2711
    136  CB        10.3790   13.3560   -2.6440 C.3   163  ILE163      0.0290
    137  CG1        9.8220   14.2420   -1.5040 C.3   163  ILE163      0.0022
    138  CG2       11.5570   14.0020   -3.4000 C.3   163  ILE163      0.0023
    139  CD1       10.7450   14.2790   -0.2950 C.3   163  ILE163      0.0001
    140  N          7.1060   12.4190   -2.5460 N.am  164  GLY164     -0.1716
    141  CA         6.1600   11.5540   -1.8550 C.2   164  GLY164      0.1480
    142  C          4.8430   12.1640   -1.4850 C.2   164  GLY164      0.2821
    143  O          4.5950   13.3140   -1.7500 O.2   164  GLY164     -0.2669
    144  N          3.9980   11.3860   -0.8380 N.am  165  GLY165     -0.1905
    145  CA         2.6630   11.8330   -0.4940 C.3   165  GLY165      0.2017
    146  C          1.9750   10.8600    0.4020 C.2   165  GLY165      0.2639
    147  O          2.3950    9.7110    0.5310 O.2   165  GLY165     -0.2714
    148  N          0.9110   11.3210    1.0470 N.am  166  ASN166     -0.1958
    149  CA         0.1990   10.4850    2.0050 C.3   166  ASN166      0.1819
    150  C         -1.2200   10.2280    1.5980 C.2   166  ASN166      0.2621
    151  O         -2.0170    9.9300    2.4480 O.2   166  ASN166     -0.2715
    152  CB         0.2230   11.1660    3.4140 C.3   166  ASN166      0.1195
    153  CG        -0.4310   12.5470    3.4190 C.2   166  ASN166      0.2630
    154  OD1       -1.2850   12.8510    2.5770 O.2   166  ASN166     -0.2716
    155  ND2       -0.0520   13.3840    4.3620 N.am  166  ASN166     -0.0877
    156  N         -1.5620   10.4110    0.3150 N.am  167  GLY167     -0.1954
    157  CA        -2.9280   10.2280   -0.1710 C.3   167  GLY167      0.1869
    158  C         -3.7460   11.4950   -0.1030 C.2   167  GLY167      0.2309
    159  O         -4.7310   11.6030   -0.7370 O.2   167  GLY167     -0.2863
    160  N          4.4980   16.0380   -1.2020 N.3   171  PHE171     -0.1241
    161  CA         5.7450   16.5750   -0.6770 C.3   171  PHE171      0.1605
    162  C          6.8970   16.5920   -1.6830 C.2   171  PHE171      0.2264
    163  O          7.1300   15.5940   -2.3870 O.2   171  PHE171     -0.2867
    164  CB         6.2010   15.8170    0.5730 C.3   171  PHE171      0.0534
    165  CG         5.1560   15.7530    1.6350 C.ar  171  PHE171     -0.0203
    166  CD1        4.9300   16.8510    2.4320 C.ar  171  PHE171     -0.0042
    167  CD2        4.3320   14.6450    1.7600 C.ar  171  PHE171     -0.0042
    168  CE1        3.9480   16.8270    3.3820 C.ar  171  PHE171     -0.0003
    169  CE2        3.3430   14.6130    2.7150 C.ar  171  PHE171     -0.0003
    170  CZ         3.1540   15.7110    3.5270 C.ar  171  PHE171     -0.0000
@<TRIPOS>BOND
     1    19    17   ar
     2    19    18   ar
     3    17    15   ar
     4    18    16   ar
     5    15    16   ar
     6    15    14    1
     7    23    22    2
     8    14    11    1
     9    22    21    1
    10    11    10    1
    11    11    12    1
    12    20    12   am
    13    20    21    1
    14    12    13    2
    15    21    24    1
    16    24    25    1
    17   115   114    2
    18   106   105    1
    19    27    25   ar
    20    27    29   ar
    21    25    26   ar
    22   114   113    1
    23   113   112    1
    24   105   104    1
    25   119   118    2
    26     1     2    1
    27     3     4    2
    28     3     2    1
    29    29    30   ar
    30    26    28   ar
    31   110   109    2
    32   104   103    1
    33     2     5    1
    34   118   117    1
    35   112   109   am
    36   116   117    1
    37    30    28   ar
    38   109   108    1
    39   103   102    1
    40     5     6    1
    41   117   120    1
    42   120   121    1
    43   101   100    2
    44   102    99    1
    45   108   111    1
    46   108   107    1
    47     6     7    1
    48     8     7    2
    49   100   107   am
    50   100    99    1
    51   126   127    1
    52   126   123    1
    53     7     9   am
    54   122   123    1
    55    99    98    1
    56    98    93   am
    57   125   124    2
    58   127   129   ar
    59   127   128   ar
    60   123   124    1
    61   129   131   ar
    62    97    95    1
    63   124   132   am
    64    92    93    1
    65    92    95    1
    66    92    91    1
    67    45    44    2
    68    93    94    2
    69    44    43    1
    70    95    96    1
    71   128   130   ar
    72   131   130   ar
    73    51    49   ar
    74    51    50   ar
    75    49    47   ar
    76    34    33    2
    77    31    32    1
    78    33    32    1
    79    33    42   am
    80   132   133    1
    81    32    35    1
    82    50    48   ar
    83    42    43    1
    84    43    46    1
    85    47    48   ar
    86    47    46    1
    87   133   134    1
    88   133   136    1
    89   138   136    1
    90   134   140    1
    91   134   135    2
    92    35    36    1
    93   136   137    1
    94   140   141    2
    95   163   162    2
    96    36    37    1
    97   141   142    1
    98   143   142    2
    99   162   161    1
   100   137   139    1
   101   142   144   am
   102   160   161    1
   103    37    38    1
   104   144   145    1
   105   159   158    2
   106    40    39    1
   107   161   164    1
   108   145   146    1
   109    38    39    2
   110    39    41    1
   111   157   158    1
   112   157   156    1
   113   156   150   am
   114   146   147    2
   115   146   148   am
   116   164   165    1
   117    74    73    1
   118    75    73    1
   119   148   149    1
   120    73    72    1
   121   150   149    1
   122   150   151    2
   123   165   167   ar
   124   165   166   ar
   125   167   169   ar
   126    81    80    1
   127   149   152    1
   128   166   168   ar
   129   154   153    2
   130    80    77    1
   131   169   170   ar
   132    59    57    1
   133    72    69    1
   134    89    90    1
   135    89    88    1
   136   168   170   ar
   137   152   153    1
   138   153   155   am
   139    71    70    2
   140    70    69    1
   141    70    76   am
   142    69    68    1
   143    77    76    1
   144    77    78    1
   145    87    88    1
   146    87    86    1
   147    57    58    1
   148    57    56    1
   149    79    78    2
   150    86    83    1
   151    56    53    1
   152    68    62   am
   153    63    62    2
   154    85    84    2
   155    62    61    1
   156    83    82    1
   157    83    84    1
   158    53    54    1
   159    53    52    1
   160    55    54    2
   161    54    60   am
   162    60    61    1
   163    61    64    1
   164    67    65   am
   165    64    65    1
   166    65    66    2
