@<TRIPOS>MOLECULE
tmp/5dp8A00.pdb
 186 180 0 0 0
SMALL
GASTEIGER

@<TRIPOS>ATOM
      1  N        -14.0790   -0.3840   -9.9560 N.3    23  GLN23      -0.1245
      2  CA       -12.8960   -0.6930   -9.1060 C.3    23  GLN23       0.1566
      3  C        -11.6600   -1.0850   -9.9300 C.2    23  GLN23       0.2260
      4  O        -10.6070   -1.3130   -9.3620 O.2    23  GLN23      -0.2867
      5  CB       -13.2190   -1.8200   -8.1250 C.3    23  GLN23       0.0367
      6  CG       -14.3780   -1.5090   -7.2070 C.3    23  GLN23       0.0905
      7  CD       -14.2390   -0.1470   -6.5600 C.2    23  GLN23       0.2608
      8  OE1      -15.0670    0.7480   -6.7750 O.2    23  GLN23      -0.2717
      9  NE2      -13.1870    0.0250   -5.7660 N.am   23  GLN23      -0.0878
     10  N         -9.6310   -3.6250  -12.7840 N.3    25  HIS25      -0.1226
     11  CA        -9.4940   -4.8810  -13.5560 C.3    25  HIS25       0.1752
     12  C         -9.5260   -6.1430  -12.7460 C.2    25  HIS25       0.2596
     13  O         -8.8280   -6.2690  -11.7330 O.2    25  HIS25      -0.2718
     14  CB        -8.1560   -4.8910  -14.3330 C.3    25  HIS25       0.0759
     15  CG        -8.1220   -3.9120  -15.4510 C.ar   25  HIS25       0.0818
     16  ND1       -7.7510   -2.5910  -15.2730 N.ar   25  HIS25      -0.2268
     17  CD2       -8.5080   -4.0320  -16.7420 C.ar   25  HIS25       0.1154
     18  CE1       -7.8700   -1.9510  -16.4270 C.ar   25  HIS25       0.1986
     19  NE2       -8.3410   -2.8010  -17.3300 N.ar   25  HIS25      -0.2212
     20  N        -10.2860   -7.1000  -13.2600 N.am   26  PHE26      -0.1976
     21  CA       -10.5620   -8.3690  -12.6020 C.3    26  PHE26       0.1639
     22  C        -10.6780   -9.4770  -13.6350 C.2    26  PHE26       0.2290
     23  O        -10.8990   -9.2240  -14.8350 O.2    26  PHE26      -0.2864
     24  CB       -11.8620   -8.3100  -11.7810 C.3    26  PHE26       0.0560
     25  CG       -11.7820   -7.3620  -10.6260 C.ar   26  PHE26      -0.0200
     26  CD1      -12.0340   -6.0180  -10.8150 C.ar   26  PHE26      -0.0042
     27  CD2      -11.3860   -7.7970   -9.3850 C.ar   26  PHE26      -0.0042
     28  CE1      -11.9340   -5.1170   -9.7730 C.ar   26  PHE26      -0.0003
     29  CE2      -11.2970   -6.9140   -8.3240 C.ar   26  PHE26      -0.0003
     30  CZ       -11.5730   -5.5620   -8.5190 C.ar   26  PHE26      -0.0000
     31  N        -16.3290  -10.1670   -4.3920 N.3    40  ARG40      -0.1231
     32  CA       -17.2970   -9.1460   -3.9640 C.3    40  ARG40       0.1694
     33  C        -16.7900   -7.6730   -4.0280 C.2    40  ARG40       0.2592
     34  O        -17.5290   -6.7560   -4.4130 O.2    40  ARG40      -0.2718
     35  CB       -17.7920   -9.4840   -2.5780 C.3    40  ARG40       0.0321
     36  CG       -18.9590   -8.6370   -2.1390 C.3    40  ARG40       0.0489
     37  CD       -19.0160   -8.5630   -0.6240 C.3    40  ARG40       0.2205
     38  NE       -17.7300   -8.1440   -0.0650 N.pl3  40  ARG40      -0.0865
     39  CZ       -17.2880   -6.8870   -0.0120 C.cat  40  ARG40       0.5346
     40  NH1      -18.0460   -5.8780   -0.4670 N.pl3  40  ARG40       0.1354
     41  NH2      -16.0720   -6.6410    0.4990 N.pl3  40  ARG40       0.1354
     42  N        -15.5290   -7.4370   -3.6720 N.am   41  HIS41      -0.1976
     43  CA       -15.0130   -6.0540   -3.6160 C.3    41  HIS41       0.1656
     44  C        -14.9140   -5.3970   -5.0120 C.2    41  HIS41       0.2291
     45  O        -14.7100   -4.1780   -5.1260 O.2    41  HIS41      -0.2864
     46  CB       -13.6700   -5.9970   -2.8900 C.3    41  HIS41       0.0771
     47  CG       -12.5610   -6.7190   -3.6020 C.ar   41  HIS41       0.0820
     48  ND1      -12.3140   -8.0700   -3.4310 N.ar   41  HIS41      -0.2267
     49  CD2      -11.6190   -6.2690   -4.4680 C.ar   41  HIS41       0.1154
     50  CE1      -11.2750   -8.4200   -4.1640 C.ar   41  HIS41       0.1986
     51  NE2      -10.8410   -7.3500   -4.8090 N.ar   41  HIS41      -0.2212
     52  N        -17.1850  -13.2570    0.0910 N.3    72  GLU72      -0.1245
     53  CA       -16.3650  -12.4780   -0.8390 C.3    72  GLU72       0.1567
     54  C        -16.5470  -12.9790   -2.2660 C.2    72  GLU72       0.2260
     55  O        -15.6520  -12.8640   -3.1170 O.2    72  GLU72      -0.2867
     56  CB       -14.8910  -12.4380   -0.4160 C.3    72  GLU72       0.0388
     57  CG       -14.0150  -11.4130   -1.1690 C.3    72  GLU72       0.1160
     58  CD       -14.5430   -9.9780   -1.1130 C.2    72  GLU72       0.3649
     59  OE1      -15.1390   -9.6030   -0.0710 O.co2  72  GLU72      -0.2457
     60  OE2      -14.3670   -9.2180   -2.1080 O.co2  72  GLU72      -0.2457
     61  N        -10.3160  -14.8560    7.5330 N.3   126  LEU126     -0.1231
     62  CA        -9.3160  -13.8980    7.0030 C.3   126  LEU126      0.1693
     63  C         -9.8810  -12.4810    7.1140 C.2   126  LEU126      0.2592
     64  O        -11.0440  -12.2660    6.7660 O.2   126  LEU126     -0.2718
     65  CB        -8.9790  -14.2170    5.5420 C.3   126  LEU126      0.0284
     66  CG        -7.7960  -13.4830    4.8890 C.3   126  LEU126      0.0019
     67  CD1       -6.4620  -13.9790    5.4390 C.3   126  LEU126      0.0001
     68  CD2       -7.7940  -13.6680    3.3730 C.3   126  LEU126      0.0001
     69  N         -9.0840  -11.5270    7.6130 N.am  127  ASN127     -0.1960
     70  CA        -9.5370  -10.1220    7.6950 C.3   127  ASN127      0.1819
     71  C         -8.9990   -9.2710    6.5570 C.2   127  ASN127      0.2621
     72  O         -7.8030   -8.9810    6.5010 O.2   127  ASN127     -0.2715
     73  CB        -9.1810   -9.4570    9.0280 C.3   127  ASN127      0.1195
     74  CG       -10.1150   -8.2890    9.3640 C.2   127  ASN127      0.2630
     75  OD1      -10.7210   -8.2660   10.4380 O.2   127  ASN127     -0.2716
     76  ND2      -10.2580   -7.3320    8.4440 N.am  127  ASN127     -0.0877
     77  N         -9.9060   -8.8470    5.6730 N.am  128  LEU128     -0.1963
     78  CA        -9.5360   -8.1660    4.4300 C.3   128  LEU128      0.1728
     79  C         -9.9320   -6.6890    4.4310 C.2   128  LEU128      0.2616
     80  O        -11.0850   -6.3690    4.1870 O.2   128  LEU128     -0.2715
     81  CB       -10.2010   -8.8770    3.2550 C.3   128  LEU128      0.0311
     82  CG        -9.7560  -10.3280    3.0320 C.3   128  LEU128      0.0022
     83  CD1      -10.5890  -11.0630    1.9950 C.3   128  LEU128      0.0001
     84  CD2       -8.2860  -10.3390    2.6420 C.3   128  LEU128      0.0001
     85  N         -8.9860   -5.7780    4.6820 N.am  129  SER129     -0.1950
     86  CA        -9.2930   -4.3240    4.6580 C.3   129  SER129      0.1924
     87  C        -10.4530   -3.9970    5.6100 C.2   129  SER129      0.2314
     88  O        -11.4030   -3.2980    5.2360 O.2   129  SER129     -0.2863
     89  CB        -9.6710   -3.8430    3.2390 C.3   129  SER129      0.2116
     90  OG        -8.6660   -4.1270    2.2850 O.3   129  SER129     -0.2180
     91  N        -12.7830   -6.1000    6.4240 N.3   131  LYS131     -0.1245
     92  CA       -13.8880   -7.0330    6.1390 C.3   131  LYS131      0.1561
     93  C        -13.5320   -8.5060    6.4650 C.2   131  LYS131      0.2260
     94  O        -12.6360   -9.1120    5.8350 O.2   131  LYS131     -0.2867
     95  CB       -14.3060   -6.9260    4.6770 C.3   131  LYS131      0.0271
     96  CG       -15.7030   -7.4440    4.4080 C.3   131  LYS131      0.0035
     97  CD       -16.7240   -6.3300    4.5290 C.3   131  LYS131      0.0206
     98  CE       -18.0370   -6.7220    3.8740 C.3   131  LYS131      0.1093
     99  NZ       -19.1670   -6.3530    4.7730 N.3   131  LYS131     -0.1314
    100  N        -13.9180  -12.4750    6.4810 N.3   133  THR133     -0.1218
    101  CA       -14.3000  -13.3320    5.3870 C.3   133  THR133      0.1862
    102  C        -14.1100  -14.7770    5.8380 C.2   133  THR133      0.2287
    103  O        -13.1170  -15.0530    6.5160 O.2   133  THR133     -0.2866
    104  CB       -13.3800  -13.0360    4.1710 C.3   133  THR133      0.1770
    105  OG1      -13.4570  -11.6400    3.8090 O.3   133  THR133     -0.2211
    106  CG2      -13.7420  -13.9090    2.9970 C.3   133  THR133      0.0375
    107  N          1.1340  -13.1320   -4.1250 N.3   143  THR143     -0.1203
    108  CA         0.1940  -12.6380   -5.1410 C.3   143  THR143      0.1994
    109  C          0.0670  -11.1280   -4.9850 C.2   143  THR143      0.2618
    110  O          0.3670  -10.6030   -3.9190 O.2   143  THR143     -0.2717
    111  CB        -1.1770  -13.3120   -5.0450 C.3   143  THR143      0.1784
    112  OG1       -1.6540  -13.2400   -3.6970 O.3   143  THR143     -0.2211
    113  CG2       -1.0840  -14.7680   -5.5030 C.3   143  THR143      0.0376
    114  N         -0.3740  -10.4450   -6.0470 N.am  144  LYS144     -0.1965
    115  CA        -0.3030   -8.9730   -6.1270 C.3   144  LYS144      0.1728
    116  C         -1.5840   -8.3860   -6.6380 C.2   144  LYS144      0.2616
    117  O         -2.4660   -9.0960   -7.1070 O.2   144  LYS144     -0.2715
    118  CB         0.8460   -8.5260   -7.0370 C.3   144  LYS144      0.0311
    119  CG         0.7800   -9.0670   -8.4620 C.3   144  LYS144      0.0038
    120  CD         2.1470   -9.1000   -9.1480 C.3   144  LYS144      0.0206
    121  CE         2.5220   -7.7790   -9.8170 C.3   144  LYS144      0.1093
    122  NZ         1.9680   -7.6410  -11.2050 N.3   144  LYS144     -0.1314
    123  N         -1.6700   -7.0690   -6.5160 N.am  145  ALA145     -0.1963
    124  CA        -2.7920   -6.3130   -7.0120 C.3   145  ALA145      0.1728
    125  C         -2.9860   -6.6340   -8.4980 C.2   145  ALA145      0.2616
    126  O         -2.0160   -6.8880   -9.2410 O.2   145  ALA145     -0.2715
    127  CB        -2.5590   -4.8130   -6.8020 C.3   145  ALA145      0.0334
    128  N         -4.2520   -6.6490   -8.9090 N.am  146  GLY146     -0.1955
    129  CA        -4.6090   -6.9550  -10.2780 C.3   146  GLY146      0.1869
    130  C         -4.8560   -8.4350  -10.5340 C.2   146  GLY146      0.2309
    131  O         -5.1350   -8.8110  -11.6850 O.2   146  GLY146     -0.2863
    132  N         -7.0670  -10.3640   -8.6030 N.3   148  CYS148     -0.1235
    133  CA        -8.3140  -10.8140   -7.9870 C.3   148  CYS148      0.1677
    134  C         -9.2770  -11.3060   -9.0590 C.2   148  CYS148      0.2270
    135  O         -9.3510  -10.7520  -10.1420 O.2   148  CYS148     -0.2867
    136  CB        -8.9590   -9.7300   -7.1400 C.3   148  CYS148      0.0956
    137  SG        -8.0450   -9.5410   -5.6420 S.3   148  CYS148     -0.0801
    138  N         -9.3110  -16.0880   -6.5130 N.3   162  HIS162     -0.1226
    139  CA        -8.3970  -15.2330   -5.7690 C.3   162  HIS162      0.1752
    140  C         -9.0290  -13.9130   -5.2930 C.2   162  HIS162      0.2596
    141  O         -9.6600  -13.2060   -6.0760 O.2   162  HIS162     -0.2718
    142  CB        -7.1830  -14.9030   -6.6040 C.3   162  HIS162      0.0759
    143  CG        -6.0980  -14.2470   -5.8130 C.ar  162  HIS162      0.0818
    144  ND1       -5.3750  -14.9290   -4.8540 N.ar  162  HIS162     -0.2268
    145  CD2       -5.6380  -12.9740   -5.8020 C.ar  162  HIS162      0.1154
    146  CE1       -4.4950  -14.1100   -4.3100 C.ar  162  HIS162      0.1986
    147  NE2       -4.6410  -12.9140   -4.8550 N.ar  162  HIS162     -0.2212
    148  N         -8.8300  -13.5950   -4.0080 N.am  163  ILE163     -0.1965
    149  CA        -9.4010  -12.4020   -3.3590 C.3   163  ILE163      0.1730
    150  C         -8.4360  -11.5050   -2.5440 C.2   163  ILE163      0.2656
    151  O         -8.7830  -10.3620   -2.2030 O.2   163  ILE163     -0.2711
    152  CB       -10.5550  -12.7740   -2.4050 C.3   163  ILE163      0.0290
    153  CG1      -10.0790  -13.8070   -1.3820 C.3   163  ILE163      0.0022
    154  CG2      -11.7880  -13.2500   -3.1900 C.3   163  ILE163      0.0023
    155  CD1      -10.9180  -13.8250   -0.1250 C.3   163  ILE163      0.0001
    156  N         -7.2420  -11.9960   -2.2230 N.am  164  GLY164     -0.1716
    157  CA        -6.3850  -11.2590   -1.3010 C.2   164  GLY164      0.1480
    158  C         -4.9860  -11.7860   -1.1330 C.2   164  GLY164      0.2821
    159  O         -4.6610  -12.8780   -1.5830 O.2   164  GLY164     -0.2669
    160  N         -4.1570  -10.9980   -0.4660 N.am  165  GLY165     -0.1905
    161  CA        -2.7750  -11.3990   -0.1740 C.3   165  GLY165      0.2017
    162  C         -2.1040  -10.4130    0.7700 C.2   165  GLY165      0.2639
    163  O         -2.6520   -9.3500    1.0510 O.2   165  GLY165     -0.2714
    164  N         -0.9230  -10.7620    1.2640 N.am  166  ASN166     -0.1958
    165  CA        -0.2610   -9.9670    2.3060 C.3   166  ASN166      0.1819
    166  C          1.1750   -9.6920    1.8970 C.2   166  ASN166      0.2621
    167  O          1.9920   -9.2670    2.7100 O.2   166  ASN166     -0.2715
    168  CB        -0.3350  -10.6700    3.6780 C.3   166  ASN166      0.1195
    169  CG         0.3170  -12.0620    3.6740 C.2   166  ASN166      0.2630
    170  OD1        1.1990  -12.3670    2.8470 O.2   166  ASN166     -0.2716
    171  ND2       -0.1180  -12.9110    4.5940 N.am  166  ASN166     -0.0877
    172  N          1.4670   -9.9200    0.6240 N.am  167  GLY167     -0.1954
    173  CA         2.7810   -9.6470    0.0860 C.3   167  GLY167      0.1869
    174  C          3.6480  -10.8820    0.1290 C.2   167  GLY167      0.2309
    175  O          4.7050  -10.8960   -0.5060 O.2   167  GLY167     -0.2863
    176  N         -4.6260  -15.6550   -0.8890 N.3   171  PHE171     -0.1241
    177  CA        -5.8320  -16.2810   -0.3630 C.3   171  PHE171      0.1605
    178  C         -6.9750  -16.2130   -1.3760 C.2   171  PHE171      0.2264
    179  O         -7.2100  -15.1650   -1.9960 O.2   171  PHE171     -0.2867
    180  CB        -6.2700  -15.5890    0.9260 C.3   171  PHE171      0.0534
    181  CG        -5.1710  -15.4600    1.9380 C.ar  171  PHE171     -0.0203
    182  CD1       -4.8560  -16.5250    2.7570 C.ar  171  PHE171     -0.0042
    183  CD2       -4.4360  -14.2810    2.0560 C.ar  171  PHE171     -0.0042
    184  CE1       -3.8290  -16.4240    3.6770 C.ar  171  PHE171     -0.0003
    185  CE2       -3.4050  -14.1730    2.9740 C.ar  171  PHE171     -0.0003
    186  CZ        -3.1050  -15.2450    3.7860 C.ar  171  PHE171     -0.0000
@<TRIPOS>BOND
     1    19    17   ar
     2    19    18   ar
     3    17    15   ar
     4    18    16   ar
     5    15    16   ar
     6    15    14    1
     7    23    22    2
     8    14    11    1
     9    22    21    1
    10    11    10    1
    11    11    12    1
    12    20    12   am
    13    20    21    1
    14    12    13    2
    15    21    24    1
    16    24    25    1
    17   131   130    2
    18   122   121    1
    19    26    25   ar
    20    26    28   ar
    21    25    27   ar
    22   130   129    1
    23   129   128    1
    24   135   134    2
    25     1     2    1
    26     3     4    2
    27     3     2    1
    28   121   120    1
    29    28    30   ar
    30    27    29   ar
    31   126   125    2
    32   120   119    1
    33     2     5    1
    34   134   133    1
    35   128   125   am
    36   132   133    1
    37    30    29   ar
    38   125   124    1
    39   119   118    1
    40     5     6    1
    41   133   136    1
    42     6     7    1
    43   136   137    1
    44   117   116    2
    45   118   115    1
    46   124   127    1
    47   124   123    1
    48     8     7    2
    49   116   123   am
    50   116   115    1
    51   142   143    1
    52   142   139    1
    53     7     9   am
    54   138   139    1
    55   115   114    1
    56   141   140    2
    57   114   109   am
    58   143   145   ar
    59   143   144   ar
    60   145   147   ar
    61   139   140    1
    62   113   111    1
    63   140   148   am
    64   108   111    1
    65   108   109    1
    66   108   107    1
    67    45    44    2
    68   111   112    1
    69    44    43    1
    70   109   110    2
    71   147   146   ar
    72   144   146   ar
    73    51    49   ar
    74    51    50   ar
    75    49    47   ar
    76    34    33    2
    77    31    32    1
    78    50    48   ar
    79    33    32    1
    80    33    42   am
    81   148   149    1
    82    32    35    1
    83    42    43    1
    84    43    46    1
    85    47    48   ar
    86    47    46    1
    87   149   150    1
    88   149   152    1
    89   154   152    1
    90    55    54    2
    91    35    36    1
    92   150   156    1
    93   150   151    2
    94   152   153    1
    95    54    53    1
    96   156   157    2
    97    36    37    1
    98    60    58   ar
    99   179   178    2
   100   159   158    2
   101   153   155    1
   102   178   177    1
   103   157   158    1
   104    57    58    1
   105    57    56    1
   106   158   160   am
   107    58    59   ar
   108   176   177    1
   109    53    56    1
   110    53    52    1
   111    37    38    1
   112   175   174    2
   113    40    39    1
   114   160   161    1
   115   177   180    1
   116   161   162    1
   117    38    39    2
   118    39    41    1
   119   173   174    1
   120   173   172    1
   121   172   166   am
   122   162   163    2
   123   162   164   am
   124   180   181    1
   125   164   165    1
   126   166   165    1
   127   166   167    2
   128   181   183   ar
   129   181   182   ar
   130    83    82    1
   131   183   185   ar
   132    90    89    1
   133   165   168    1
   134    84    82    1
   135   182   184   ar
   136   170   169    2
   137   185   186   ar
   138   106   104    1
   139    82    81    1
   140    89    86    1
   141    81    78    1
   142    68    66    1
   143   169   168    1
   144   169   171   am
   145   184   186   ar
   146   105   104    1
   147    98    97    1
   148    98    99    1
   149   104   101    1
   150    80    79    2
   151    96    97    1
   152    96    95    1
   153    78    79    1
   154    78    77    1
   155    79    85   am
   156    86    85    1
   157    86    87    1
   158    95    92    1
   159    66    67    1
   160    66    65    1
   161    88    87    2
   162   101   102    1
   163   101   100    1
   164    65    62    1
   165    77    71   am
   166    94    93    2
   167   102   103    2
   168    92    91    1
   169    92    93    1
   170    72    71    2
   171    71    70    1
   172    64    63    2
   173    62    63    1
   174    62    61    1
   175    63    69   am
   176    69    70    1
   177    70    73    1
   178    76    74   am
   179    73    74    1
   180    74    75    2
