@<TRIPOS>MOLECULE
tmp/5dp9A00.pdb
 179 174 0 0 0
SMALL
GASTEIGER

@<TRIPOS>ATOM
      1  N        -14.0830   -0.4400  -10.0240 N.3    23  GLN23      -0.1245
      2  CA       -12.9180   -0.7200   -9.1430 C.3    23  GLN23       0.1566
      3  C        -11.6430   -1.1300   -9.9100 C.2    23  GLN23       0.2260
      4  O        -10.5770   -1.2750   -9.2930 O.2    23  GLN23      -0.2867
      5  CB       -13.2510   -1.8000   -8.0920 C.3    23  GLN23       0.0367
      6  CG       -14.4960   -1.5230   -7.2600 C.3    23  GLN23       0.0905
      7  CD       -14.4820   -0.1600   -6.5730 C.2    23  GLN23       0.2608
      8  OE1      -15.4090    0.6350   -6.7390 O.2    23  GLN23      -0.2717
      9  NE2      -13.4320    0.1130   -5.7960 N.am   23  GLN23      -0.0878
     10  N         -9.5530   -3.6090  -13.0000 N.3    25  HIS25      -0.1226
     11  CA        -9.4980   -4.8810  -13.7330 C.3    25  HIS25       0.1752
     12  C         -9.5600   -6.1570  -12.8820 C.2    25  HIS25       0.2596
     13  O         -8.8770   -6.2970  -11.8430 O.2    25  HIS25      -0.2718
     14  CB        -8.2480   -4.9230  -14.5890 C.3    25  HIS25       0.0759
     15  CG        -8.2140   -3.8620  -15.6360 C.ar   25  HIS25       0.0818
     16  ND1       -8.0120   -2.5270  -15.3480 N.ar   25  HIS25      -0.2268
     17  CD2       -8.3940   -3.9360  -16.9700 C.ar   25  HIS25       0.1154
     18  CE1       -8.0650   -1.8290  -16.4680 C.ar   25  HIS25       0.1986
     19  NE2       -8.2850   -2.6620  -17.4690 N.ar   25  HIS25      -0.2212
     20  N        -10.3770   -7.0950  -13.3520 N.am   26  PHE26      -0.1976
     21  CA       -10.6420   -8.3710  -12.6720 C.3    26  PHE26       0.1639
     22  C        -10.7320   -9.4870  -13.7000 C.2    26  PHE26       0.2290
     23  O        -10.9350   -9.2540  -14.9010 O.2    26  PHE26      -0.2864
     24  CB       -11.9450   -8.3000  -11.8140 C.3    26  PHE26       0.0560
     25  CG       -11.8720   -7.3020  -10.6910 C.ar   26  PHE26      -0.0200
     26  CD1      -12.1720   -5.9540  -10.9220 C.ar   26  PHE26      -0.0042
     27  CD2      -11.4510   -7.6950   -9.4060 C.ar   26  PHE26      -0.0042
     28  CE1      -12.0820   -5.0110   -9.8970 C.ar   26  PHE26      -0.0003
     29  CE2      -11.3290   -6.7650   -8.3970 C.ar   26  PHE26      -0.0003
     30  CZ       -11.6620   -5.4200   -8.6300 C.ar   26  PHE26      -0.0000
     31  N        -16.6760  -10.2060   -4.6320 N.3    40  ARG40      -0.1231
     32  CA       -17.4680   -9.1310   -4.0540 C.3    40  ARG40       0.1694
     33  C        -16.8510   -7.7290   -4.1320 C.2    40  ARG40       0.2592
     34  O        -17.5590   -6.7960   -4.4790 O.2    40  ARG40      -0.2718
     35  CB       -17.8340   -9.4580   -2.6060 C.3    40  ARG40       0.0321
     36  CG       -18.9640   -8.6010   -2.0570 C.3    40  ARG40       0.0489
     37  CD       -19.0230   -8.6770   -0.5380 C.3    40  ARG40       0.2205
     38  NE       -17.6980   -8.3270   -0.0380 N.pl3  40  ARG40      -0.0865
     39  CZ       -17.2510   -7.0820    0.0820 C.cat  40  ARG40       0.5346
     40  NH1      -18.0530   -6.0550   -0.1760 N.pl3  40  ARG40       0.1354
     41  NH2      -16.0060   -6.8650    0.5000 N.pl3  40  ARG40       0.1354
     42  N        -15.5590   -7.5480   -3.8430 N.am   41  HIS41      -0.1976
     43  CA       -15.0400   -6.1740   -3.7580 C.3    41  HIS41       0.1656
     44  C        -14.8710   -5.5330   -5.1430 C.2    41  HIS41       0.2291
     45  O        -14.4810   -4.3670   -5.2450 O.2    41  HIS41      -0.2864
     46  CB       -13.7330   -6.0870   -2.9600 C.3    41  HIS41       0.0771
     47  CG       -12.5540   -6.6450   -3.6830 C.ar   41  HIS41       0.0820
     48  ND1      -12.2020   -7.9730   -3.6080 N.ar   41  HIS41      -0.2267
     49  CD2      -11.6550   -6.0620   -4.5100 C.ar   41  HIS41       0.1154
     50  CE1      -11.1320   -8.1840   -4.3520 C.ar   41  HIS41       0.1986
     51  NE2      -10.7920   -7.0430   -4.9210 N.ar   41  HIS41      -0.2212
     52  N        -17.1450  -13.3060    0.1370 N.3    72  GLU72      -0.1245
     53  CA       -16.3190  -12.5440   -0.8240 C.3    72  GLU72       0.1567
     54  C        -16.5520  -12.9680   -2.2760 C.2    72  GLU72       0.2260
     55  O        -15.6370  -12.9110   -3.1260 O.2    72  GLU72      -0.2867
     56  CB       -14.8310  -12.6060   -0.4620 C.3    72  GLU72       0.0388
     57  CG       -13.9620  -11.5370   -1.1210 C.3    72  GLU72       0.1160
     58  CD       -14.4740  -10.1240   -0.9190 C.2    72  GLU72       0.3649
     59  OE1      -15.0930   -9.8610    0.1250 O.co2  72  GLU72      -0.2457
     60  OE2      -14.2470   -9.2630   -1.8020 O.co2  72  GLU72      -0.2457
     61  N        -10.2430  -14.8720    7.3980 N.3   126  LEU126     -0.1231
     62  CA        -9.2910  -13.8920    6.8490 C.3   126  LEU126      0.1693
     63  C         -9.8450  -12.4760    7.0470 C.2   126  LEU126      0.2592
     64  O        -11.0610  -12.2600    6.9990 O.2   126  LEU126     -0.2718
     65  CB        -9.0090  -14.1850    5.3600 C.3   126  LEU126      0.0284
     66  CG        -7.7790  -13.5330    4.7070 C.3   126  LEU126      0.0019
     67  CD1       -6.4760  -14.1010    5.2490 C.3   126  LEU126      0.0001
     68  CD2       -7.8040  -13.6990    3.1890 C.3   126  LEU126      0.0001
     69  N         -8.9700  -11.5170    7.3320 N.am  127  ASN127     -0.1960
     70  CA        -9.4340  -10.1320    7.4130 C.3   127  ASN127      0.1819
     71  C         -8.8740   -9.2670    6.3030 C.2   127  ASN127      0.2621
     72  O         -7.6840   -8.9330    6.2790 O.2   127  ASN127     -0.2715
     73  CB        -9.2080   -9.4910    8.7800 C.3   127  ASN127      0.1195
     74  CG       -10.2480   -8.4270    9.0730 C.2   127  ASN127      0.2630
     75  OD1      -11.2160   -8.6770    9.7830 O.2   127  ASN127     -0.2716
     76  ND2      -10.0870   -7.2560    8.4780 N.am  127  ASN127     -0.0877
     77  N         -9.7620   -8.9180    5.3790 N.am  128  LEU128     -0.1963
     78  CA        -9.3920   -8.1630    4.2010 C.3   128  LEU128      0.1728
     79  C         -9.9130   -6.7420    4.3270 C.2   128  LEU128      0.2616
     80  O        -11.1050   -6.5010    4.1580 O.2   128  LEU128     -0.2715
     81  CB        -9.9760   -8.8350    2.9690 C.3   128  LEU128      0.0311
     82  CG        -9.5010  -10.2800    2.8050 C.3   128  LEU128      0.0022
     83  CD1      -10.5490  -11.1250    2.0960 C.3   128  LEU128      0.0001
     84  CD2       -8.1650  -10.3230    2.0770 C.3   128  LEU128      0.0001
     85  N         -9.0270   -5.8010    4.6490 N.am  129  SER129     -0.1950
     86  CA        -9.3930   -4.3780    4.6550 C.3   129  SER129      0.1924
     87  C        -10.5640   -4.1090    5.6200 C.2   129  SER129      0.2314
     88  O        -11.5650   -3.4950    5.2480 O.2   129  SER129     -0.2863
     89  CB        -9.7620   -3.9250    3.2280 C.3   129  SER129      0.2116
     90  OG        -8.9240   -4.5280    2.2520 O.3   129  SER129     -0.2180
     91  N        -12.7880   -6.1750    6.4170 N.3   131  LYS131     -0.1245
     92  CA       -13.8760   -7.1060    6.0640 C.3   131  LYS131      0.1561
     93  C        -13.5160   -8.5410    6.5120 C.2   131  LYS131      0.2260
     94  O        -12.5660   -9.1540    5.9860 O.2   131  LYS131     -0.2867
     95  CB       -14.1430   -7.0810    4.5500 C.3   131  LYS131      0.0271
     96  CG       -15.5160   -7.5830    4.1170 C.3   131  LYS131      0.0035
     97  CD       -16.5720   -6.4990    4.2460 C.3   131  LYS131      0.0206
     98  CE       -17.8010   -6.7960    3.3980 C.3   131  LYS131      0.1093
     99  NZ       -19.0190   -6.1240    3.9280 N.3   131  LYS131     -0.1314
    100  N          1.1020  -13.3570   -4.2890 N.3   143  THR143     -0.1203
    101  CA         0.2070  -12.7850   -5.2810 C.3   143  THR143      0.1994
    102  C          0.2000  -11.2630   -5.1420 C.2   143  THR143      0.2618
    103  O          0.7990  -10.7300   -4.2030 O.2   143  THR143     -0.2717
    104  CB        -1.2080  -13.3540   -5.1520 C.3   143  THR143      0.1784
    105  OG1       -1.6850  -13.1690   -3.8160 O.3   143  THR143     -0.2211
    106  CG2       -1.1980  -14.8330   -5.5180 C.3   143  THR143      0.0376
    107  N         -0.4480  -10.5750   -6.0890 N.am  144  LYS144     -0.1965
    108  CA        -0.3490   -9.1050   -6.2150 C.3   144  LYS144      0.1728
    109  C         -1.6500   -8.4670   -6.7020 C.2   144  LYS144      0.2616
    110  O         -2.6100   -9.1710   -7.0600 O.2   144  LYS144     -0.2715
    111  CB         0.8260   -8.7100   -7.1410 C.3   144  LYS144      0.0311
    112  CG         0.6730   -9.1440   -8.5940 C.3   144  LYS144      0.0038
    113  CD         1.9910   -9.1480   -9.3510 C.3   144  LYS144      0.0206
    114  CE         2.3190   -7.7880   -9.9410 C.3   144  LYS144      0.1093
    115  NZ         1.6310   -7.5720  -11.2480 N.3   144  LYS144     -0.1314
    116  N         -1.6790   -7.1320   -6.6580 N.am  145  ALA145     -0.1963
    117  CA        -2.8200   -6.3720   -7.1380 C.3   145  ALA145      0.1728
    118  C         -3.0280   -6.6550   -8.6200 C.2   145  ALA145      0.2616
    119  O         -2.0690   -6.8710   -9.3810 O.2   145  ALA145     -0.2715
    120  CB        -2.6370   -4.8820   -6.8940 C.3   145  ALA145      0.0334
    121  N         -4.2910   -6.6410   -9.0140 N.am  146  GLY146     -0.1955
    122  CA        -4.6900   -6.9630  -10.3700 C.3   146  GLY146      0.1869
    123  C         -5.0030   -8.4390  -10.6140 C.2   146  GLY146      0.2309
    124  O         -5.4270   -8.8090  -11.7180 O.2   146  GLY146     -0.2863
    125  N         -7.0320  -10.4810   -8.4990 N.3   148  CYS148     -0.1235
    126  CA        -8.3250  -10.8900   -7.9380 C.3   148  CYS148      0.1677
    127  C         -9.2550  -11.3730   -9.0540 C.2   148  CYS148      0.2270
    128  O         -9.2690  -10.7990  -10.1300 O.2   148  CYS148     -0.2867
    129  CB        -8.9770   -9.7620   -7.1190 C.3   148  CYS148      0.0956
    130  SG        -8.1080   -9.5220   -5.5790 S.3   148  CYS148     -0.0801
    131  N         -9.4040  -16.2000   -6.4780 N.3   162  HIS162     -0.1226
    132  CA        -8.4750  -15.3150   -5.7730 C.3   162  HIS162      0.1752
    133  C         -9.0900  -13.9920   -5.3300 C.2   162  HIS162      0.2596
    134  O         -9.6760  -13.2490   -6.1300 O.2   162  HIS162     -0.2718
    135  CB        -7.2280  -15.0380   -6.6110 C.3   162  HIS162      0.0759
    136  CG        -6.1560  -14.3240   -5.8530 C.ar  162  HIS162      0.0818
    137  ND1       -5.2720  -14.9850   -5.0280 N.ar  162  HIS162     -0.2268
    138  CD2       -5.8350  -13.0080   -5.7730 C.ar  162  HIS162      0.1154
    139  CE1       -4.4490  -14.1110   -4.4790 C.ar  162  HIS162      0.1986
    140  NE2       -4.7590  -12.9060   -4.9230 N.ar  162  HIS162     -0.2212
    141  N         -8.9360  -13.6960   -4.0390 N.am  163  ILE163     -0.1965
    142  CA        -9.4820  -12.4860   -3.4370 C.3   163  ILE163      0.1730
    143  C         -8.4610  -11.6030   -2.6730 C.2   163  ILE163      0.2656
    144  O         -8.7960  -10.4740   -2.3270 O.2   163  ILE163     -0.2711
    145  CB       -10.6070  -12.8360   -2.4340 C.3   163  ILE163      0.0290
    146  CG1      -10.1050  -13.8590   -1.4070 C.3   163  ILE163      0.0022
    147  CG2      -11.8660  -13.3200   -3.1590 C.3   163  ILE163      0.0023
    148  CD1      -10.8340  -13.8000   -0.0930 C.3   163  ILE163      0.0001
    149  N         -7.2440  -12.0960   -2.4180 N.am  164  GLY164     -0.1716
    150  CA        -6.3490  -11.3990   -1.4880 C.2   164  GLY164      0.1480
    151  C         -4.9400  -11.9230   -1.2820 C.2   164  GLY164      0.2821
    152  O         -4.5580  -12.9820   -1.7780 O.2   164  GLY164     -0.2669
    153  N         -4.1600  -11.1620   -0.5220 N.am  165  GLY165     -0.1905
    154  CA        -2.7720  -11.5290   -0.2370 C.3   165  GLY165      0.2017
    155  C         -2.0660  -10.5290    0.6620 C.2   165  GLY165      0.2639
    156  O         -2.5590   -9.4330    0.8770 O.2   165  GLY165     -0.2714
    157  N         -0.8940  -10.8870    1.1770 N.am  166  ASN166     -0.1958
    158  CA        -0.2110  -10.0210    2.1520 C.3   166  ASN166      0.1819
    159  C          1.2060   -9.6910    1.7400 C.2   166  ASN166      0.2621
    160  O          1.9490   -9.0820    2.5140 O.2   166  ASN166     -0.2715
    161  CB        -0.2570  -10.6360    3.5680 C.3   166  ASN166      0.1195
    162  CG         0.2810  -12.0680    3.6310 C.2   166  ASN166      0.2630
    163  OD1        1.2200  -12.4430    2.9100 O.2   166  ASN166     -0.2716
    164  ND2       -0.3100  -12.8770    4.5070 N.am  166  ASN166     -0.0877
    165  N          1.5600  -10.0680    0.5100 N.am  167  GLY167     -0.1954
    166  CA         2.8670   -9.8090   -0.0340 C.3   167  GLY167      0.1869
    167  C          3.7300  -11.0440    0.0100 C.2   167  GLY167      0.2309
    168  O          4.7370  -11.0900   -0.6600 O.2   167  GLY167     -0.2863
    169  N         -4.5620  -15.6380   -1.0570 N.3   171  PHE171     -0.1241
    170  CA        -5.7840  -16.2610   -0.5420 C.3   171  PHE171      0.1605
    171  C         -6.9730  -16.2070   -1.5090 C.2   171  PHE171      0.2264
    172  O         -7.3030  -15.1470   -2.0470 O.2   171  PHE171     -0.2867
    173  CB        -6.2040  -15.6040    0.7630 C.3   171  PHE171      0.0534
    174  CG        -5.0870  -15.4830    1.7610 C.ar  171  PHE171     -0.0203
    175  CD1       -4.2310  -14.3880    1.7420 C.ar  171  PHE171     -0.0042
    176  CD2       -4.8780  -16.4760    2.7020 C.ar  171  PHE171     -0.0042
    177  CE1       -3.1910  -14.2850    2.6530 C.ar  171  PHE171     -0.0003
    178  CE2       -3.8500  -16.3720    3.6210 C.ar  171  PHE171     -0.0003
    179  CZ        -3.0040  -15.2830    3.5930 C.ar  171  PHE171     -0.0000
@<TRIPOS>BOND
     1    19    17   ar
     2    19    18   ar
     3    17    15   ar
     4    18    16   ar
     5    15    16   ar
     6    15    14    1
     7    23    22    2
     8    14    11    1
     9    11    10    1
    10    11    12    1
    11    22    21    1
    12    20    12   am
    13    20    21    1
    14    12    13    2
    15    21    24    1
    16    24    25    1
    17   124   123    2
    18   115   114    1
    19    26    25   ar
    20    26    28   ar
    21    25    27   ar
    22   123   122    1
    23   122   121    1
    24   128   127    2
    25     1     2    1
    26   114   113    1
    27     3     4    2
    28     3     2    1
    29    28    30   ar
    30    27    29   ar
    31   119   118    2
    32   113   112    1
    33     2     5    1
    34   127   126    1
    35   121   118   am
    36    30    29   ar
    37   118   117    1
    38   112   111    1
    39   125   126    1
    40     5     6    1
    41   126   129    1
    42     6     7    1
    43   111   108    1
    44   117   120    1
    45   117   116    1
    46   129   130    1
    47   110   109    2
    48     8     7    2
    49   109   116   am
    50   109   108    1
    51   135   136    1
    52   135   132    1
    53     7     9   am
    54   131   132    1
    55   108   107    1
    56   134   133    2
    57   107   102   am
    58   136   138   ar
    59   136   137   ar
    60   138   140   ar
    61   132   133    1
    62   106   104    1
    63   133   141   am
    64   101   104    1
    65   101   102    1
    66   101   100    1
    67    45    44    2
    68   104   105    1
    69    44    43    1
    70   102   103    2
    71   137   139   ar
    72   140   139   ar
    73    51    49   ar
    74    51    50   ar
    75    31    32    1
    76    49    47   ar
    77    34    33    2
    78    50    48   ar
    79    33    32    1
    80    33    42   am
    81    32    35    1
    82   141   142    1
    83    42    43    1
    84    43    46    1
    85    47    48   ar
    86    47    46    1
    87   142   143    1
    88   142   145    1
    89   147   145    1
    90    55    54    2
    91   143   149    1
    92   143   144    2
    93    35    36    1
    94   145   146    1
    95   149   150    2
    96    54    53    1
    97    36    37    1
    98   172   171    2
    99    60    58   ar
   100   152   151    2
   101   171   170    1
   102   150   151    1
   103   146   148    1
   104   151   153   am
   105    57    58    1
   106    57    56    1
   107   169   170    1
   108    58    59   ar
   109    53    56    1
   110    53    52    1
   111   168   167    2
   112   170   173    1
   113    37    38    1
   114   153   154    1
   115   154   155    1
   116    40    39    1
   117    38    39    2
   118   166   167    1
   119   166   165    1
   120    39    41    1
   121   165   159   am
   122   155   156    2
   123   155   157   am
   124   173   174    1
   125   157   158    1
   126   159   158    1
   127   159   160    2
   128   175   174   ar
   129   175   177   ar
   130   174   176   ar
   131    84    82    1
   132    83    82    1
   133   158   161    1
   134    90    89    1
   135   177   179   ar
   136   176   178   ar
   137    82    81    1
   138   163   162    2
   139    81    78    1
   140    68    66    1
   141    89    86    1
   142    98    99    1
   143    98    97    1
   144   161   162    1
   145   179   178   ar
   146   162   164   am
   147    96    97    1
   148    96    95    1
   149    80    79    2
   150    78    79    1
   151    78    77    1
   152    79    85   am
   153    95    92    1
   154    85    86    1
   155    86    87    1
   156    66    67    1
   157    66    65    1
   158    88    87    2
   159    65    62    1
   160    77    71   am
   161    94    93    2
   162    92    91    1
   163    92    93    1
   164    72    71    2
   165    71    70    1
   166    62    63    1
   167    62    61    1
   168    64    63    2
   169    63    69   am
   170    69    70    1
   171    70    73    1
   172    76    74   am
   173    73    74    1
   174    74    75    2
