@<TRIPOS>MOLECULE
tmp/5dpdA00.pdb
 166 162 0 0 0
SMALL
GASTEIGER

@<TRIPOS>ATOM
      1  N        130.0530   -2.7990   38.2380 N.3     6  TYR6       -0.1241
      2  CA       129.4560   -3.8110   37.3820 C.3     6  TYR6        0.1605
      3  C        129.1550   -5.0130   38.2570 C.2     6  TYR6        0.2264
      4  O        130.0760   -5.6860   38.7310 O.2     6  TYR6       -0.2867
      5  CB       130.3810   -4.1640   36.2290 C.3     6  TYR6        0.0534
      6  CG       130.7180   -2.9800   35.3660 C.ar    6  TYR6       -0.0201
      7  CD1      129.8130   -2.4990   34.4360 C.ar    6  TYR6       -0.0009
      8  CD2      131.9320   -2.3270   35.4950 C.ar    6  TYR6       -0.0009
      9  CE1      130.1130   -1.4140   33.6510 C.ar    6  TYR6        0.0417
     10  CE2      132.2360   -1.2430   34.7160 C.ar    6  TYR6        0.0417
     11  CZ       131.3230   -0.7900   33.8000 C.ar    6  TYR6        0.1957
     12  OH       131.6330    0.2970   33.0190 O.3     6  TYR6       -0.2866
     13  N        142.4440   -5.5080   39.4120 N.3    35  GLU35      -0.1231
     14  CA       141.6700   -5.0280   38.2770 C.3    35  GLU35       0.1699
     15  C        142.5950   -4.4190   37.2430 C.2    35  GLU35       0.2592
     16  O        143.3150   -3.4630   37.5360 O.2    35  GLU35      -0.2718
     17  CB       140.6030   -4.0150   38.6620 C.3    35  GLU35       0.0402
     18  CG       139.7840   -3.6720   37.4190 C.3    35  GLU35       0.1161
     19  CD       138.4980   -2.9550   37.7410 C.2    35  GLU35       0.3649
     20  OE1      138.3300   -2.5840   38.9230 O.co2  35  GLU35      -0.2457
     21  OE2      137.6380   -2.8100   36.8330 O.co2  35  GLU35      -0.2457
     22  N        142.5410   -4.9410   36.0280 N.am   36  LEU36      -0.1966
     23  CA       143.3190   -4.3880   34.9290 C.3    36  LEU36       0.1728
     24  C        142.4580   -3.3430   34.2290 C.2    36  LEU36       0.2617
     25  O        141.3980   -3.6670   33.6830 O.2    36  LEU36      -0.2715
     26  CB       143.7430   -5.4890   33.9520 C.3    36  LEU36       0.0311
     27  CG       144.9050   -6.4340   34.2880 C.3    36  LEU36       0.0022
     28  CD1      145.3640   -6.2840   35.7290 C.3    36  LEU36       0.0001
     29  CD2      144.5450   -7.8820   34.0140 C.3    36  LEU36       0.0001
     30  N        142.9040   -2.0920   34.2450 N.am   37  GLY37      -0.1940
     31  CA       142.0820   -1.0370   33.6830 C.3    37  GLY37       0.2014
     32  C        140.9340   -0.6450   34.5880 C.2    37  GLY37       0.2639
     33  O        139.7730   -0.5900   34.1710 O.2    37  GLY37      -0.2714
     34  N        141.2770   -0.3580   35.8390 N.am   38  CYS38      -0.1953
     35  CA       140.3440   -0.1010   36.9330 C.3    38  CYS38       0.1843
     36  C        139.8320    1.3350   37.0330 C.2    38  CYS38       0.2625
     37  O        138.6260    1.5780   36.9510 O.2    38  CYS38      -0.2714
     38  CB       141.0310   -0.4670   38.2480 C.3    38  CYS38       0.0997
     39  SG       142.2690    0.7750   38.6660 S.3    38  CYS38      -0.0797
     40  N        140.7350    2.2820   37.2450 N.am   39  ALA39      -0.1977
     41  CA       140.3820    3.6570   37.5940 C.3    39  ALA39       0.1597
     42  C        139.3110    4.2370   36.6890 C.2    39  ALA39       0.2287
     43  O        139.3020    3.9730   35.4810 O.2    39  ALA39      -0.2864
     44  CB       141.6260    4.5250   37.5890 C.3    39  ALA39       0.0319
     45  N        134.3240    0.3380   40.4820 N.3    43  ASN43      -0.1240
     46  CA       134.0980   -1.0960   40.4480 C.3    43  ASN43       0.1653
     47  C        134.9560   -1.8260   41.4670 C.2    43  ASN43       0.2266
     48  O        134.8670   -3.0520   41.5730 O.2    43  ASN43      -0.2867
     49  CB       134.3880   -1.6260   39.0370 C.3    43  ASN43       0.1155
     50  CG       133.9500   -3.0720   38.8380 C.2    43  ASN43       0.2627
     51  OD1      133.0970   -3.5750   39.5630 O.2    43  ASN43      -0.2716
     52  ND2      134.5630   -3.7540   37.8720 N.am   43  ASN43      -0.0877
     53  N        145.1780   -1.1530   38.5590 N.3    59  VAL59      -0.1231
     54  CA       146.1950   -0.6640   37.6490 C.3    59  VAL59       0.1692
     55  C        145.4960    0.1020   36.5490 C.2    59  VAL59       0.2592
     56  O        144.5110   -0.3810   35.9840 O.2    59  VAL59      -0.2718
     57  CB       147.0290   -1.8130   37.0580 C.3    59  VAL59       0.0266
     58  CG1      148.0370   -1.2650   36.1030 C.3    59  VAL59       0.0020
     59  CG2      147.7080   -2.5980   38.1570 C.3    59  VAL59       0.0020
     60  N        145.9980    1.2890   36.2390 N.am   60  ASP60      -0.1960
     61  CA       145.3930    1.9980   35.1290 C.3    60  ASP60       0.1840
     62  C        146.3990    2.9870   34.5530 C.2    60  ASP60       0.2622
     63  O        147.3180    3.4410   35.2400 O.2    60  ASP60      -0.2715
     64  CB       144.1030    2.6740   35.5920 C.3    60  ASP60       0.1450
     65  CG       143.2490    3.1370   34.4470 C.2    60  ASP60       0.3671
     66  OD1      143.7700    3.8800   33.5890 O.co2  60  ASP60      -0.2456
     67  OD2      142.0600    2.7420   34.3870 O.co2  60  ASP60      -0.2456
     68  N        146.1910    3.3390   33.2850 N.am   61  LEU61      -0.1963
     69  CA       147.1250    4.1870   32.5650 C.3    61  LEU61       0.1728
     70  C        146.7860    5.6630   32.6380 C.2    61  LEU61       0.2616
     71  O        147.6220    6.4900   32.2580 O.2    61  LEU61      -0.2715
     72  CB       147.1520    3.7890   31.0930 C.3    61  LEU61       0.0311
     73  CG       148.3580    2.9850   30.6690 C.3    61  LEU61       0.0022
     74  CD1      148.4390    2.9570   29.1580 C.3    61  LEU61       0.0001
     75  CD2      149.5780    3.5910   31.3010 C.3    61  LEU61       0.0001
     76  N        145.6120    6.0160   33.1380 N.am   62  SER62      -0.1950
     77  CA       145.1730    7.4030   33.1880 C.3    62  SER62       0.1924
     78  C        145.4630    7.9710   34.5700 C.2    62  SER62       0.2314
     79  O        144.8360    7.5770   35.5600 O.2    62  SER62      -0.2863
     80  CB       143.6870    7.5090   32.8470 C.3    62  SER62       0.2116
     81  OG       143.2740    8.8480   32.6420 O.3    62  SER62      -0.2180
     82  N        142.4810    9.6600   36.0830 N.3    65  GLN65      -0.1245
     83  CA       141.5810    8.7900   36.8320 C.3    65  GLN65       0.1566
     84  C        142.2080    8.2560   38.1170 C.2    65  GLN65       0.2260
     85  O        141.5230    8.1430   39.1360 O.2    65  GLN65      -0.2867
     86  CB       141.1310    7.6460   35.9410 C.3    65  GLN65       0.0367
     87  CG       140.7380    8.1310   34.5910 C.3    65  GLN65       0.0905
     88  CD       139.3680    7.6750   34.1950 C.2    65  GLN65       0.2608
     89  OE1      138.3630    8.2500   34.6120 O.2    65  GLN65      -0.2717
     90  NE2      139.3130    6.6320   33.3740 N.am   65  GLN65      -0.0878
     91  N        150.2840    2.9790   35.8970 N.3    86  CYS86      -0.1221
     92  CA       151.2830    2.2340   35.1570 C.3    86  CYS86       0.1808
     93  C        150.5070    1.4750   34.0990 C.2    86  CYS86       0.2602
     94  O        149.3080    1.7020   33.9090 O.2    86  CYS86      -0.2717
     95  CB       152.1030    1.3070   36.0540 C.3    86  CYS86       0.0970
     96  SG       151.1680   -0.0630   36.7240 S.3    86  CYS86      -0.0800
     97  N        151.1850    0.5800   33.4070 N.am   87  SER87      -0.1938
     98  CA       150.5840   -0.2010   32.3480 C.3    87  SER87       0.2055
     99  C        150.5220   -1.6710   32.7550 C.2    87  SER87       0.2642
    100  O        151.2160   -2.1170   33.6780 O.2    87  SER87      -0.2714
    101  CB       151.3720   -0.0100   31.0460 C.3    87  SER87       0.2130
    102  OG       151.1800   -1.0910   30.1590 O.3    87  SER87      -0.2179
    103  N        149.5960   -2.4030   32.1220 N.am   88  ILE88      -0.1977
    104  CA       149.5110   -3.8440   32.3510 C.3    88  ILE88       0.1596
    105  C        150.8670   -4.4790   32.0800 C.2    88  ILE88       0.2287
    106  O        151.2630   -5.4480   32.7450 O.2    88  ILE88      -0.2864
    107  CB       148.3790   -4.4690   31.4930 C.3    88  ILE88       0.0276
    108  CG1      147.0070   -3.9970   31.9770 C.3    88  ILE88       0.0022
    109  CG2      148.4060   -5.9950   31.5250 C.3    88  ILE88       0.0022
    110  CD1      145.8890   -4.1810   30.9590 C.3    88  ILE88       0.0001
    111  N        137.7750   -5.9490   32.5540 N.3   104  HIS104     -0.1226
    112  CA       136.4670   -5.6530   31.9800 C.3   104  HIS104      0.1752
    113  C        136.6110   -4.6810   30.8200 C.2   104  HIS104      0.2597
    114  O        137.0300   -3.5430   31.0100 O.2   104  HIS104     -0.2718
    115  CB       135.5360   -5.0820   33.0420 C.3   104  HIS104      0.0759
    116  CG       134.1430   -4.8410   32.5550 C.ar  104  HIS104      0.0818
    117  ND1      133.3110   -5.8600   32.1460 N.ar  104  HIS104     -0.2268
    118  CD2      133.4340   -3.6980   32.4150 C.ar  104  HIS104      0.1154
    119  CE1      132.1500   -5.3550   31.7730 C.ar  104  HIS104      0.1986
    120  NE2      132.1990   -4.0440   31.9240 N.ar  104  HIS104     -0.2212
    121  N        136.2810   -5.1290   29.6180 N.am  105  GLY105     -0.1942
    122  CA       136.1580   -4.1940   28.5110 C.3   105  GLY105      0.2014
    123  C        137.4330   -3.4860   28.1020 C.2   105  GLY105      0.2638
    124  O        137.3860   -2.3020   27.7600 O.2   105  GLY105     -0.2714
    125  N        138.5820   -4.1610   28.1700 N.am  106  VAL106     -0.1977
    126  CA       139.8650   -3.5930   27.7670 C.3   106  VAL106      0.1596
    127  C        140.4930   -4.3880   26.6250 C.2   106  VAL106      0.2287
    128  O        140.9540   -3.8130   25.6400 O.2   106  VAL106     -0.2864
    129  CB       140.8440   -3.4250   28.9560 C.3   106  VAL106      0.0276
    130  CG1      140.1590   -2.7970   30.1600 C.3   106  VAL106      0.0022
    131  CG2      141.6200   -4.6330   29.2780 C.3   106  VAL106      0.0022
    132  N        140.4410   -3.4080   23.1220 N.3   109  TRP109     -0.1227
    133  CA       140.8780   -2.0610   22.7890 C.3   109  TRP109      0.1737
    134  C        142.3920   -1.8530   22.8820 C.2   109  TRP109      0.2595
    135  O        142.8510   -0.7080   22.8050 O.2   109  TRP109     -0.2718
    136  CB       140.1310   -1.0620   23.6630 C.3   109  TRP109      0.0564
    137  CG       138.6460   -1.1570   23.4290 C.ar  109  TRP109      0.0003
    138  CD1      137.7180   -1.6980   24.2680 C.ar  109  TRP109      0.0946
    139  CD2      137.9320   -0.7390   22.2580 C.ar  109  TRP109      0.0152
    140  NE1      136.4690   -1.6270   23.6990 N.ar  109  TRP109     -0.2442
    141  CE2      136.5770   -1.0410   22.4650 C.ar  109  TRP109      0.0810
    142  CE3      138.3100   -0.1330   21.0620 C.ar  109  TRP109      0.0012
    143  CZ2      135.6050   -0.7620   21.5250 C.ar  109  TRP109      0.0191
    144  CZ3      137.3480    0.1460   20.1310 C.ar  109  TRP109      0.0001
    145  CH2      136.0090   -0.1680   20.3630 C.ar  109  TRP109      0.0015
    146  N        143.1680   -2.9000   23.1380 N.am  110  VAL110     -0.1966
    147  CA       144.5980   -2.7310   23.3960 C.3   110  VAL110      0.1712
    148  C        145.3860   -3.4070   22.2820 C.2   110  VAL110      0.2458
    149  O        144.8970   -4.3690   21.6680 O.2   110  VAL110     -0.2730
    150  CB       145.0090   -3.3100   24.7620 C.3   110  VAL110      0.0289
    151  CG1      144.4380   -2.4780   25.8910 C.3   110  VAL110      0.0023
    152  CG2      144.5960   -4.7650   24.8680 C.3   110  VAL110      0.0023
    153  N        146.6170   -2.9610   22.0240 N.am  111  PRO111     -0.2727
    154  CA       147.4400   -3.6010   21.0020 C.3   111  PRO111      0.1402
    155  C        147.7490   -5.0380   21.3810 C.2   111  PRO111      0.2269
    156  O        147.7230   -5.4170   22.5530 O.2   111  PRO111     -0.2865
    157  CB       148.7080   -2.7450   21.0020 C.3   111  PRO111      0.0296
    158  CG       148.2440   -1.4170   21.4700 C.3   111  PRO111      0.0237
    159  CD       147.2970   -1.7760   22.5730 C.3   111  PRO111      0.0939
    160  N        149.7380   -5.9030   24.5030 N.3   114  VAL114     -0.1245
    161  CA       149.0750   -5.7940   25.8010 C.3   114  VAL114      0.1561
    162  C        148.1280   -6.9670   26.0100 C.2   114  VAL114      0.2260
    163  O        147.9270   -7.4260   27.1390 O.2   114  VAL114     -0.2867
    164  CB       148.3390   -4.4500   25.9400 C.3   114  VAL114      0.0252
    165  CG1      147.9750   -4.2050   27.4110 C.3   114  VAL114      0.0019
    166  CG2      149.1720   -3.3070   25.3830 C.3   114  VAL114      0.0019
@<TRIPOS>BOND
     1   144   145   ar
     2   144   142   ar
     3   145   143   ar
     4   157   154    1
     5   157   158    1
     6   154   155    1
     7   154   153    1
     8   142   139   ar
     9   155   156    2
    10   158   159    1
    11   143   141   ar
    12   149   148    2
    13   153   148   am
    14   153   159    1
    15   139   141   ar
    16   139   137   ar
    17   148   147    1
    18   141   140   ar
    19   133   134    1
    20   133   132    1
    21   133   136    1
    22   135   134    2
    23   134   146   am
    24   146   147    1
    25   147   150    1
    26   137   136    1
    27   137   138   ar
    28   140   138   ar
    29   160   161    1
    30   150   152    1
    31   150   151    1
    32   166   164    1
    33   128   127    2
    34   161   164    1
    35   161   162    1
    36   164   165    1
    37   162   163    2
    38   127   126    1
    39   124   123    2
    40   126   125    1
    41   126   129    1
    42   123   125   am
    43   123   122    1
    44   122   121    1
    45   129   131    1
    46   129   130    1
    47    74    73    1
    48   121   113   am
    49   102   101    1
    50    73    72    1
    51    73    75    1
    52   113   114    2
    53   113   112    1
    54   110   108    1
    55   101    98    1
    56    72    69    1
    57   107   109    1
    58   107   108    1
    59   107   104    1
    60   119   120   ar
    61   119   117   ar
    62   120   118   ar
    63   112   111    1
    64   112   115    1
    65   105   104    1
    66   105   106    2
    67   103   104    1
    68   103    99   am
    69   117   116   ar
    70    71    70    2
    71    98    99    1
    72    98    97    1
    73   118   116   ar
    74   116   115    1
    75    69    70    1
    76    69    68    1
    77    70    76   am
    78    81    80    1
    79    99   100    2
    80    80    77    1
    81    12    11    1
    82    76    77    1
    83    77    78    1
    84    68    62   am
    85    90    88   am
    86    97    93   am
    87    66    65   ar
    88     9    11   ar
    89     9     7   ar
    90    25    24    2
    91    31    30    1
    92    31    32    1
    93    11    10   ar
    94    94    93    2
    95    26    27    1
    96    26    23    1
    97    29    27    1
    98    93    92    1
    99    33    32    2
   100    88    87    1
   101    88    89    2
   102    24    30   am
   103    24    23    1
   104    27    28    1
   105    67    65   ar
   106     7     6   ar
   107    65    64    1
   108    62    61    1
   109    62    63    2
   110    78    79    2
   111    32    34   am
   112    87    86    1
   113    10     8   ar
   114    23    22    1
   115    61    64    1
   116    61    60    1
   117    92    91    1
   118    92    95    1
   119     6     8   ar
   120     6     5    1
   121    43    42    2
   122    34    35    1
   123    86    83    1
   124    56    55    2
   125    22    15   am
   126    95    96    1
   127    82    83    1
   128    58    57    1
   129     5     2    1
   130    60    55   am
   131    55    54    1
   132    42    41    1
   133    83    84    1
   134    21    19   ar
   135    35    36    1
   136    35    38    1
   137    37    36    2
   138    36    40   am
   139    57    54    1
   140    57    59    1
   141    15    16    2
   142    15    14    1
   143    40    41    1
   144     2     1    1
   145     2     3    1
   146    18    19    1
   147    18    17    1
   148    44    41    1
   149    54    53    1
   150    19    20   ar
   151    52    50   am
   152    84    85    2
   153    38    39    1
   154     3     4    2
   155    14    17    1
   156    14    13    1
   157    50    49    1
   158    50    51    2
   159    49    46    1
   160    46    45    1
   161    46    47    1
   162    47    48    2
