@<TRIPOS>MOLECULE
tmp/5dpfA00.pdb
 206 202 0 0 0
SMALL
GASTEIGER

@<TRIPOS>ATOM
      1  N         13.8820  -46.7130   -1.3650 N.3   111  ASN111     -0.1225
      2  CA        12.6800  -45.9200   -1.5910 C.3   111  ASN111      0.1785
      3  C         12.4090  -44.9330   -0.4470 C.2   111  ASN111      0.2597
      4  O         11.3330  -44.9050    0.1400 O.2   111  ASN111     -0.2718
      5  CB        11.4630  -46.8380   -1.7990 C.3   111  ASN111      0.1169
      6  CG        11.5220  -47.6090   -3.1030 C.2   111  ASN111      0.2627
      7  OD1       11.9200  -47.0750   -4.1370 O.2   111  ASN111     -0.2716
      8  ND2       11.1420  -48.8830   -3.0560 N.am  111  ASN111     -0.0877
      9  N         13.3940  -44.1030   -0.1280 N.am  112  ASN112     -0.1960
     10  CA        13.1890  -43.1280    0.9260 C.3   112  ASN112      0.1819
     11  C         14.3220  -42.1080    0.9150 C.2   112  ASN112      0.2621
     12  O         15.2800  -42.2300    0.1430 O.2   112  ASN112     -0.2715
     13  CB        13.0840  -43.8340    2.2880 C.3   112  ASN112      0.1195
     14  CG        12.1180  -43.1480    3.2580 C.2   112  ASN112      0.2630
     15  OD1       11.7560  -41.9810    3.0980 O.2   112  ASN112     -0.2716
     16  ND2       11.6930  -43.8870    4.2740 N.am  112  ASN112     -0.0877
     17  N         14.1650  -41.0940    1.7530 N.am  113  ALA113     -0.1963
     18  CA        15.1770  -40.0810    2.0110 C.3   113  ALA113      0.1728
     19  C         15.0200  -39.6750    3.4610 C.2   113  ALA113      0.2616
     20  O         13.9360  -39.8630    4.0320 O.2   113  ALA113     -0.2715
     21  CB        14.9670  -38.8860    1.1020 C.3   113  ALA113      0.0334
     22  N         16.0680  -39.1210    4.0710 N.am  114  PHE114     -0.1960
     23  CA        15.9870  -38.7770    5.4920 C.3   114  PHE114      0.1771
     24  C         17.0880  -37.8140    5.8870 C.2   114  PHE114      0.2620
     25  O         18.0700  -37.6310    5.1500 O.2   114  PHE114     -0.2715
     26  CB        16.0090  -40.0230    6.3970 C.3   114  PHE114      0.0574
     27  CG        17.2160  -40.9280    6.2290 C.ar  114  PHE114     -0.0200
     28  CD1       17.2640  -41.8770    5.2150 C.ar  114  PHE114     -0.0042
     29  CD2       18.2520  -40.9010    7.1420 C.ar  114  PHE114     -0.0042
     30  CE1       18.3450  -42.7350    5.0830 C.ar  114  PHE114     -0.0003
     31  CE2       19.3390  -41.7610    7.0030 C.ar  114  PHE114     -0.0003
     32  CZ        19.3750  -42.6750    5.9870 C.ar  114  PHE114     -0.0000
     33  N         16.8990  -37.2130    7.0570 N.am  115  TRP115     -0.1960
     34  CA        17.9040  -36.4380    7.7660 C.3   115  TRP115      0.1771
     35  C         18.3850  -37.3360    8.8990 C.2   115  TRP115      0.2620
     36  O         17.5880  -37.7890    9.7080 O.2   115  TRP115     -0.2715
     37  CB        17.2870  -35.1380    8.2950 C.3   115  TRP115      0.0590
     38  CG        18.1760  -34.3760    9.2170 C.ar  115  TRP115      0.0006
     39  CD1       18.1360  -34.3930   10.5770 C.ar  115  TRP115      0.0946
     40  CD2       19.2540  -33.4940    8.8610 C.ar  115  TRP115      0.0152
     41  NE1       19.1160  -33.5850   11.0970 N.ar  115  TRP115     -0.2442
     42  CE2       19.8170  -33.0130   10.0680 C.ar  115  TRP115      0.0810
     43  CE3       19.7780  -33.0440    7.6470 C.ar  115  TRP115      0.0012
     44  CZ2       20.9010  -32.1240   10.0900 C.ar  115  TRP115      0.0191
     45  CZ3       20.8380  -32.1500    7.6710 C.ar  115  TRP115      0.0001
     46  CH2       21.3850  -31.7010    8.8840 C.ar  115  TRP115      0.0015
     47  N         19.6820  -37.6100    8.9580 N.am  116  ASN116     -0.1958
     48  CA        20.1750  -38.5980    9.9170 C.3   116  ASN116      0.1819
     49  C         20.6640  -38.0040   11.2330 C.2   116  ASN116      0.2621
     50  O         21.3160  -38.6940   12.0180 O.2   116  ASN116     -0.2715
     51  CB        21.2810  -39.4510    9.2900 C.3   116  ASN116      0.1195
     52  CG        22.6300  -38.7560    9.2810 C.2   116  ASN116      0.2630
     53  OD1       22.7250  -37.5270    9.3600 O.2   116  ASN116     -0.2716
     54  ND2       23.6920  -39.5500    9.1520 N.am  116  ASN116     -0.0877
     55  N         20.3370  -36.7290   11.4600 N.am  117  GLY117     -0.1954
     56  CA        20.7950  -35.9910   12.6210 C.3   117  GLY117      0.1869
     57  C         21.9370  -35.0390   12.2890 C.2   117  GLY117      0.2309
     58  O         22.2060  -34.1090   13.0610 O.2   117  GLY117     -0.2863
     59  N          8.6660  -47.7780   -7.8350 N.3   129  THR129     -0.1203
     60  CA         8.0390  -46.9760   -6.8000 C.3   129  THR129      0.1994
     61  C          8.5630  -45.5390   -6.8380 C.2   129  THR129      0.2617
     62  O          7.8060  -44.5880   -6.6840 O.2   129  THR129     -0.2717
     63  CB         8.3220  -47.5730   -5.4190 C.3   129  THR129      0.1784
     64  OG1        7.9730  -48.9660   -5.4260 O.3   129  THR129     -0.2211
     65  CG2        7.5220  -46.8420   -4.3360 C.3   129  THR129      0.0376
     66  N          9.8730  -45.3960   -7.0240 N.am  130  PHE130     -0.1975
     67  CA        10.5280  -44.0940   -7.0530 C.3   130  PHE130      0.1639
     68  C         11.6330  -44.0810   -8.0730 C.2   130  PHE130      0.2290
     69  O         12.2490  -45.1180   -8.3370 O.2   130  PHE130     -0.2864
     70  CB        11.2150  -43.7960   -5.7190 C.3   130  PHE130      0.0560
     71  CG        10.2900  -43.3450   -4.6330 C.ar  130  PHE130     -0.0200
     72  CD1        9.8400  -42.0350   -4.5830 C.ar  130  PHE130     -0.0042
     73  CD2        9.9240  -44.2140   -3.6300 C.ar  130  PHE130     -0.0042
     74  CE1        9.0070  -41.6170   -3.5770 C.ar  130  PHE130     -0.0003
     75  CE2        9.0880  -43.7970   -2.6100 C.ar  130  PHE130     -0.0003
     76  CZ         8.6370  -42.4960   -2.5800 C.ar  130  PHE130     -0.0000
     77  N         15.3050  -39.7390   -5.3280 N.3   133  LEU133     -0.1245
     78  CA        14.3490  -38.8970   -4.6070 C.3   133  LEU133      0.1561
     79  C         14.7600  -37.4310   -4.5360 C.2   133  LEU133      0.2260
     80  O         13.9080  -36.5630   -4.3330 O.2   133  LEU133     -0.2867
     81  CB        14.0340  -39.4540   -3.2150 C.3   133  LEU133      0.0270
     82  CG        13.1070  -40.6790   -3.2080 C.3   133  LEU133      0.0019
     83  CD1       13.8220  -41.9840   -3.5720 C.3   133  LEU133      0.0001
     84  CD2       12.4150  -40.7870   -1.8580 C.3   133  LEU133      0.0001
     85  N         10.7850  -32.7360   -1.7590 N.3   139  VAL139     -0.1245
     86  CA        11.4920  -33.7570   -0.9910 C.3   139  VAL139      0.1561
     87  C         12.7580  -33.1970   -0.3460 C.2   139  VAL139      0.2260
     88  O         12.9710  -33.3740    0.8450 O.2   139  VAL139     -0.2867
     89  CB        11.8520  -34.9820   -1.8720 C.3   139  VAL139      0.0252
     90  CG1       12.6800  -35.9760   -1.0660 C.3   139  VAL139      0.0019
     91  CG2       10.5750  -35.6290   -2.4530 C.3   139  VAL139      0.0019
     92  N         11.7530  -30.8240    2.3080 N.3   142  HIS142     -0.1226
     93  CA        11.2110  -31.6070    3.4240 C.3   142  HIS142      0.1752
     94  C         12.3540  -32.0820    4.3180 C.2   142  HIS142      0.2595
     95  O         12.2990  -31.9470    5.5500 O.2   142  HIS142     -0.2718
     96  CB        10.4110  -32.8020    2.8660 C.3   142  HIS142      0.0759
     97  CG         9.8510  -33.7360    3.9040 C.ar  142  HIS142      0.0818
     98  ND1        8.5000  -33.8380    4.1700 N.ar  142  HIS142     -0.2268
     99  CD2       10.4620  -34.6280    4.7220 C.ar  142  HIS142      0.1154
    100  CE1        8.3070  -34.7500    5.1120 C.ar  142  HIS142      0.1986
    101  NE2        9.4840  -35.2350    5.4710 N.ar  142  HIS142     -0.2212
    102  N         13.3900  -32.6340    3.7040 N.am  143  GLU143     -0.1979
    103  CA        14.4990  -33.1560    4.4810 C.3   143  GLU143      0.1602
    104  C         15.2760  -32.0550    5.2010 C.2   143  GLU143      0.2287
    105  O         15.6020  -32.1940    6.3850 O.2   143  GLU143     -0.2864
    106  CB        15.4560  -33.9830    3.6160 C.3   143  GLU143      0.0415
    107  CG        14.8170  -35.1430    2.8330 C.3   143  GLU143      0.1163
    108  CD        13.8980  -36.0340    3.6430 C.2   143  GLU143      0.3649
    109  OE1       14.1040  -36.1540    4.8580 O.co2 143  GLU143     -0.2457
    110  OE2       12.9490  -36.6060    3.0530 O.co2 143  GLU143     -0.2457
    111  N         13.5970  -30.8740    8.2770 N.3   146  HIS146     -0.1241
    112  CA        13.8000  -31.6790    9.4840 C.3   146  HIS146      0.1621
    113  C         14.9780  -31.1460   10.3150 C.2   146  HIS146      0.2264
    114  O         14.9080  -31.1060   11.5380 O.2   146  HIS146     -0.2867
    115  CB        14.0220  -33.1580    9.1430 C.3   146  HIS146      0.0745
    116  CG        12.7620  -33.9370    8.9090 C.ar  146  HIS146      0.0817
    117  ND1       11.7170  -33.9730    9.8070 N.ar  146  HIS146     -0.2268
    118  CD2       12.3920  -34.7320    7.8780 C.ar  146  HIS146      0.1154
    119  CE1       10.7620  -34.7600    9.3450 C.ar  146  HIS146      0.1986
    120  NE2       11.1440  -35.2350    8.1750 N.ar  146  HIS146     -0.2212
    121  N         10.0460  -37.2110   17.5310 N.3   157  TYR157     -0.1241
    122  CA         9.5350  -37.8710   16.3250 C.3   157  TYR157      0.1605
    123  C          8.6190  -39.0530   16.6470 C.2   157  TYR157      0.2264
    124  O          8.8490  -40.1800   16.2090 O.2   157  TYR157     -0.2867
    125  CB        10.7020  -38.3130   15.4470 C.3   157  TYR157      0.0534
    126  CG        10.3740  -38.4770   13.9810 C.ar  157  TYR157     -0.0201
    127  CD1        9.9390  -37.4120   13.2250 C.ar  157  TYR157     -0.0009
    128  CD2       10.5440  -39.7020   13.3460 C.ar  157  TYR157     -0.0009
    129  CE1        9.6700  -37.5500   11.8950 C.ar  157  TYR157      0.0417
    130  CE2       10.2700  -39.8510   12.0110 C.ar  157  TYR157      0.0417
    131  CZ         9.8320  -38.7770   11.2840 C.ar  157  TYR157      0.1957
    132  OH         9.5860  -38.9430    9.9310 O.3   157  TYR157     -0.2866
    133  N          6.5030  -33.8430   11.0100 N.3   166  GLU166     -0.1245
    134  CA         6.2760  -34.2080    9.6190 C.3   166  GLU166      0.1567
    135  C          5.5230  -33.1460    8.8330 C.2   166  GLU166      0.2260
    136  O          5.9110  -32.8080    7.7120 O.2   166  GLU166     -0.2867
    137  CB         5.5070  -35.5320    9.5340 C.3   166  GLU166      0.0388
    138  CG         6.4160  -36.7350    9.4940 C.3   166  GLU166      0.1160
    139  CD         7.3670  -36.6610    8.3490 C.2   166  GLU166      0.3649
    140  OE1        6.8940  -36.4810    7.2010 O.co2 166  GLU166     -0.2457
    141  OE2        8.5900  -36.7430    8.6080 O.co2 166  GLU166     -0.2457
    142  N          2.8650  -34.0230   -2.2580 N.3   188  ILE188     -0.1245
    143  CA         4.2350  -34.3220   -1.8180 C.3   188  ILE188      0.1561
    144  C          4.8490  -35.4340   -2.6600 C.2   188  ILE188      0.2260
    145  O          4.3070  -36.5360   -2.7310 O.2   188  ILE188     -0.2867
    146  CB         4.2680  -34.7540   -0.3430 C.3   188  ILE188      0.0252
    147  CG1        3.6010  -33.7000    0.5490 C.3   188  ILE188      0.0019
    148  CG2        5.7070  -35.0600    0.1170 C.3   188  ILE188      0.0019
    149  CD1        4.2500  -32.3160    0.5280 C.3   188  ILE188      0.0001
    150  N          7.7430  -39.9400   -7.5780 N.3   193  TYR193     -0.1241
    151  CA         6.9450  -41.1060   -7.2310 C.3   193  TYR193      0.1605
    152  C          6.3480  -41.7580   -8.4740 C.2   193  TYR193      0.2264
    153  O          5.8210  -41.0640   -9.3450 O.2   193  TYR193     -0.2867
    154  CB         5.8330  -40.6820   -6.2710 C.3   193  TYR193      0.0534
    155  CG         5.0020  -41.8100   -5.6960 C.ar  193  TYR193     -0.0201
    156  CD1        5.5880  -42.8520   -4.9980 C.ar  193  TYR193     -0.0009
    157  CD2        3.6180  -41.8170   -5.8380 C.ar  193  TYR193     -0.0009
    158  CE1        4.8190  -43.8780   -4.4570 C.ar  193  TYR193      0.0417
    159  CE2        2.8530  -42.8300   -5.3100 C.ar  193  TYR193      0.0417
    160  CZ         3.4550  -43.8590   -4.6180 C.ar  193  TYR193      0.1957
    161  OH         2.6770  -44.8700   -4.0930 O.3   193  TYR193     -0.2866
    162  N          2.7120  -39.0510   -2.9070 N.3   202  LEU202     -0.1231
    163  CA         2.8440  -39.7930   -1.6580 C.3   202  LEU202      0.1693
    164  C          1.8010  -39.3730   -0.6330 C.2   202  LEU202      0.2591
    165  O          1.3060  -40.1980    0.1310 O.2   202  LEU202     -0.2718
    166  CB         4.2310  -39.5570   -1.0580 C.3   202  LEU202      0.0284
    167  CG         5.4090  -39.8510   -1.9620 C.3   202  LEU202      0.0019
    168  CD1        6.6890  -39.3360   -1.3280 C.3   202  LEU202      0.0001
    169  CD2        5.4700  -41.3340   -2.2230 C.3   202  LEU202      0.0001
    170  N          1.5410  -38.0730   -0.5970 N.am  203  ARG203     -0.1980
    171  CA         0.5830  -37.4560    0.3120 C.3   203  ARG203      0.1597
    172  C          0.0100  -36.2330   -0.3850 C.2   203  ARG203      0.2287
    173  O          0.6480  -35.6640   -1.2710 O.2   203  ARG203     -0.2864
    174  CB         1.2690  -36.9750    1.5940 C.3   203  ARG203      0.0334
    175  CG         1.7630  -38.0650    2.4920 C.3   203  ARG203      0.0492
    176  CD         2.3880  -37.4980    3.7470 C.3   203  ARG203      0.2205
    177  NE         3.6710  -36.8280    3.5680 N.pl3 203  ARG203     -0.0865
    178  CZ         4.8420  -37.4480    3.5710 C.cat 203  ARG203      0.5346
    179  NH1        4.9060  -38.7780    3.6250 N.pl3 203  ARG203      0.1354
    180  NH2        5.9560  -36.7340    3.4880 N.pl3 203  ARG203      0.1354
    181  N          4.6780  -46.6150   12.2510 N.3   226  ASP226     -0.1225
    182  CA         5.1270  -45.3190   11.7580 C.3   226  ASP226      0.1805
    183  C          5.3420  -44.3340   12.9130 C.2   226  ASP226      0.2597
    184  O          4.9310  -43.1740   12.8490 O.2   226  ASP226     -0.2718
    185  CB         4.1050  -44.8030   10.7350 C.3   226  ASP226      0.1424
    186  CG         4.5070  -43.4900   10.0760 C.2   226  ASP226      0.3668
    187  OD1        5.7090  -43.2680    9.8240 O.co2 226  ASP226     -0.2456
    188  OD2        3.5900  -42.7040    9.7790 O.co2 226  ASP226     -0.2456
    189  N          5.9900  -44.8000   13.9780 N.am  227  ASN227     -0.1974
    190  CA         6.2350  -43.9600   15.1520 C.3   227  ASN227      0.1688
    191  C          4.9550  -43.3310   15.7170 C.2   227  ASN227      0.2292
    192  O          4.9510  -42.1890   16.1610 O.2   227  ASN227     -0.2864
    193  CB         7.2830  -42.8890   14.8240 C.3   227  ASN227      0.1181
    194  CG         8.6420  -43.4790   14.5840 C.2   227  ASN227      0.2629
    195  OD1        9.2080  -43.3630   13.4970 O.2   227  ASN227     -0.2716
    196  ND2        9.1760  -44.1220   15.5990 N.am  227  ASN227     -0.0877
    197  N          3.6420  -39.9140    9.7240 N.3   231  HIS231     -0.1241
    198  CA         3.3910  -39.5880    8.3170 C.3   231  HIS231      0.1621
    199  C          1.9180  -39.7160    7.9270 C.2   231  HIS231      0.2264
    200  O          1.5540  -39.4800    6.7660 O.2   231  HIS231     -0.2867
    201  CB         4.2010  -40.5040    7.3880 C.3   231  HIS231      0.0745
    202  CG         5.6820  -40.3490    7.5170 C.ar  231  HIS231      0.0817
    203  ND1        6.4380  -41.1160    8.3740 N.ar  231  HIS231     -0.2268
    204  CD2        6.5480  -39.5070    6.9060 C.ar  231  HIS231      0.1154
    205  CE1        7.7090  -40.7520    8.2880 C.ar  231  HIS231      0.1986
    206  NE2        7.8020  -39.7740    7.4040 N.ar  231  HIS231     -0.2212
@<TRIPOS>BOND
     1   153   152    2
     2   152   151    1
     3    69    68    2
     4    68    67    1
     5    59    60    1
     6   150   151    1
     7   151   154    1
     8    67    66    1
     9    67    70    1
    10    66    61   am
    11    61    60    1
    12    61    62    2
    13    60    63    1
    14   154   155    1
    15   157   155   ar
    16   157   159   ar
    17    70    71    1
    18   155   156   ar
    19    64    63    1
    20    63    65    1
    21    77    78    1
    22   159   160   ar
    23   156   158   ar
    24    71    72   ar
    25    71    73   ar
    26   160   158   ar
    27   160   161    1
    28    78    79    1
    29    78    81    1
    30    72    74   ar
    31    79    80    2
    32     7     6    2
    33    73    75   ar
    34    74    76   ar
    35    83    82    1
    36    81    82    1
    37    82    84    1
    38     6     8   am
    39     6     5    1
    40   162   163    1
    41   145   144    2
    42   144   143    1
    43    75    76   ar
    44    91    89    1
    45   142   143    1
    46   169   167    1
    47   167   168    1
    48   167   166    1
    49    89    90    1
    50    89    86    1
    51   143   146    1
    52     5     2    1
    53    85    86    1
    54   163   166    1
    55   163   164    1
    56     2     1    1
    57     2     3    1
    58   173   172    2
    59    86    87    1
    60   164   170   am
    61   164   165    2
    62   170   171    1
    63     3     9   am
    64     3     4    2
    65   172   171    1
    66    87    88    2
    67   146   148    1
    68   146   147    1
    69     9    10    1
    70    12    11    2
    71   171   174    1
    72   149   147    1
    73    11    10    1
    74    11    17   am
    75    10    13    1
    76    21    18    1
    77   174   175    1
    78    17    18    1
    79    18    19    1
    80    13    14    1
    81    92    93    1
    82   175   176    1
    83   107   106    1
    84   107   108    1
    85    96    93    1
    86    96    97    1
    87   110   108   ar
    88    15    14    2
    89    14    16   am
    90    93    94    1
    91    19    20    2
    92    19    22   am
    93   180   178    1
    94   177   178    2
    95   177   176    1
    96   178   179    1
    97   106   103    1
    98   108   109   ar
    99   102    94   am
   100   102   103    1
   101    97    98   ar
   102    97    99   ar
   103    22    23    1
   104    98   100   ar
   105    94    95    2
   106   103   104    1
   107    99   101   ar
   108    30    28   ar
   109    30    32   ar
   110   100   101   ar
   111    25    24    2
   112   104   105    2
   113    28    27   ar
   114    23    24    1
   115    23    26    1
   116    24    33   am
   117    32    31   ar
   118    27    26    1
   119    27    29   ar
   120   200   199    2
   121   204   206   ar
   122   204   202   ar
   123    31    29   ar
   124    33    34    1
   125   140   139   ar
   126   201   202    1
   127   201   198    1
   128   206   205   ar
   129   202   203   ar
   130    43    45   ar
   131    43    40   ar
   132    45    46   ar
   133   136   135    2
   134    34    37    1
   135    34    35    1
   136   118   120   ar
   137   118   116   ar
   138   199   198    1
   139   120   119   ar
   140   111   112    1
   141   205   203   ar
   142    37    38    1
   143   198   197    1
   144   139   141   ar
   145   139   138    1
   146   135   134    1
   147    40    38   ar
   148    40    42   ar
   149    46    44   ar
   150    35    47   am
   151    35    36    2
   152   116   115    1
   153   116   117   ar
   154    47    48    1
   155   115   112    1
   156    54    52   am
   157    38    39   ar
   158    52    51    1
   159    52    53    2
   160    51    48    1
   161   119   117   ar
   162   112   113    1
   163   138   137    1
   164   137   134    1
   165   134   133    1
   166   188   186   ar
   167   187   186   ar
   168    48    49    1
   169   132   131    1
   170    42    44   ar
   171    42    41   ar
   172   186   185    1
   173   113   114    2
   174    39    41   ar
   175   185   182    1
   176    49    55   am
   177    49    50    2
   178   131   129   ar
   179   131   130   ar
   180    55    56    1
   181   182   181    1
   182   182   183    1
   183   129   127   ar
   184   130   128   ar
   185    57    56    1
   186    57    58    2
   187   184   183    2
   188   183   189   am
   189   127   126   ar
   190   128   126   ar
   191   195   194    2
   192   189   190    1
   193   126   125    1
   194   194   193    1
   195   194   196   am
   196   193   190    1
   197   190   191    1
   198   125   122    1
   199   191   192    2
   200   124   123    2
   201   122   123    1
   202   122   121    1
