@<TRIPOS>MOLECULE
tmp/5dplA00.pdb
 201 196 0 0 0
SMALL
GASTEIGER

@<TRIPOS>ATOM
      1  N         90.4200   -7.4610   23.6700 N.3     3  PRO3       -0.2116
      2  CA        91.5980   -6.8820   24.3280 C.3     3  PRO3        0.1372
      3  C         91.3170   -6.5320   25.7780 C.2     3  PRO3        0.2244
      4  O         90.3450   -5.8300   26.0900 O.2     3  PRO3       -0.2868
      5  CB        91.8640   -5.6120   23.5040 C.3     3  PRO3        0.0268
      6  CG        90.5060   -5.2420   22.9610 C.3     3  PRO3        0.0207
      7  CD        89.8730   -6.5680   22.6330 C.3     3  PRO3        0.0892
      8  N         93.0490   -4.1620   27.7540 N.3     5  PHE5       -0.1241
      9  CA        94.0570   -3.1300   27.5890 C.3     5  PHE5        0.1605
     10  C         93.7610   -1.9320   28.4770 C.2     5  PHE5        0.2264
     11  O         92.6030   -1.5950   28.7410 O.2     5  PHE5       -0.2867
     12  CB        94.1610   -2.6720   26.1200 C.3     5  PHE5        0.0534
     13  CG        95.0530   -3.5410   25.2630 C.ar    5  PHE5       -0.0203
     14  CD1       96.1280   -4.2190   25.8130 C.ar    5  PHE5       -0.0042
     15  CD2       94.8360   -3.6450   23.8990 C.ar    5  PHE5       -0.0042
     16  CE1       96.9570   -5.0060   25.0220 C.ar    5  PHE5       -0.0003
     17  CE2       95.6570   -4.4260   23.1030 C.ar    5  PHE5       -0.0003
     18  CZ        96.7180   -5.1070   23.6640 C.ar    5  PHE5       -0.0000
     19  N         95.7430    2.0850   29.4980 N.3     7  PHE7       -0.1241
     20  CA        96.7320    3.0480   29.0450 C.3     7  PHE7        0.1605
     21  C         96.9680    4.1000   30.1200 C.2     7  PHE7        0.2264
     22  O         96.0180    4.6070   30.7240 O.2     7  PHE7       -0.2867
     23  CB        96.2660    3.6960   27.7410 C.3     7  PHE7        0.0534
     24  CG        95.6290    2.7250   26.7830 C.ar    7  PHE7       -0.0203
     25  CD1       96.3990    2.0300   25.8680 C.ar    7  PHE7       -0.0042
     26  CD2       94.2570    2.5100   26.7970 C.ar    7  PHE7       -0.0042
     27  CE1       95.8160    1.1340   24.9860 C.ar    7  PHE7       -0.0003
     28  CE2       93.6690    1.6070   25.9230 C.ar    7  PHE7       -0.0003
     29  CZ        94.4490    0.9220   25.0140 C.ar    7  PHE7       -0.0000
     30  N         83.2150    6.0110   31.1320 N.3    36  ASP36      -0.1225
     31  CA        83.9710    5.5070   29.9940 C.3    36  ASP36       0.1805
     32  C         82.9980    5.0360   28.9250 C.2    36  ASP36       0.2598
     33  O         82.1350    4.1860   29.1880 O.2    36  ASP36      -0.2718
     34  CB        84.9100    4.3690   30.4020 C.3    36  ASP36       0.1424
     35  CG        86.0060    4.1190   29.3790 C.2    36  ASP36       0.3668
     36  OD1       85.8530    4.5590   28.2200 O.co2  36  ASP36      -0.2456
     37  OD2       87.0220    3.4830   29.7280 O.co2  36  ASP36      -0.2456
     38  N         83.1460    5.5840   27.7220 N.am   37  ILE37      -0.1966
     39  CA        82.2920    5.2350   26.5950 C.3    37  ILE37       0.1727
     40  C         83.0490    4.2490   25.7180 C.2    37  ILE37       0.2617
     41  O         84.2080    4.4860   25.3500 O.2    37  ILE37      -0.2715
     42  CB        81.8600    6.4840   25.8060 C.3    37  ILE37       0.0290
     43  CG1       81.1050    7.4530   26.7160 C.3    37  ILE37       0.0022
     44  CG2       80.9660    6.1030   24.6440 C.3    37  ILE37       0.0023
     45  CD1       80.8720    8.8170   26.0970 C.3    37  ILE37       0.0001
     46  N         82.4000    3.1360   25.3950 N.am   38  GLY38      -0.1940
     47  CA        83.0830    2.0570   24.7080 C.3    38  GLY38       0.2014
     48  C         84.0770    1.3590   25.6070 C.2    38  GLY38       0.2639
     49  O         85.1960    1.0550   25.1730 O.2    38  GLY38      -0.2714
     50  N         83.7030    1.1330   26.8700 N.am   39  CYS39      -0.1953
     51  CA        84.5980    0.4860   27.8240 C.3    39  CYS39       0.1843
     52  C         85.0310   -0.8960   27.3490 C.2    39  CYS39       0.2626
     53  O         86.1500   -1.3350   27.6410 O.2    39  CYS39      -0.2714
     54  CB        83.9250    0.3930   29.1930 C.3    39  CYS39       0.0997
     55  SG        82.3870   -0.5630   29.1820 S.3    39  CYS39      -0.0797
     56  N         84.1550   -1.6090   26.6420 N.am   40  GLY40      -0.1940
     57  CA        84.4710   -2.9900   26.3230 C.3    40  GLY40       0.2014
     58  C         84.4390   -3.8280   27.5860 C.2    40  GLY40       0.2638
     59  O         83.4930   -3.7620   28.3780 O.2    40  GLY40      -0.2714
     60  N         85.4610   -4.6700   27.7530 N.am   41  ILE41      -0.1977
     61  CA        85.6150   -5.4120   29.0030 C.3    41  ILE41       0.1596
     62  C         85.6070   -4.4540   30.1900 C.2    41  ILE41       0.2287
     63  O         84.9960   -4.7340   31.2280 O.2    41  ILE41      -0.2864
     64  CB        86.8880   -6.2800   28.9620 C.3    41  ILE41       0.0276
     65  CG1       87.1730   -6.8900   30.3400 C.3    41  ILE41       0.0022
     66  CG2       88.0740   -5.4800   28.4310 C.3    41  ILE41       0.0022
     67  CD1       88.2010   -8.0110   30.3150 C.3    41  ILE41       0.0001
     68  N         88.5380   -2.8780   31.6660 N.3    43  VAL43      -0.1231
     69  CA        89.6890   -3.0000   32.5580 C.3    43  VAL43       0.1692
     70  C         90.3910   -1.6600   32.7400 C.2    43  VAL43       0.2592
     71  O         91.3280   -1.5410   33.5390 O.2    43  VAL43      -0.2718
     72  CB        90.6810   -4.0580   32.0430 C.3    43  VAL43       0.0266
     73  CG1       90.1840   -5.4550   32.3700 C.3    43  VAL43       0.0020
     74  CG2       90.8880   -3.9020   30.5450 C.3    43  VAL43       0.0020
     75  N         89.9490   -0.6400   32.0090 N.am   44  ASN44      -0.1974
     76  CA        90.5870    0.6630   32.1290 C.3    44  ASN44       0.1688
     77  C         90.1470    1.4030   33.3890 C.2    44  ASN44       0.2292
     78  O         90.9370    2.1680   33.9550 O.2    44  ASN44      -0.2864
     79  CB        90.3020    1.5030   30.8880 C.3    44  ASN44       0.1181
     80  CG        91.4170    2.4790   30.5910 C.2    44  ASN44       0.2629
     81  OD1       92.5070    2.3660   31.1510 O.2    44  ASN44      -0.2716
     82  ND2       91.1600    3.4370   29.7090 N.am   44  ASN44      -0.0877
     83  N         80.3880    1.8340   29.7450 N.3    60  VAL60      -0.1231
     84  CA        79.2410    1.4340   28.9380 C.3    60  VAL60       0.1692
     85  C         79.7610    0.9480   27.5960 C.2    60  VAL60       0.2592
     86  O         80.7850    1.4240   27.0990 O.2    60  VAL60      -0.2718
     87  CB        78.2100    2.5790   28.7400 C.3    60  VAL60       0.0266
     88  CG1       77.6070    3.0330   30.0640 C.3    60  VAL60       0.0020
     89  CG2       78.8520    3.7600   28.0270 C.3    60  VAL60       0.0020
     90  N         79.0270    0.0250   26.9830 N.am   61  ASP61      -0.1960
     91  CA        79.4060   -0.4330   25.6520 C.3    61  ASP61       0.1840
     92  C         78.1680   -0.9610   24.9400 C.2    61  ASP61       0.2622
     93  O         77.1290   -1.2100   25.5560 O.2    61  ASP61      -0.2715
     94  CB        80.5040   -1.5020   25.7120 C.3    61  ASP61       0.1450
     95  CG        81.3040   -1.5930   24.4260 C.2    61  ASP61       0.3671
     96  OD1       80.7780   -2.1380   23.4340 O.co2  61  ASP61      -0.2456
     97  OD2       82.4670   -1.1380   24.4080 O.co2  61  ASP61      -0.2456
     98  N         78.2920   -1.1150   23.6160 N.am   62  LEU62      -0.1963
     99  CA        77.2010   -1.6580   22.8130 C.3    62  LEU62       0.1728
    100  C         77.1520   -3.1760   22.8710 C.2    62  LEU62       0.2616
    101  O         76.0730   -3.7650   22.7340 O.2    62  LEU62      -0.2715
    102  CB        77.3370   -1.2140   21.3560 C.3    62  LEU62       0.0311
    103  CG        76.3230   -1.7820   20.3500 C.3    62  LEU62       0.0022
    104  CD1       75.6030   -0.6880   19.5490 C.3    62  LEU62       0.0001
    105  CD2       77.0120   -2.7640   19.4260 C.3    62  LEU62       0.0001
    106  N         78.2840   -3.8260   23.1110 N.am   63  SER63      -0.1950
    107  CA        78.3290   -5.2780   23.0600 C.3    63  SER63       0.1924
    108  C         77.8790   -5.8380   24.3980 C.2    63  SER63       0.2314
    109  O         78.5360   -5.6180   25.4190 O.2    63  SER63      -0.2863
    110  CB        79.7400   -5.7460   22.7110 C.3    63  SER63       0.2116
    111  OG        79.7080   -6.8290   21.7970 O.3    63  SER63      -0.2180
    112  N         80.8100   -8.3860   25.7620 N.3    66  GLN66      -0.1245
    113  CA        81.8570   -7.6990   26.5120 C.3    66  GLN66       0.1566
    114  C         81.3630   -7.2210   27.8710 C.2    66  GLN66       0.2260
    115  O         82.0130   -7.4590   28.8880 O.2    66  GLN66      -0.2867
    116  CB        82.3910   -6.5210   25.7000 C.3    66  GLN66       0.0367
    117  CG        83.7570   -6.7460   25.1020 C.3    66  GLN66       0.0905
    118  CD        84.0040   -5.8350   23.9260 C.2    66  GLN66       0.2608
    119  OE1       83.0600   -5.3150   23.3290 O.2    66  GLN66      -0.2717
    120  NE2       85.2700   -5.6260   23.5870 N.am   66  GLN66      -0.0878
    121  N         74.5830   -0.0440   26.4160 N.3    87  LEU87      -0.1231
    122  CA        73.7820    1.0620   25.9160 C.3    87  LEU87       0.1693
    123  C         74.3480    1.5360   24.5890 C.2    87  LEU87       0.2593
    124  O         75.4710    1.1980   24.2080 O.2    87  LEU87      -0.2718
    125  CB        73.7630    2.2300   26.9120 C.3    87  LEU87       0.0284
    126  CG        72.6810    2.2910   27.9860 C.3    87  LEU87       0.0019
    127  CD1       73.1100    3.2300   29.1030 C.3    87  LEU87       0.0001
    128  CD2       71.3680    2.7500   27.3780 C.3    87  LEU87       0.0001
    129  N         73.5540    2.3340   23.8890 N.am   88  SER88      -0.1938
    130  CA        74.0150    3.0400   22.7070 C.3    88  SER88       0.2055
    131  C         74.2990    4.4710   23.1200 C.2    88  SER88       0.2642
    132  O         73.5860    5.0320   23.9570 O.2    88  SER88      -0.2714
    133  CB        72.9760    3.0210   21.5870 C.3    88  SER88       0.2130
    134  OG        73.5110    3.6010   20.4090 O.3    88  SER88      -0.2179
    135  N         75.3340    5.0670   22.5250 N.am   89  ILE89      -0.1977
    136  CA        75.7230    6.4120   22.9210 C.3    89  ILE89       0.1596
    137  C         74.5670    7.3870   22.7270 C.2    89  ILE89       0.2287
    138  O         74.5560    8.4690   23.3250 O.2    89  ILE89      -0.2864
    139  CB        76.9970    6.8180   22.1510 C.3    89  ILE89       0.0276
    140  CG1       78.0990    5.7880   22.4080 C.3    89  ILE89       0.0022
    141  CG2       77.4880    8.1820   22.5790 C.3    89  ILE89       0.0022
    142  CD1       78.8830    5.4010   21.1740 C.3    89  ILE89       0.0001
    143  N         88.0320    6.3430   24.1520 N.3   105  HIS105     -0.1226
    144  CA        89.3140    5.9240   23.5990 C.3   105  HIS105      0.1752
    145  C         89.1140    4.9670   22.4330 C.2   105  HIS105      0.2597
    146  O         88.6340    3.8480   22.6300 O.2   105  HIS105     -0.2718
    147  CB        90.1590    5.2720   24.6890 C.3   105  HIS105      0.0759
    148  CG        91.5690    5.0040   24.2710 C.ar  105  HIS105      0.0818
    149  ND1       91.8940    4.0530   23.3280 N.ar  105  HIS105     -0.2268
    150  CD2       92.7390    5.5660   24.6570 C.ar  105  HIS105      0.1154
    151  CE1       93.2030    4.0380   23.1520 C.ar  105  HIS105      0.1986
    152  NE2       93.7400    4.9460   23.9470 N.ar  105  HIS105     -0.2212
    153  N         89.4980    5.3890   21.2300 N.am  106  GLY106     -0.1942
    154  CA        89.3400    4.5750   20.0330 C.3   106  GLY106      0.2014
    155  C         87.9550    4.0310   19.7240 C.2   106  GLY106      0.2638
    156  O         87.7940    2.8300   19.4680 O.2   106  GLY106     -0.2714
    157  N         86.9510    4.9000   19.7520 N.am  107  VAL107     -0.1977
    158  CA        85.6620    4.6630   19.1190 C.3   107  VAL107      0.1596
    159  C         85.4220    5.6610   17.9940 C.2   107  VAL107      0.2287
    160  O         84.9630    5.2930   16.9080 O.2   107  VAL107     -0.2864
    161  CB        84.4900    4.6540   20.1420 C.3   107  VAL107      0.0276
    162  CG1       84.8530    3.9000   21.4360 C.3   107  VAL107      0.0022
    163  CG2       83.8730    6.0090   20.4190 C.3   107  VAL107      0.0022
    164  N         85.7710    4.8320   14.4660 N.3   110  TRP110     -0.1227
    165  CA        85.1390    3.5940   14.0150 C.3   110  TRP110      0.1737
    166  C         83.6290    3.6870   13.8120 C.2   110  TRP110      0.2595
    167  O         82.9980    2.6660   13.5140 O.2   110  TRP110     -0.2718
    168  CB        85.4570    2.4550   14.9860 C.3   110  TRP110      0.0564
    169  CG        86.9070    2.2270   15.1640 C.ar  110  TRP110      0.0003
    170  CD1       87.7830    2.9700   15.8940 C.ar  110  TRP110      0.0946
    171  CD2       87.6690    1.1710   14.5750 C.ar  110  TRP110      0.0152
    172  NE1       89.0450    2.4380   15.8030 N.ar  110  TRP110     -0.2442
    173  CE2       89.0010    1.3320   14.9980 C.ar  110  TRP110      0.0810
    174  CE3       87.3510    0.1000   13.7330 C.ar  110  TRP110      0.0012
    175  CZ2       90.0170    0.4610   14.6080 C.ar  110  TRP110      0.0191
    176  CZ3       88.3570   -0.7610   13.3480 C.ar  110  TRP110      0.0001
    177  CH2       89.6740   -0.5780   13.7840 C.ar  110  TRP110      0.0015
    178  N         83.0220    4.8620   13.9710 N.am  111  VAL111     -0.1980
    179  CA        81.5690    4.9440   14.0130 C.3   111  VAL111      0.1595
    180  C         81.0730    6.0790   13.1210 C.2   111  VAL111      0.2287
    181  O         81.8280    6.9720   12.7290 O.2   111  VAL111     -0.2864
    182  CB        81.0840    5.1190   15.4740 C.3   111  VAL111      0.0276
    183  CG1       81.5500    6.4540   16.0320 C.3   111  VAL111      0.0022
    184  CG2       79.5700    4.9350   15.5960 C.3   111  VAL111      0.0022
    185  N         76.6220    9.1120   15.3720 N.3   115  VAL115     -0.1245
    186  CA        77.0540    8.7460   16.7130 C.3   115  VAL115      0.1561
    187  C         78.3060    9.5390   17.0730 C.2   115  VAL115      0.2260
    188  O         78.5380    9.8640   18.2470 O.2   115  VAL115     -0.2867
    189  CB        77.2720    7.2250   16.7970 C.3   115  VAL115      0.0252
    190  CG1       77.7020    6.8240   18.2000 C.3   115  VAL115      0.0019
    191  CG2       76.0190    6.4790   16.3370 C.3   115  VAL115      0.0019
    192  N         93.1680   -6.0400   14.3050 N.3   209  HIS209     -0.1241
    193  CA        92.1100   -5.0720   14.5990 C.3   209  HIS209      0.1621
    194  C         92.1200   -3.9120   13.6060 C.2   209  HIS209      0.2264
    195  O         91.1860   -3.7410   12.8150 O.2   209  HIS209     -0.2867
    196  CB        92.2630   -4.5660   16.0390 C.3   209  HIS209      0.0745
    197  CG        91.2280   -3.5650   16.4460 C.ar  209  HIS209      0.0817
    198  ND1       89.8760   -3.8300   16.3970 N.ar  209  HIS209     -0.2268
    199  CD2       91.3480   -2.3020   16.9210 C.ar  209  HIS209      0.1154
    200  CE1       89.2080   -2.7710   16.8190 C.ar  209  HIS209      0.1986
    201  NE2       90.0770   -1.8310   17.1440 N.ar  209  HIS209     -0.2212
@<TRIPOS>BOND
     1   181   180    2
     2   195   194    2
     3   180   179    1
     4   176   174   ar
     5   176   177   ar
     6   167   166    2
     7   194   193    1
     8   174   171   ar
     9   177   175   ar
    10   166   178   am
    11   166   165    1
    12   178   179    1
    13   179   182    1
    14   165   164    1
    15   165   168    1
    16   192   193    1
    17   171   173   ar
    18   171   169   ar
    19   193   196    1
    20   175   173   ar
    21   168   169    1
    22   173   172   ar
    23   169   170   ar
    24   185   186    1
    25   182   184    1
    26   182   183    1
    27   172   170   ar
    28   196   197    1
    29   191   189    1
    30   198   197   ar
    31   198   200   ar
    32   197   199   ar
    33   186   189    1
    34   186   187    1
    35   189   190    1
    36   200   201   ar
    37   160   159    2
    38   199   201   ar
    39   187   188    2
    40   159   158    1
    41   158   157    1
    42   158   161    1
    43   105   103    1
    44   156   155    2
    45   104   103    1
    46   155   157   am
    47   155   154    1
    48   154   153    1
    49   161   163    1
    50   161   162    1
    51   103   102    1
    52   134   133    1
    53   142   140    1
    54   153   145   am
    55   102    99    1
    56   133   130    1
    57   111   110    1
    58   139   140    1
    59   139   141    1
    60   139   136    1
    61   145   146    2
    62   145   144    1
    63   135   136    1
    64   135   131   am
    65     7     6    1
    66     7     1    1
    67   130   131    1
    68   130   129    1
    69   110   107    1
    70   137   136    1
    71   137   138    2
    72   101   100    2
    73    99   100    1
    74    99    98    1
    75   100   106   am
    76     6     5    1
    77   107   106    1
    78   107   108    1
    79    17    18   ar
    80    17    15   ar
    81   131   132    2
    82   151   149   ar
    83   151   152   ar
    84   149   148   ar
    85   119   118    2
    86    96    95   ar
    87     5     2    1
    88   120   118   am
    89   144   143    1
    90   144   147    1
    91    98    92   am
    92    18    16   ar
    93     1     2    1
    94   129   123   am
    95    15    13   ar
    96   118   117    1
    97   152   150   ar
    98   124   123    2
    99   148   150   ar
   100   148   147    1
   101     2     3    1
   102   108   109    2
   103    97    95   ar
   104    95    94    1
   105   123   122    1
   106    44    42    1
   107    47    46    1
   108    47    48    1
   109    92    93    2
   110    92    91    1
   111    27    29   ar
   112    27    25   ar
   113    29    28   ar
   114    16    14   ar
   115   117   116    1
   116    49    48    2
   117    13    14   ar
   118    13    12    1
   119    41    40    2
   120    46    40   am
   121    48    50   am
   122    91    94    1
   123    91    90    1
   124   116   113    1
   125    40    39    1
   126   112   113    1
   127     3     4    2
   128    42    39    1
   129    42    43    1
   130    25    24   ar
   131   122   121    1
   132   122   125    1
   133    28    26   ar
   134    45    43    1
   135    12     9    1
   136    57    56    1
   137    57    58    1
   138   113   114    1
   139    39    38    1
   140    56    52   am
   141    24    26   ar
   142    24    23    1
   143    50    51    1
   144   125   126    1
   145    90    85   am
   146    86    85    2
   147    52    53    2
   148    52    51    1
   149   128   126    1
   150    58    60   am
   151    58    59    2
   152     9     8    1
   153     9    10    1
   154    85    84    1
   155    38    32   am
   156    23    20    1
   157    60    61    1
   158    51    54    1
   159   114   115    2
   160   126   127    1
   161    89    87    1
   162    36    35   ar
   163    66    64    1
   164    10    11    2
   165    87    84    1
   166    87    88    1
   167    32    33    2
   168    32    31    1
   169    84    83    1
   170    64    61    1
   171    64    65    1
   172    61    62    1
   173    20    19    1
   174    20    21    1
   175    55    54    1
   176    35    37   ar
   177    35    34    1
   178    82    80   am
   179    31    34    1
   180    31    30    1
   181    21    22    2
   182    62    63    2
   183    67    65    1
   184    74    72    1
   185    80    79    1
   186    80    81    2
   187    79    76    1
   188    68    69    1
   189    75    76    1
   190    75    70   am
   191    72    73    1
   192    72    69    1
   193    76    77    1
   194    69    70    1
   195    70    71    2
   196    77    78    2
