@<TRIPOS>MOLECULE
tmp/5dpwG00.pdb
 60 59 0 0 0
SMALL
GASTEIGER

@<TRIPOS>ATOM
      1  N        -38.5400 -106.7980   27.8110 N.3    48  PHE48      -0.1227
      2  CA       -38.7620 -107.3030   26.4640 C.3    48  PHE48       0.1736
      3  C        -38.7100 -108.8220   26.4430 C.2    48  PHE48       0.2595
      4  O        -37.8570 -109.4360   27.0870 O.2    48  PHE48      -0.2718
      5  CB       -37.7200 -106.7350   25.5010 C.3    48  PHE48       0.0547
      6  CG       -37.7820 -105.2430   25.3460 C.ar   48  PHE48      -0.0202
      7  CD1      -37.3980 -104.4060   26.3800 C.ar   48  PHE48      -0.0042
      8  CD2      -38.2130 -104.6770   24.1590 C.ar   48  PHE48      -0.0042
      9  CE1      -37.4510 -103.0350   26.2370 C.ar   48  PHE48      -0.0003
     10  CE2      -38.2680 -103.3070   24.0090 C.ar   48  PHE48      -0.0003
     11  CZ       -37.8860 -102.4840   25.0490 C.ar   48  PHE48      -0.0000
     12  N        -39.6330 -109.4150   25.6950 N.am   49  LEU49      -0.1966
     13  CA       -39.7080 -110.8600   25.5410 C.3    49  LEU49       0.1728
     14  C        -39.3690 -111.2090   24.0980 C.2    49  LEU49       0.2616
     15  O        -40.1800 -111.0030   23.1940 O.2    49  LEU49      -0.2715
     16  CB       -41.1020 -111.3600   25.9210 C.3    49  LEU49       0.0311
     17  CG       -41.2850 -112.8500   26.2140 C.3    49  LEU49       0.0022
     18  CD1      -40.3420 -113.3320   27.3110 C.3    49  LEU49       0.0001
     19  CD2      -42.7290 -113.1020   26.6060 C.3    49  LEU49       0.0001
     20  N        -38.1660 -111.7350   23.8870 N.am   50  VAL50      -0.1964
     21  CA       -37.5870 -111.8060   22.5510 C.3    50  VAL50       0.1712
     22  C        -37.5200 -113.2470   22.0560 C.2    50  VAL50       0.2458
     23  O        -37.3630 -114.1630   22.8530 O.2    50  VAL50      -0.2730
     24  CB       -36.1610 -111.2080   22.5190 C.3    50  VAL50       0.0289
     25  CG1      -35.7650 -110.8830   21.0990 C.3    50  VAL50       0.0023
     26  CG2      -36.0550 -109.9470   23.3690 C.3    50  VAL50       0.0023
     27  N        -37.6500 -113.4590   20.7350 N.am   51  PRO51      -0.2727
     28  CA       -37.4490 -114.8210   20.2290 C.3    51  PRO51       0.1402
     29  C        -36.0230 -115.3250   20.4350 C.2    51  PRO51       0.2269
     30  O        -35.0800 -114.5340   20.4220 O.2    51  PRO51      -0.2865
     31  CB       -37.7630 -114.6930   18.7350 C.3    51  PRO51       0.0296
     32  CG       -38.6510 -113.5100   18.6320 C.3    51  PRO51       0.0237
     33  CD       -38.1860 -112.5630   19.6950 C.3    51  PRO51       0.0939
     34  N        -33.5650 -114.4480   17.3450 N.3    54  LEU54      -0.1245
     35  CA       -33.2870 -113.0780   16.9280 C.3    54  LEU54       0.1561
     36  C        -31.8390 -112.6870   17.2030 C.2    54  LEU54       0.2260
     37  O        -31.2380 -113.1400   18.1740 O.2    54  LEU54      -0.2867
     38  CB       -34.2280 -112.1040   17.6360 C.3    54  LEU54       0.0270
     39  CG       -34.6210 -110.8880   16.7990 C.3    54  LEU54       0.0019
     40  CD1      -35.6090 -111.2930   15.7130 C.3    54  LEU54       0.0001
     41  CD2      -35.1920 -109.7840   17.6720 C.3    54  LEU54       0.0001
     42  N        -32.5880 -106.9840   17.3020 N.3    59  PHE59      -0.1241
     43  CA       -33.0880 -106.5290   18.5910 C.3    59  PHE59       0.1605
     44  C        -32.7730 -105.0500   18.8080 C.2    59  PHE59       0.2264
     45  O        -33.6310 -104.2850   19.2610 O.2    59  PHE59      -0.2867
     46  CB       -32.4920 -107.3770   19.7180 C.3    59  PHE59       0.0534
     47  CG       -33.0840 -107.0950   21.0690 C.ar   59  PHE59      -0.0203
     48  CD1      -34.4530 -106.9790   21.2320 C.ar   59  PHE59      -0.0042
     49  CD2      -32.2700 -106.9590   22.1780 C.ar   59  PHE59      -0.0042
     50  CE1      -34.9970 -106.7160   22.4730 C.ar   59  PHE59      -0.0003
     51  CE2      -32.8100 -106.7020   23.4230 C.ar   59  PHE59      -0.0003
     52  CZ       -34.1740 -106.5830   23.5710 C.ar   59  PHE59      -0.0000
     53  N        -35.1240 -103.1650   16.8890 N.3    62  ILE62      -0.1245
     54  CA       -36.3890 -103.2280   17.6140 C.3    62  ILE62       0.1561
     55  C        -36.4230 -102.1720   18.7190 C.2    62  ILE62       0.2260
     56  O        -37.4190 -101.4630   18.8730 O.2    62  ILE62      -0.2867
     57  CB       -36.6210 -104.6470   18.2020 C.3    62  ILE62       0.0252
     58  CG1      -37.5460 -105.4580   17.2930 C.3    62  ILE62       0.0019
     59  CG2      -37.2340 -104.5980   19.6010 C.3    62  ILE62       0.0019
     60  CD1      -37.0020 -105.7030   15.9070 C.3    62  ILE62       0.0001
@<TRIPOS>BOND
     1    40    39    1
     2    60    58    1
     3    39    38    1
     4    39    41    1
     5    53    54    1
     6    35    36    1
     7    35    34    1
     8    35    38    1
     9    36    37    2
    10    58    57    1
    11    42    43    1
    12    54    57    1
    13    54    55    1
    14    57    59    1
    15    43    44    1
    16    43    46    1
    17    32    31    1
    18    32    33    1
    19    55    56    2
    20    31    28    1
    21    44    45    2
    22    33    27    1
    23    46    47    1
    24    28    29    1
    25    28    27    1
    26    30    29    2
    27    27    22   am
    28    47    48   ar
    29    47    49   ar
    30    25    24    1
    31    48    50   ar
    32    22    21    1
    33    22    23    2
    34    49    51   ar
    35    50    52   ar
    36    24    21    1
    37    24    26    1
    38    21    20    1
    39    15    14    2
    40    51    52   ar
    41    20    14   am
    42    10     8   ar
    43    10    11   ar
    44    14    13    1
    45     8     6   ar
    46    11     9   ar
    47     6     5    1
    48     6     7   ar
    49     5     2    1
    50    13    12    1
    51    13    16    1
    52    12     3   am
    53    16    17    1
    54    17    19    1
    55    17    18    1
    56     9     7   ar
    57     3     2    1
    58     3     4    2
    59     2     1    1
