@<TRIPOS>MOLECULE
tmp/5dpzA01.pdb
 91 87 0 0 0
SMALL
GASTEIGER

@<TRIPOS>ATOM
      1  N         -7.6990   -6.6520   -1.8050 N.3    13  LEU13      -0.1245
      2  CA        -7.3290   -5.3040   -2.2360 C.3    13  LEU13       0.1561
      3  C         -5.9220   -4.8950   -1.8210 C.2    13  LEU13       0.2260
      4  O         -5.4990   -3.7840   -2.1420 O.2    13  LEU13      -0.2867
      5  CB        -8.3010   -4.2700   -1.6640 C.3    13  LEU13       0.0270
      6  CG        -9.7850   -4.4080   -2.0340 C.3    13  LEU13       0.0019
      7  CD1      -10.5960   -3.3570   -1.2900 C.3    13  LEU13       0.0001
      8  CD2      -10.0270   -4.3020   -3.5340 C.3    13  LEU13       0.0001
      9  N         -5.0750   -4.2610    1.2680 N.3    15  ASP15      -0.1239
     10  CA        -5.2790   -3.1510    2.1970 C.3    15  ASP15       0.1674
     11  C         -4.1390   -3.0470    3.2100 C.2    15  ASP15       0.2266
     12  O         -3.8050   -1.9500    3.6930 O.2    15  ASP15      -0.2867
     13  CB        -6.6310   -3.2650    2.8960 C.3    15  ASP15       0.1410
     14  CG        -7.7820   -2.7730    2.0270 C.2    15  ASP15       0.3668
     15  OD1       -7.6280   -1.7050    1.3910 O.co2  15  ASP15      -0.2456
     16  OD2       -8.8400   -3.4500    1.9670 O.co2  15  ASP15      -0.2456
     17  N         -1.7040    2.1830    3.1230 N.3   223  THR223     -0.1203
     18  CA        -2.1400    1.4320    1.9540 C.3   223  THR223      0.1994
     19  C         -1.8450    2.1460    0.6300 C.2   223  THR223      0.2617
     20  O         -1.3830    1.5270   -0.3290 O.2   223  THR223     -0.2717
     21  CB        -3.6720    1.1680    2.0270 C.3   223  THR223      0.1784
     22  OG1       -4.0180    0.6590    3.3200 O.3   223  THR223     -0.2211
     23  CG2       -4.1140    0.1890    0.9300 C.3   223  THR223      0.0376
     24  N         -2.1700    3.4360    0.5750 N.am  224  LEU224     -0.1979
     25  CA        -2.2200    4.1930   -0.6700 C.3   224  LEU224      0.1596
     26  C         -1.0070    5.1070   -0.8560 C.2   224  LEU224      0.2287
     27  O         -0.1140    5.2130    0.0030 O.2   224  LEU224     -0.2864
     28  CB        -3.5310    4.9840   -0.7560 C.3   224  LEU224      0.0297
     29  CG        -4.8120    4.1550   -0.5550 C.3   224  LEU224      0.0022
     30  CD1       -6.0490    5.0150   -0.7800 C.3   224  LEU224      0.0001
     31  CD2       -4.8440    2.9300   -1.4770 C.3   224  LEU224      0.0001
     32  N         -0.0200    8.9120   -1.3190 N.3   226  TYR226     -0.1241
     33  CA        -0.5250   10.2470   -1.0450 C.3   226  TYR226      0.1605
     34  C          0.5050   11.2840   -1.5100 C.2   226  TYR226      0.2264
     35  O          1.6300   11.3290   -0.9940 O.2   226  TYR226     -0.2867
     36  CB        -0.8250   10.4440    0.4410 C.3   226  TYR226      0.0534
     37  CG        -1.9530    9.5750    0.9390 C.ar  226  TYR226     -0.0201
     38  CD1       -3.2610   10.0390    0.9420 C.ar  226  TYR226     -0.0009
     39  CD2       -1.7160    8.2910    1.4060 C.ar  226  TYR226     -0.0009
     40  CE1       -4.3020    9.2420    1.3750 C.ar  226  TYR226      0.0417
     41  CE2       -2.7360    7.5050    1.8540 C.ar  226  TYR226      0.0417
     42  CZ        -4.0260    7.9660    1.8450 C.ar  226  TYR226      0.1957
     43  OH        -5.0380    7.1390    2.2900 O.3   226  TYR226     -0.2866
     44  N        -17.2140   10.7190   -0.3400 N.3   248  VAL248     -0.1231
     45  CA       -16.4910    9.4600   -0.2300 C.3   248  VAL248      0.1692
     46  C        -15.1470    9.6440    0.4870 C.2   248  VAL248      0.2592
     47  O        -14.6990    8.7490    1.2070 O.2   248  VAL248     -0.2718
     48  CB       -16.3110    8.8110   -1.6190 C.3   248  VAL248      0.0266
     49  CG1      -15.4700    7.5460   -1.5310 C.3   248  VAL248      0.0020
     50  CG2      -17.6860    8.5030   -2.2310 C.3   248  VAL248      0.0020
     51  N        -14.5140   10.8060    0.3090 N.am  249  GLY249     -0.1957
     52  CA       -13.2490   11.1050    0.9700 C.3   249  GLY249      0.1869
     53  C        -12.0240   10.9700    0.0820 C.2   249  GLY249      0.2309
     54  O        -10.9190   10.7160    0.5640 O.2   249  GLY249     -0.2863
     55  N         -8.6630    0.3410   -6.2460 N.3   280  PHE280     -0.1241
     56  CA        -9.0660   -0.1890   -4.9340 C.3   280  PHE280      0.1605
     57  C        -10.5240   -0.5850   -4.8440 C.2   280  PHE280      0.2264
     58  O        -11.0590   -0.7930   -3.7580 O.2   280  PHE280     -0.2867
     59  CB        -8.5880    0.7090   -3.7870 C.3   280  PHE280      0.0534
     60  CG        -7.1600    0.4570   -3.4820 C.ar  280  PHE280     -0.0203
     61  CD1       -6.1800    0.9150   -4.3380 C.ar  280  PHE280     -0.0042
     62  CD2       -6.7990   -0.3780   -2.4410 C.ar  280  PHE280     -0.0042
     63  CE1       -4.8570    0.5980   -4.1310 C.ar  280  PHE280     -0.0003
     64  CE2       -5.4760   -0.6910   -2.2220 C.ar  280  PHE280     -0.0003
     65  CZ        -4.5090   -0.2040   -3.0680 C.ar  280  PHE280     -0.0000
     66  N        -14.7760   -1.1690   -5.7180 N.3   282  PRO282     -0.2102
     67  CA       -15.9920   -0.4020   -5.4480 C.3   282  PRO282      0.1504
     68  C        -15.9790    0.3180   -4.1040 C.2   282  PRO282      0.2575
     69  O        -15.5040   -0.2330   -3.1050 O.2   282  PRO282     -0.2718
     70  CB       -17.0830   -1.4680   -5.5170 C.3   282  PRO282      0.0282
     71  CG       -16.5370   -2.4400   -6.5370 C.3   282  PRO282      0.0208
     72  CD       -15.0780   -2.5150   -6.2370 C.3   282  PRO282      0.0893
     73  N        -16.5330    1.5250   -4.0690 N.am  283  ILE283     -0.1980
     74  CA       -16.5310    2.3090   -2.8350 C.3   283  ILE283      0.1595
     75  C        -17.4090    1.6600   -1.7750 C.2   283  ILE283      0.2287
     76  O        -17.1570    1.8090   -0.5820 O.2   283  ILE283     -0.2864
     77  CB       -16.9710    3.7620   -3.0910 C.3   283  ILE283      0.0276
     78  CG1      -18.3830    3.8150   -3.7030 C.3   283  ILE283      0.0022
     79  CG2      -15.9320    4.4560   -3.9880 C.3   283  ILE283      0.0022
     80  CD1      -18.9580    5.2170   -3.7920 C.3   283  ILE283      0.0001
     81  N        -12.6450    3.2410   -5.8830 N.3   291  PHE291     -0.1241
     82  CA       -11.7920    4.1480   -5.1190 C.3   291  PHE291      0.1605
     83  C        -10.3660    4.1660   -5.6510 C.2   291  PHE291      0.2264
     84  O         -9.7710    3.1230   -5.8910 O.2   291  PHE291     -0.2867
     85  CB       -11.7650    3.7840   -3.6310 C.3   291  PHE291      0.0534
     86  CG       -11.2640    4.8970   -2.7480 C.ar  291  PHE291     -0.0203
     87  CD1      -12.0090    6.0500   -2.5950 C.ar  291  PHE291     -0.0042
     88  CD2      -10.0430    4.8120   -2.1170 C.ar  291  PHE291     -0.0042
     89  CE1      -11.5620    7.0770   -1.8000 C.ar  291  PHE291     -0.0003
     90  CE2       -9.5990    5.8400   -1.3150 C.ar  291  PHE291     -0.0003
     91  CZ       -10.3540    6.9700   -1.1630 C.ar  291  PHE291     -0.0000
@<TRIPOS>BOND
     1    71    72    1
     2    71    70    1
     3    55    56    1
     4    72    66    1
     5    84    83    2
     6    81    82    1
     7    66    67    1
     8    83    82    1
     9    70    67    1
    10    67    68    1
    11    82    85    1
    12    56    57    1
    13    56    59    1
    14    57    58    2
    15    61    63   ar
    16    61    60   ar
    17    63    65   ar
    18    68    73   am
    19    68    69    2
    20    73    74    1
    21    79    77    1
    22    80    78    1
    23    59    60    1
    24    78    77    1
    25    85    86    1
    26     8     6    1
    27    60    62   ar
    28    77    74    1
    29    65    64   ar
    30    74    75    1
    31    86    87   ar
    32    86    88   ar
    33    87    89   ar
    34    62    64   ar
    35     2     3    1
    36     2     1    1
    37     2     5    1
    38    50    48    1
    39     4     3    2
    40    88    90   ar
    41     6     5    1
    42     6     7    1
    43    89    91   ar
    44    75    76    2
    45    48    49    1
    46    48    45    1
    47    34    33    1
    48    34    35    2
    49    31    29    1
    50    32    33    1
    51    90    91   ar
    52    33    36    1
    53    26    25    1
    54    26    27    2
    55    30    29    1
    56    28    25    1
    57    28    29    1
    58    25    24    1
    59    44    45    1
    60    20    19    2
    61    45    46    1
    62    53    54    2
    63    53    52    1
    64    51    46   am
    65    51    52    1
    66    36    37    1
    67    46    47    2
    68    24    19   am
    69    19    18    1
    70    23    21    1
    71    37    38   ar
    72    37    39   ar
    73    38    40   ar
    74     9    10    1
    75    40    42   ar
    76    15    14   ar
    77    39    41   ar
    78    42    41   ar
    79    42    43    1
    80    18    21    1
    81    18    17    1
    82    16    14   ar
    83    21    22    1
    84    14    13    1
    85    10    13    1
    86    10    11    1
    87    11    12    2
