@<TRIPOS>MOLECULE
tmp/5dq0A00.pdb
 108 104 0 0 0
SMALL
GASTEIGER

@<TRIPOS>ATOM
      1  N         18.3530    9.5260    1.1380 N.3    23  TYR23      -0.1241
      2  CA        17.2070    9.5950    2.0270 C.3    23  TYR23       0.1605
      3  C         15.9410    9.0780    1.3030 C.2    23  TYR23       0.2264
      4  O         15.7140    9.4170    0.1640 O.2    23  TYR23      -0.2867
      5  CB        17.0430   11.0280    2.5560 C.3    23  TYR23       0.0534
      6  CG        16.1040   11.0910    3.7300 C.ar   23  TYR23      -0.0201
      7  CD1       16.3140   10.2850    4.8510 C.ar   23  TYR23      -0.0009
      8  CD2       14.9730   11.9220    3.7060 C.ar   23  TYR23      -0.0009
      9  CE1       15.4370   10.3100    5.9170 C.ar   23  TYR23       0.0417
     10  CE2       14.0920   11.9470    4.7680 C.ar   23  TYR23       0.0417
     11  CZ        14.3310   11.1430    5.8670 C.ar   23  TYR23       0.1957
     12  OH        13.4880   11.1570    6.9380 O.3    23  TYR23      -0.2866
     13  N         16.7160   14.2700   -1.5010 N.3    28  TRP28      -0.1241
     14  CA        18.1160   14.5700   -1.1420 C.3    28  TRP28       0.1605
     15  C         19.0680   13.6390   -1.9130 C.2    28  TRP28       0.2264
     16  O         19.9400   12.9850   -1.3150 O.2    28  TRP28      -0.2867
     17  CB        18.3180   14.4400    0.3710 C.3    28  TRP28       0.0550
     18  CG        17.4420   15.3500    1.2130 C.ar   28  TRP28       0.0003
     19  CD1       16.1000   15.1670    1.5280 C.ar   28  TRP28       0.0946
     20  CD2       17.8440   16.5480    1.8630 C.ar   28  TRP28       0.0152
     21  NE1       15.6490   16.2230    2.2950 N.ar   28  TRP28      -0.2442
     22  CE2       16.6950   17.0850    2.5080 C.ar   28  TRP28       0.0810
     23  CE3       19.0370   17.2630    1.9070 C.ar   28  TRP28       0.0012
     24  CZ2       16.7400   18.2570    3.2360 C.ar   28  TRP28       0.0191
     25  CZ3       19.0930   18.4130    2.6270 C.ar   28  TRP28       0.0001
     26  CH2       17.9300   18.9240    3.2780 C.ar   28  TRP28       0.0015
     27  N         21.7880   13.8030    1.0210 N.3    43  THR43      -0.1204
     28  CA        21.7160   13.1950    2.3390 C.3    43  THR43       0.1979
     29  C         21.5670   11.6680    2.2050 C.2    43  THR43       0.2459
     30  O         20.7270   11.1790    1.4270 O.2    43  THR43      -0.2732
     31  CB        20.5560   13.8240    3.1750 C.3    43  THR43       0.1783
     32  OG1       20.8700   15.2090    3.4620 O.3    43  THR43      -0.2211
     33  CG2       20.3560   13.1290    4.4400 C.3    43  THR43       0.0376
     34  N         22.3600   10.8960    2.9830 N.am   44  PRO44      -0.2728
     35  CA        22.1550    9.4490    2.9730 C.3    44  PRO44       0.1401
     36  C         20.8650    8.9840    3.6680 C.2    44  PRO44       0.2269
     37  O         20.1680    9.7980    4.3020 O.2    44  PRO44      -0.2865
     38  CB        23.3440    8.9250    3.7370 C.3    44  PRO44       0.0296
     39  CG        23.7100   10.0430    4.6650 C.3    44  PRO44       0.0237
     40  CD        23.4800   11.2860    3.8730 C.3    44  PRO44       0.0939
     41  N         22.3830    8.5040    9.0610 N.3    47  ASP47      -0.1239
     42  CA        23.5440    9.3350    9.3600 C.3    47  ASP47       0.1674
     43  C         24.5900    8.4560   10.0450 C.2    47  ASP47       0.2266
     44  O         24.4130    7.9930   11.1740 O.2    47  ASP47      -0.2867
     45  CB        23.1740   10.5410   10.2190 C.3    47  ASP47       0.1410
     46  CG        22.2970   11.5400    9.4810 C.2    47  ASP47       0.3668
     47  OD1       22.6080   11.8790    8.3300 O.co2  47  ASP47      -0.2456
     48  OD2       21.2860   12.0010   10.0450 O.co2  47  ASP47      -0.2456
     49  N         16.9960   22.7600    4.0420 N.3    73  SER73      -0.1217
     50  CA        15.8440   22.0800    3.5530 C.3    73  SER73       0.1889
     51  C         14.8180   23.0550    2.9850 C.2    73  SER73       0.2288
     52  O         14.4420   24.0140    3.6800 O.2    73  SER73      -0.2866
     53  CB        15.1860   21.3070    4.6730 C.3    73  SER73       0.2089
     54  OG        13.8980   20.8790    4.3060 O.3    73  SER73      -0.2183
     55  N         11.7940   22.2570    2.3930 N.3    75  GLU75      -0.1231
     56  CA        10.5380   21.9040    3.0530 C.3    75  GLU75       0.1699
     57  C         10.4020   22.4630    4.4730 C.2    75  GLU75       0.2592
     58  O          9.2850   22.8120    4.8720 O.2    75  GLU75      -0.2718
     59  CB        10.3400   20.3720    3.0720 C.3    75  GLU75       0.0402
     60  CG        10.1130   19.7090    1.6980 C.3    75  GLU75       0.1161
     61  CD        11.3220   19.7370    0.7480 C.2    75  GLU75       0.3649
     62  OE1       12.4830   19.5430    1.1900 O.co2  75  GLU75      -0.2457
     63  OE2       11.1090   19.9670   -0.4670 O.co2  75  GLU75      -0.2457
     64  N         11.4960   22.5500    5.2430 N.am   76  THR76      -0.1953
     65  CA        11.4240   22.9390    6.6510 C.3    76  THR76       0.1897
     66  C         12.2690   24.1890    7.0460 C.2    76  THR76       0.2313
     67  O         12.1580   24.6670    8.1740 O.2    76  THR76      -0.2863
     68  CB        11.8560   21.7550    7.5440 C.3    76  THR76       0.1794
     69  OG1       13.2820   21.5540    7.4300 O.3    76  THR76      -0.2208
     70  CG2       11.1210   20.4560    7.1900 C.3    76  THR76       0.0378
     71  N         15.2110   24.1970    8.0300 N.3    78  ASN78      -0.1240
     72  CA        16.2800   23.7050    8.9040 C.3    78  ASN78       0.1653
     73  C         17.5590   23.4470    8.0870 C.2    78  ASN78       0.2266
     74  O         17.4620   23.0430    6.9110 O.2    78  ASN78      -0.2867
     75  CB        15.8240   22.4240    9.5640 C.3    78  ASN78       0.1155
     76  CG        14.6800   22.6700   10.5450 C.2    78  ASN78       0.2627
     77  OD1       14.6380   23.7050   11.2020 O.2    78  ASN78      -0.2716
     78  ND2       13.8140   21.7200   10.6800 N.am   78  ASN78      -0.0877
     79  N         21.4620   21.7030    7.6430 N.3    80  TYR80      -0.1241
     80  CA        22.1870   20.4370    7.9020 C.3    80  TYR80       0.1605
     81  C         23.5840   20.5770    7.3130 C.2    80  TYR80       0.2264
     82  O         23.7290   21.2250    6.2750 O.2    80  TYR80      -0.2867
     83  CB        21.4750   19.2620    7.2430 C.3    80  TYR80       0.0534
     84  CG        20.1070   19.1080    7.7550 C.ar   80  TYR80      -0.0201
     85  CD1       19.0480   19.8140    7.1560 C.ar   80  TYR80      -0.0009
     86  CD2       19.8470   18.3430    8.8830 C.ar   80  TYR80      -0.0009
     87  CE1       17.7820   19.7230    7.6630 C.ar   80  TYR80       0.0417
     88  CE2       18.5670   18.2470    9.4030 C.ar   80  TYR80       0.0417
     89  CZ        17.5390   18.9280    8.7760 C.ar   80  TYR80       0.1957
     90  OH        16.2620   18.8450    9.2860 O.3    80  TYR80      -0.2866
     91  N         23.2210   18.0760   13.1370 N.3   140  SER140     -0.1202
     92  CA        21.8010   17.7680   12.9140 C.3   140  SER140      0.2020
     93  C         21.5940   16.5860   11.9720 C.2   140  SER140      0.2619
     94  O         20.8300   15.6790   12.2500 O.2   140  SER140     -0.2717
     95  CB        21.0230   18.9990   12.4060 C.3   140  SER140      0.2103
     96  OG        19.6260   18.7390   12.4360 O.3   140  SER140     -0.2182
     97  N         22.2900   16.6010   10.8440 N.am  141  GLY141     -0.1942
     98  CA        22.2360   15.4980    9.8890 C.3   141  GLY141      0.2014
     99  C         23.3390   15.6960    8.8520 C.2   141  GLY141      0.2638
    100  O         23.9140   16.7880    8.7020 O.2   141  GLY141     -0.2714
    101  N         23.6530   14.6260    8.1030 N.am  142  ILE142     -0.1977
    102  CA        24.5380   14.7680    6.9500 C.3   142  ILE142      0.1596
    103  C         23.8100   15.4700    5.8150 C.2   142  ILE142      0.2287
    104  O         22.8140   14.9580    5.3310 O.2   142  ILE142     -0.2864
    105  CB        25.0680   13.3910    6.4690 C.3   142  ILE142      0.0276
    106  CG1       25.9710   12.7870    7.5830 C.3   142  ILE142      0.0022
    107  CG2       25.8320   13.5530    5.1660 C.3   142  ILE142      0.0022
    108  CD1       26.3540   11.3140    7.3900 C.3   142  ILE142      0.0001
@<TRIPOS>BOND
     1    15    16    2
     2    15    14    1
     3    13    14    1
     4    14    17    1
     5    63    61   ar
     6     4     3    2
     7    17    18    1
     8    61    62   ar
     9    61    60    1
    10    27    28    1
    11     1     2    1
    12    18    19   ar
    13    18    20   ar
    14     3     2    1
    15    30    29    2
    16    19    21   ar
    17    60    59    1
    18    20    23   ar
    19    20    22   ar
    20    23    25   ar
    21     2     5    1
    22    29    28    1
    23    29    34   am
    24    21    22   ar
    25    28    31    1
    26    55    56    1
    27    22    24   ar
    28     5     6    1
    29    25    26   ar
    30    35    34    1
    31    35    36    1
    32    35    38    1
    33    34    40    1
    34    51    50    1
    35    51    52    2
    36    56    59    1
    37    56    57    1
    38    31    32    1
    39    31    33    1
    40    24    26   ar
    41    50    49    1
    42    50    53    1
    43    36    37    2
    44     8     6   ar
    45     8    10   ar
    46     6     7   ar
    47    38    39    1
    48    40    39    1
    49    54    53    1
    50    57    58    2
    51    57    64   am
    52    10    11   ar
    53     7     9   ar
    54   107   105    1
    55    64    65    1
    56   104   103    2
    57   103   102    1
    58    11     9   ar
    59    11    12    1
    60    82    81    2
    61   105   102    1
    62   105   106    1
    63    65    66    1
    64    65    68    1
    65    74    73    2
    66   102   101    1
    67    66    67    2
    68    85    87   ar
    69    85    84   ar
    70    70    68    1
    71    83    84    1
    72    83    80    1
    73    81    80    1
    74   108   106    1
    75    69    68    1
    76    79    80    1
    77    87    89   ar
    78    84    86   ar
    79    71    72    1
    80    73    72    1
    81   101    99   am
    82    47    46   ar
    83   100    99    2
    84    89    90    1
    85    89    88   ar
    86    99    98    1
    87    86    88   ar
    88    72    75    1
    89    41    42    1
    90    42    43    1
    91    42    45    1
    92    46    48   ar
    93    46    45    1
    94    75    76    1
    95    98    97    1
    96    43    44    2
    97    76    78   am
    98    76    77    2
    99    97    93   am
   100    93    94    2
   101    93    92    1
   102    95    96    1
   103    95    92    1
   104    92    91    1
