@<TRIPOS>MOLECULE
tmp/5dq1A00.pdb
 85 81 0 0 0
SMALL
GASTEIGER

@<TRIPOS>ATOM
      1  N         -7.6860   -6.5210   -1.8280 N.3    13  LEU13      -0.1245
      2  CA        -7.3070   -5.1790   -2.2600 C.3    13  LEU13       0.1561
      3  C         -5.8880   -4.7960   -1.8530 C.2    13  LEU13       0.2260
      4  O         -5.4280   -3.7060   -2.1810 O.2    13  LEU13      -0.2867
      5  CB        -8.2740   -4.1380   -1.6780 C.3    13  LEU13       0.0270
      6  CG        -9.7680   -4.2490   -2.0160 C.3    13  LEU13       0.0019
      7  CD1      -10.5480   -3.1880   -1.2600 C.3    13  LEU13       0.0001
      8  CD2      -10.0030   -4.1070   -3.5080 C.3    13  LEU13       0.0001
      9  N         -5.0530   -4.1400    1.2520 N.3    15  ASP15      -0.1239
     10  CA        -5.2250   -3.0450    2.2080 C.3    15  ASP15       0.1674
     11  C         -4.0740   -2.9450    3.1950 C.2    15  ASP15       0.2266
     12  O         -3.7220   -1.8490    3.6530 O.2    15  ASP15      -0.2867
     13  CB        -6.5510   -3.1910    2.9450 C.3    15  ASP15       0.1410
     14  CG        -7.7100   -2.6380    2.1420 C.2    15  ASP15       0.3668
     15  OD1       -7.5980   -1.4900    1.6550 O.co2  15  ASP15      -0.2456
     16  OD2       -8.7190   -3.3530    1.9720 O.co2  15  ASP15      -0.2456
     17  N         -1.7050    2.1850    3.1780 N.3   223  THR223     -0.1203
     18  CA        -2.1230    1.4740    1.9720 C.3   223  THR223      0.1994
     19  C         -1.7830    2.2390    0.6810 C.2   223  THR223      0.2617
     20  O         -1.3160    1.6650   -0.3000 O.2   223  THR223     -0.2717
     21  CB        -3.6410    1.2560    1.9930 C.3   223  THR223      0.1784
     22  OG1       -4.0350    0.7570    3.2740 O.3   223  THR223     -0.2211
     23  CG2       -4.0870    0.2900    0.9010 C.3   223  THR223      0.0376
     24  N         -2.0830    3.5310    0.6790 N.am  224  LEU224     -0.1979
     25  CA        -2.1510    4.2940   -0.5670 C.3   224  LEU224      0.1596
     26  C         -0.9320    5.1900   -0.7870 C.2   224  LEU224      0.2287
     27  O         -0.0500    5.2850    0.0610 O.2   224  LEU224     -0.2864
     28  CB        -3.4370    5.1260   -0.5920 C.3   224  LEU224      0.0297
     29  CG        -4.7110    4.3040   -0.4170 C.3   224  LEU224      0.0022
     30  CD1       -5.9250    5.1910   -0.6110 C.3   224  LEU224      0.0001
     31  CD2       -4.7640    3.1380   -1.4000 C.3   224  LEU224      0.0001
     32  N        -17.9420   13.4280   -0.3030 N.3   247  SER247     -0.1202
     33  CA       -18.6800   12.4860    0.5330 C.3   247  SER247      0.2020
     34  C        -17.9030   11.1800    0.6960 C.2   247  SER247      0.2619
     35  O        -17.9370   10.5610    1.7470 O.2   247  SER247     -0.2717
     36  CB       -20.0710   12.2190   -0.0390 C.3   247  SER247      0.2103
     37  OG       -19.9910   11.5510   -1.2800 O.3   247  SER247     -0.2182
     38  N        -17.1960   10.7590   -0.3430 N.am  248  VAL248     -0.1965
     39  CA       -16.3980    9.5480   -0.2320 C.3   248  VAL248      0.1727
     40  C        -15.0430    9.8370    0.4280 C.2   248  VAL248      0.2616
     41  O        -14.4750    8.9680    1.0890 O.2   248  VAL248     -0.2715
     42  CB       -16.2390    8.8790   -1.6080 C.3   248  VAL248      0.0290
     43  CG1      -15.4160    7.6190   -1.5000 C.3   248  VAL248      0.0023
     44  CG2      -17.6230    8.5460   -2.1710 C.3   248  VAL248      0.0023
     45  N        -14.5310   11.0540    0.2610 N.am  249  GLY249     -0.1955
     46  CA       -13.2860   11.4590    0.9040 C.3   249  GLY249      0.1869
     47  C        -12.0440   11.2150    0.0600 C.2   249  GLY249      0.2309
     48  O        -10.9670   10.9070    0.5650 O.2   249  GLY249     -0.2863
     49  N         -8.6470    0.4020   -6.2660 N.3   280  PHE280     -0.1241
     50  CA        -9.0000   -0.1600   -4.9580 C.3   280  PHE280      0.1605
     51  C        -10.4570   -0.5760   -4.8600 C.2   280  PHE280      0.2264
     52  O        -10.9570   -0.8120   -3.7810 O.2   280  PHE280     -0.2867
     53  CB        -8.5360    0.7520   -3.8150 C.3   280  PHE280      0.0534
     54  CG        -7.0970    0.5370   -3.5130 C.ar  280  PHE280     -0.0203
     55  CD1       -6.1330    1.0400   -4.3690 C.ar  280  PHE280     -0.0042
     56  CD2       -6.7020   -0.2810   -2.4680 C.ar  280  PHE280     -0.0042
     57  CE1       -4.8000    0.7780   -4.1710 C.ar  280  PHE280     -0.0003
     58  CE2       -5.3670   -0.5480   -2.2620 C.ar  280  PHE280     -0.0003
     59  CZ        -4.4110   -0.0080   -3.1140 C.ar  280  PHE280     -0.0000
     60  N        -14.7550   -1.1330   -5.7560 N.3   282  PRO282     -0.2102
     61  CA       -15.9660   -0.3610   -5.5010 C.3   282  PRO282      0.1504
     62  C        -15.9860    0.3580   -4.1580 C.2   282  PRO282      0.2575
     63  O        -15.5300   -0.1880   -3.1500 O.2   282  PRO282     -0.2718
     64  CB       -17.0730   -1.4310   -5.5710 C.3   282  PRO282      0.0282
     65  CG       -16.5150   -2.4440   -6.5170 C.3   282  PRO282      0.0208
     66  CD       -15.0480   -2.5010   -6.2080 C.3   282  PRO282      0.0893
     67  N        -16.5390    1.5680   -4.1350 N.am  283  ILE283     -0.1980
     68  CA       -16.5430    2.3620   -2.9080 C.3   283  ILE283      0.1595
     69  C        -17.4150    1.7080   -1.8340 C.2   283  ILE283      0.2287
     70  O        -17.1690    1.8570   -0.6240 O.2   283  ILE283     -0.2864
     71  CB       -16.9700    3.8240   -3.1760 C.3   283  ILE283      0.0276
     72  CG1      -18.3540    3.8800   -3.8220 C.3   283  ILE283      0.0022
     73  CG2      -15.9390    4.5040   -4.0810 C.3   283  ILE283      0.0022
     74  CD1      -18.9330    5.2540   -3.8780 C.3   283  ILE283      0.0001
     75  N        -12.6250    3.3580   -5.8260 N.3   291  PHE291     -0.1241
     76  CA       -11.7450    4.2380   -5.0800 C.3   291  PHE291      0.1605
     77  C        -10.3250    4.2310   -5.6250 C.2   291  PHE291      0.2264
     78  O         -9.7630    3.1800   -5.8820 O.2   291  PHE291     -0.2867
     79  CB       -11.7130    3.8410   -3.6140 C.3   291  PHE291      0.0534
     80  CG       -11.2620    4.9570   -2.7030 C.ar  291  PHE291     -0.0203
     81  CD1      -12.0960    6.0300   -2.4430 C.ar  291  PHE291     -0.0042
     82  CD2       -9.9990    4.9460   -2.1420 C.ar  291  PHE291     -0.0042
     83  CE1      -11.6930    7.0550   -1.6160 C.ar  291  PHE291     -0.0003
     84  CE2       -9.5840    5.9600   -1.3130 C.ar  291  PHE291     -0.0003
     85  CZ       -10.4260    7.0260   -1.0530 C.ar  291  PHE291     -0.0000
@<TRIPOS>BOND
     1    65    66    1
     2    65    64    1
     3    49    50    1
     4    66    60    1
     5    78    77    2
     6    75    76    1
     7    60    61    1
     8    77    76    1
     9    64    61    1
    10    61    62    1
    11    76    79    1
    12    50    51    1
    13    50    53    1
    14    51    52    2
    15    55    57   ar
    16    55    54   ar
    17    57    59   ar
    18    62    67   am
    19    62    63    2
    20    67    68    1
    21    73    71    1
    22    74    72    1
    23    72    71    1
    24    53    54    1
    25    79    80    1
    26    54    56   ar
    27     8     6    1
    28    71    68    1
    29    59    58   ar
    30    68    69    1
    31    80    81   ar
    32    80    82   ar
    33    56    58   ar
    34    81    83   ar
    35     2     3    1
    36     2     1    1
    37     2     5    1
    38     4     3    2
    39    44    42    1
    40    82    84   ar
    41     6     5    1
    42     6     7    1
    43    69    70    2
    44    83    85   ar
    45    42    43    1
    46    42    39    1
    47    31    29    1
    48    84    85   ar
    49    37    36    1
    50    26    25    1
    51    26    27    2
    52    30    29    1
    53    28    25    1
    54    28    29    1
    55    25    24    1
    56    38    39    1
    57    38    34   am
    58    32    33    1
    59    20    19    2
    60    39    40    1
    61    36    33    1
    62    47    48    2
    63    47    46    1
    64    45    40   am
    65    45    46    1
    66    40    41    2
    67    33    34    1
    68    24    19   am
    69    19    18    1
    70    34    35    2
    71    23    21    1
    72     9    10    1
    73    15    14   ar
    74    18    21    1
    75    18    17    1
    76    16    14   ar
    77    21    22    1
    78    14    13    1
    79    10    13    1
    80    10    11    1
    81    11    12    2
