@<TRIPOS>MOLECULE
tmp/5dq2A00.pdb
 131 121 0 0 0
SMALL
GASTEIGER

@<TRIPOS>ATOM
      1  N          1.5000   -6.3710   11.3310 N.3    33  ASP33      -0.1239
      2  CA         1.6100   -5.4140   10.2390 C.3    33  ASP33       0.1674
      3  C          2.9540   -4.7000   10.3610 C.2    33  ASP33       0.2266
      4  O          3.1300   -3.8680   11.2460 O.2    33  ASP33      -0.2867
      5  CB         0.4240   -4.4450   10.3280 C.3    33  ASP33       0.1410
      6  CG         0.3170   -3.5000    9.1690 C.2    33  ASP33       0.3668
      7  OD1        1.2430   -3.4280    8.3310 O.co2  33  ASP33      -0.2456
      8  OD2       -0.7330   -2.8090    9.1160 O.co2  33  ASP33      -0.2456
      9  N          5.4610   -2.0030    9.7490 N.3    35  ASP35      -0.1239
     10  CA         5.1190   -0.6150    9.4770 C.3    35  ASP35       0.1674
     11  C          6.3630    0.2650    9.5110 C.2    35  ASP35       0.2266
     12  O          6.8150    0.6770   10.5830 O.2    35  ASP35      -0.2867
     13  CB         4.1090   -0.1220   10.5140 C.3    35  ASP35       0.1410
     14  CG         3.6560    1.3020   10.2700 C.2    35  ASP35       0.3668
     15  OD1        3.9730    1.8490    9.2000 O.co2  35  ASP35      -0.2456
     16  OD2        2.9850    1.8780   11.1570 O.co2  35  ASP35      -0.2456
     17  N          6.4860    3.2140    8.8460 N.3    37  GLY37      -0.1225
     18  CA         6.0500    4.5340    9.2650 C.3    37  GLY37       0.1811
     19  C          5.8400    4.7420   10.7580 C.2    37  GLY37       0.2280
     20  O          5.3700    5.8090   11.1550 O.2    37  GLY37      -0.2866
     21  N         -2.4630    6.8570   14.7950 N.3    79  TYR79      -0.1227
     22  CA        -1.9900    6.7230   13.4220 C.3    79  TYR79       0.1736
     23  C         -2.6810    7.7190   12.4990 C.2    79  TYR79       0.2596
     24  O         -3.6690    8.3690   12.8810 O.2    79  TYR79      -0.2718
     25  CB        -2.1950    5.2850   12.9390 C.3    79  TYR79       0.0548
     26  CG        -1.3810    4.2710   13.7370 C.ar   79  TYR79      -0.0200
     27  CD1       -1.9520    3.5340   14.7670 C.ar   79  TYR79      -0.0009
     28  CD2       -0.0310    4.0730   13.4680 C.ar   79  TYR79      -0.0009
     29  CE1       -1.1930    2.6140   15.5090 C.ar   79  TYR79       0.0417
     30  CE2        0.7250    3.1620   14.1890 C.ar   79  TYR79       0.0417
     31  CZ         0.1430    2.4310   15.2030 C.ar   79  TYR79       0.1957
     32  OH         0.9170    1.5300   15.9110 O.3    79  TYR79      -0.2866
     33  N         -2.1470    7.8380   11.2850 N.am   80  GLY80      -0.1942
     34  CA        -2.6430    8.7930   10.3100 C.3    80  GLY80       0.2014
     35  C         -4.1010    8.5930    9.9340 C.2    80  GLY80       0.2638
     36  O         -4.7710    9.5450    9.5140 O.2    80  GLY80      -0.2714
     37  N         -4.5980    7.3670   10.0900 N.am   81  ASP81      -0.1971
     38  CA        -5.9860    7.0570    9.7550 C.3    81  ASP81       0.1709
     39  C         -6.9250    7.3040   10.9360 C.2    81  ASP81       0.2293
     40  O         -8.1160    7.0150   10.8550 O.2    81  ASP81      -0.2864
     41  CB        -6.1190    5.6040    9.2750 C.3    81  ASP81       0.1436
     42  CG        -5.7460    4.5850   10.3440 C.2    81  ASP81       0.3671
     43  OD1       -5.2480    4.9800   11.4150 O.co2  81  ASP81      -0.2456
     44  OD2       -5.9500    3.3770   10.1010 O.co2  81  ASP81      -0.2456
     45  N         -6.7500    5.9040   13.8880 N.3    83  SER83      -0.1217
     46  CA        -6.7990    4.7690   14.8010 C.3    83  SER83       0.1889
     47  C         -5.7850    4.9600   15.9280 C.2    83  SER83       0.2288
     48  O         -4.9150    5.8420   15.8620 O.2    83  SER83      -0.2866
     49  CB        -6.5440    3.4570   14.0490 C.3    83  SER83       0.2089
     50  OG        -5.2150    3.3400   13.5740 O.3    83  SER83      -0.2183
     51  N         -9.0760   -1.3220   14.7150 N.3   116  PHE116     -0.1241
     52  CA        -8.2420   -2.4730   15.0150 C.3   116  PHE116      0.1605
     53  C         -9.1230   -3.6600   15.3940 C.2   116  PHE116      0.2264
     54  O         -8.9250   -4.7670   14.8960 O.2   116  PHE116     -0.2867
     55  CB        -7.2160   -2.1450   16.1100 C.3   116  PHE116      0.0534
     56  CG        -6.0890   -1.2690   15.6190 C.ar  116  PHE116     -0.0203
     57  CD1       -5.2210   -1.7220   14.6440 C.ar  116  PHE116     -0.0042
     58  CD2       -5.9230    0.0110   16.1020 C.ar  116  PHE116     -0.0042
     59  CE1       -4.2100   -0.9180   14.1720 C.ar  116  PHE116     -0.0003
     60  CE2       -4.9090    0.8130   15.6330 C.ar  116  PHE116     -0.0003
     61  CZ        -4.0560    0.3500   14.6660 C.ar  116  PHE116     -0.0000
     62  N         -5.2310   -8.6760   11.6720 N.3   122  ILE122     -0.1245
     63  CA        -4.0390   -7.9890   12.1570 C.3   122  ILE122      0.1561
     64  C         -3.9800   -8.0640   13.6970 C.2   122  ILE122      0.2260
     65  O         -4.8340   -7.5230   14.3970 O.2   122  ILE122     -0.2867
     66  CB        -4.0010   -6.5290   11.6500 C.3   122  ILE122      0.0252
     67  CG1       -3.7340   -6.5370   10.1430 C.3   122  ILE122      0.0019
     68  CG2       -2.9360   -5.7090   12.4040 C.3   122  ILE122      0.0019
     69  CD1       -3.6880   -5.1770    9.4830 C.3   122  ILE122      0.0001
     70  N          1.1380   -4.4530   15.4190 N.3   125  LEU125     -0.1245
     71  CA         2.0760   -3.7760   14.5240 C.3   125  LEU125      0.1561
     72  C          3.5050   -4.0600   14.9350 C.2   125  LEU125      0.2260
     73  O          3.7820   -4.2680   16.1130 O.2   125  LEU125     -0.2867
     74  CB         1.8460   -2.2600   14.5280 C.3   125  LEU125      0.0270
     75  CG         0.9590   -1.8140   13.3560 C.3   125  LEU125      0.0019
     76  CD1       -0.4930   -2.2400   13.5560 C.3   125  LEU125      0.0001
     77  CD2        1.0540   -0.3490   13.1560 C.3   125  LEU125      0.0001
     78  N          6.5550    4.1410    3.4890 N.3   219  ASP219     -0.1239
     79  CA         5.6860    3.7210    4.5890 C.3   219  ASP219      0.1674
     80  C          4.9040    2.4490    4.2430 C.2   219  ASP219      0.2266
     81  O          3.8400    2.5080    3.6230 O.2   219  ASP219     -0.2867
     82  CB         4.7280    4.8550    4.9630 C.3   219  ASP219      0.1410
     83  CG         3.8630    4.5260    6.1620 C.2   219  ASP219      0.3668
     84  OD1        3.0240    5.3760    6.5230 O.co2 219  ASP219     -0.2456
     85  OD2        4.0200    3.4300    6.7410 O.co2 219  ASP219     -0.2456
     86  N          3.1790    0.6990    6.1280 N.3   221  GLY221     -0.1210
     87  CA         1.9530    0.6180    6.9030 C.3   221  GLY221      0.1956
     88  C          0.7990    1.4460    6.3800 C.2   221  GLY221      0.2613
     89  O         -0.2750    1.4410    6.9610 O.2   221  GLY221     -0.2717
     90  N          1.0280    2.1590    5.2890 N.am  222  THR222     -0.1938
     91  CA        -0.0060    2.9360    4.6100 C.3   222  THR222      0.2028
     92  C         -0.3340    2.2530    3.2930 C.2   222  THR222      0.2642
     93  O          0.5640    1.8880    2.5340 O.2   222  THR222     -0.2714
     94  CB         0.4450    4.3880    4.3650 C.3   222  THR222      0.1808
     95  OG1        0.5350    5.0650    5.6180 O.3   222  THR222     -0.2208
     96  CG2       -0.5310    5.1580    3.4870 C.3   222  THR222      0.0379
     97  N         -1.6220    2.0700    3.0320 N.am  223  THR223     -0.1950
     98  CA        -2.0620    1.3210    1.8610 C.3   223  THR223      0.1897
     99  C         -1.7790    2.0320    0.5440 C.2   223  THR223      0.2313
    100  O         -1.3090    1.4150   -0.4190 O.2   223  THR223     -0.2863
    101  CB        -3.5850    1.0570    1.9290 C.3   223  THR223      0.1794
    102  OG1       -3.9280    0.5540    3.2180 O.3   223  THR223     -0.2208
    103  CG2       -4.0170    0.0640    0.8720 C.3   223  THR223      0.0378
    104  N          0.0130    8.7420   -1.4460 N.3   226  TYR226     -0.1241
    105  CA        -0.4940   10.0880   -1.1810 C.3   226  TYR226      0.1605
    106  C          0.5250   11.1190   -1.6280 C.2   226  TYR226      0.2264
    107  O          1.6340   11.1650   -1.0930 O.2   226  TYR226     -0.2867
    108  CB        -0.8060   10.2860    0.3000 C.3   226  TYR226      0.0534
    109  CG        -1.9310    9.4110    0.8010 C.ar  226  TYR226     -0.0201
    110  CD1       -3.2490    9.8390    0.7460 C.ar  226  TYR226     -0.0009
    111  CD2       -1.6670    8.1600    1.3310 C.ar  226  TYR226     -0.0009
    112  CE1       -4.2720    9.0420    1.2090 C.ar  226  TYR226      0.0417
    113  CE2       -2.6780    7.3550    1.8040 C.ar  226  TYR226      0.0417
    114  CZ        -3.9800    7.7880    1.7410 C.ar  226  TYR226      0.1957
    115  OH        -4.9890    6.9670    2.2080 O.3   226  TYR226     -0.2866
    116  N         -2.6650   15.9610    5.0940 N.3   300  ILE300     -0.1245
    117  CA        -1.8840   14.9890    5.8710 C.3   300  ILE300      0.1561
    118  C         -0.6450   15.6750    6.4150 C.2   300  ILE300      0.2260
    119  O         -0.1800   15.3670    7.5190 O.2   300  ILE300     -0.2867
    120  CB        -1.4210   13.7600    5.0540 C.3   300  ILE300      0.0252
    121  CG1       -2.6140   12.9900    4.5000 C.3   300  ILE300      0.0019
    122  CG2       -0.5620   12.8300    5.9440 C.3   300  ILE300      0.0019
    123  CD1       -2.2240   11.8210    3.6330 C.3   300  ILE300      0.0001
    124  N          3.2030   10.4290    1.2070 N.3   304  ILE304     -0.1245
    125  CA         3.4200    9.0590    1.6770 C.3   304  ILE304      0.1561
    126  C          3.4940    8.0970    0.5080 C.2   304  ILE304      0.2260
    127  O          2.4970    7.8680   -0.1920 O.2   304  ILE304     -0.2867
    128  CB         2.2950    8.5760    2.6280 C.3   304  ILE304      0.0252
    129  CG1        2.0530    9.5620    3.7720 C.3   304  ILE304      0.0019
    130  CG2        2.6430    7.2320    3.2040 C.3   304  ILE304      0.0019
    131  CD1        0.8160    9.2370    4.6230 C.3   304  ILE304      0.0001
@<TRIPOS>BOND
     1   106   105    1
     2   106   107    2
     3   104   105    1
     4   105   108    1
     5   100    99    2
     6   127   126    2
     7   108   109    1
     8   126   125    1
     9    99    98    1
    10   110   109   ar
    11   110   112   ar
    12   109   111   ar
    13   103   101    1
    14   124   125    1
    15   112   114   ar
    16   111   113   ar
    17   125   128    1
    18   114   113   ar
    19   114   115    1
    20    98   101    1
    21    98    97    1
    22   101   102    1
    23    93    92    2
    24   128   130    1
    25   128   129    1
    26    97    92   am
    27    92    91    1
    28    96    94    1
    29    78    79    1
    30    81    80    2
    31   123   121    1
    32   129   131    1
    33    80    79    1
    34    94    91    1
    35    94    95    1
    36   121   120    1
    37    79    82    1
    38    91    90    1
    39    82    83    1
    40   120   117    1
    41   120   122    1
    42   116   117    1
    43    90    88   am
    44   117   118    1
    45    86    87    1
    46    83    84   ar
    47    83    85   ar
    48    88    87    1
    49    88    89    2
    50   118   119    2
    51     7     6   ar
    52    17    18    1
    53     8     6   ar
    54     6     5    1
    55    15    14   ar
    56    18    19    1
    57    41    38    1
    58    41    42    1
    59    10    11    1
    60    10     9    1
    61    10    13    1
    62    69    67    1
    63    11    12    2
    64    36    35    2
    65    38    37    1
    66    38    39    1
    67    35    37   am
    68    35    34    1
    69    44    42   ar
    70    67    66    1
    71     2     5    1
    72     2     3    1
    73     2     1    1
    74    14    13    1
    75    14    16   ar
    76    34    33    1
    77    42    43   ar
    78     3     4    2
    79    19    20    2
    80    40    39    2
    81    33    23   am
    82    66    63    1
    83    66    68    1
    84    62    63    1
    85    63    64    1
    86    23    24    2
    87    23    22    1
    88    25    22    1
    89    25    26    1
    90    77    75    1
    91    75    76    1
    92    75    74    1
    93    22    21    1
    94    28    26   ar
    95    28    30   ar
    96    50    49    1
    97    64    65    2
    98    26    27   ar
    99    45    46    1
   100    49    46    1
   101    59    57   ar
   102    59    61   ar
   103    30    31   ar
   104    71    74    1
   105    71    72    1
   106    71    70    1
   107    57    56   ar
   108    61    60   ar
   109    51    52    1
   110    27    29   ar
   111    46    47    1
   112    54    53    2
   113    72    73    2
   114    52    53    1
   115    52    55    1
   116    31    29   ar
   117    31    32    1
   118    56    58   ar
   119    56    55    1
   120    60    58   ar
   121    48    47    2
