@<TRIPOS>MOLECULE
tmp/5dq4A00.pdb
 106 98 0 0 0
SMALL
GASTEIGER

@<TRIPOS>ATOM
      1  N          1.4100   -6.3520   11.2570 N.3    33  ASP33      -0.1239
      2  CA         1.5270   -5.4130   10.1510 C.3    33  ASP33       0.1674
      3  C          2.8400   -4.6670   10.3150 C.2    33  ASP33       0.2266
      4  O          2.9800   -3.8370   11.2070 O.2    33  ASP33      -0.2867
      5  CB         0.3250   -4.4790   10.2260 C.3    33  ASP33       0.1410
      6  CG         0.2290   -3.4920    9.1010 C.2    33  ASP33       0.3668
      7  OD1        1.1560   -3.3620    8.2860 O.co2  33  ASP33      -0.2456
      8  OD2       -0.8380   -2.8170    9.0820 O.co2  33  ASP33      -0.2456
      9  N          5.3410   -1.9840    9.7790 N.3    35  ASP35      -0.1239
     10  CA         4.9940   -0.5960    9.5190 C.3    35  ASP35       0.1674
     11  C          6.2330    0.2880    9.5810 C.2    35  ASP35       0.2266
     12  O          6.6690    0.6820   10.6590 O.2    35  ASP35      -0.2867
     13  CB         3.9840   -0.1510   10.5670 C.3    35  ASP35       0.1410
     14  CG         3.5470    1.2700   10.3830 C.2    35  ASP35       0.3668
     15  OD1        3.8530    1.8530    9.3290 O.co2  35  ASP35      -0.2456
     16  OD2        2.8600    1.7970   11.2890 O.co2  35  ASP35      -0.2456
     17  N         -2.4870    6.8790   15.0960 N.3    79  TYR79      -0.1227
     18  CA        -1.9940    6.8260   13.7310 C.3    79  TYR79       0.1736
     19  C         -2.6960    7.8410   12.8480 C.2    79  TYR79       0.2596
     20  O         -3.7480    8.3730   13.2070 O.2    79  TYR79      -0.2718
     21  CB        -2.1870    5.4180   13.1800 C.3    79  TYR79       0.0548
     22  CG        -1.4160    4.3640   13.9430 C.ar   79  TYR79      -0.0200
     23  CD1       -2.0460    3.5380   14.8560 C.ar   79  TYR79      -0.0009
     24  CD2       -0.0550    4.1980   13.7380 C.ar   79  TYR79      -0.0009
     25  CE1       -1.3470    2.5640   15.5560 C.ar   79  TYR79       0.0417
     26  CE2        0.6630    3.2400   14.4270 C.ar   79  TYR79       0.0417
     27  CZ         0.0040    2.4220   15.3400 C.ar   79  TYR79       0.1957
     28  OH         0.6730    1.4430   16.0380 O.3    79  TYR79      -0.2866
     29  N         -2.1030    8.0970   11.6880 N.am   80  GLY80      -0.1942
     30  CA        -2.5940    9.1160   10.7790 C.3    80  GLY80       0.2014
     31  C         -4.0120    8.8780   10.2980 C.2    80  GLY80       0.2638
     32  O         -4.7070    9.8200    9.9150 O.2    80  GLY80      -0.2714
     33  N         -4.4450    7.6210   10.3090 N.am   81  ASP81      -0.1971
     34  CA        -5.7920    7.2760    9.8630 C.3    81  ASP81       0.1709
     35  C         -6.8250    7.4120   10.9830 C.2    81  ASP81       0.2293
     36  O         -7.9920    7.0660   10.7970 O.2    81  ASP81      -0.2864
     37  CB        -5.8230    5.8580    9.2830 C.3    81  ASP81       0.1436
     38  CG        -5.5500    4.7900   10.3240 C.2    81  ASP81       0.3671
     39  OD1       -5.1300    5.1430   11.4450 O.co2  81  ASP81      -0.2456
     40  OD2       -5.7530    3.5910   10.0220 O.co2  81  ASP81      -0.2456
     41  N         -6.7990    5.8720   13.9120 N.3    83  SER83      -0.1217
     42  CA        -6.8500    4.7120   14.7990 C.3    83  SER83       0.1889
     43  C         -5.8530    4.8770   15.9310 C.2    83  SER83       0.2288
     44  O         -4.9700    5.7260   15.8700 O.2    83  SER83      -0.2866
     45  CB        -6.5770    3.4250   14.0260 C.3    83  SER83       0.2089
     46  OG        -5.2440    3.3600   13.5580 O.3    83  SER83      -0.2183
     47  N        -11.2490    0.3880   14.5370 N.3   115  SER115     -0.1202
     48  CA       -10.7520   -0.1060   13.2610 C.3   115  SER115      0.2020
     49  C         -9.8370   -1.3080   13.4610 C.2   115  SER115      0.2618
     50  O         -9.8050   -2.1950   12.6210 O.2   115  SER115     -0.2717
     51  CB       -10.0590    0.9940   12.4540 C.3   115  SER115      0.2103
     52  OG        -8.8390    1.3950   13.0400 O.3   115  SER115     -0.2182
     53  N         -9.1100   -1.3570   14.5740 N.am  116  PHE116     -0.1975
     54  CA        -8.2960   -2.5290   14.8700 C.3   116  PHE116      0.1639
     55  C         -9.1870   -3.7110   15.2230 C.2   116  PHE116      0.2290
     56  O         -9.0100   -4.8030   14.6970 O.2   116  PHE116     -0.2864
     57  CB        -7.2840   -2.2270   15.9700 C.3   116  PHE116      0.0560
     58  CG        -6.1650   -1.3400   15.5130 C.ar  116  PHE116     -0.0200
     59  CD1       -5.2770   -1.7820   14.5540 C.ar  116  PHE116     -0.0042
     60  CD2       -6.0030   -0.0590   16.0210 C.ar  116  PHE116     -0.0042
     61  CE1       -4.2560   -0.9750   14.1150 C.ar  116  PHE116     -0.0003
     62  CE2       -4.9670    0.7450   15.5900 C.ar  116  PHE116     -0.0003
     63  CZ        -4.1040    0.2890   14.6270 C.ar  116  PHE116     -0.0000
     64  N        -10.7390   -5.4110   12.2400 N.3   119  ASP119     -0.1239
     65  CA        -9.8720   -6.1260   11.3220 C.3   119  ASP119      0.1674
     66  C         -9.2990   -7.3560   12.0080 C.2   119  ASP119      0.2266
     67  O         -8.2940   -7.2980   12.7020 O.2   119  ASP119     -0.2867
     68  CB        -8.7500   -5.2330   10.8580 C.3   119  ASP119      0.1410
     69  CG        -7.9040   -5.8880    9.8220 C.2   119  ASP119      0.3668
     70  OD1       -8.1710   -7.0580    9.4750 O.co2 119  ASP119     -0.2456
     71  OD2       -6.9510   -5.2420    9.3620 O.co2 119  ASP119     -0.2456
     72  N         -5.2970   -8.6650   11.5140 N.3   122  ILE122     -0.1245
     73  CA        -4.0970   -7.9870   11.9990 C.3   122  ILE122      0.1561
     74  C         -4.0500   -8.1160   13.5110 C.2   122  ILE122      0.2260
     75  O         -4.9190   -7.6080   14.2170 O.2   122  ILE122     -0.2867
     76  CB        -4.0630   -6.5280   11.5160 C.3   122  ILE122      0.0252
     77  CG1       -3.7930   -6.5090   10.0110 C.3   122  ILE122      0.0019
     78  CG2       -2.9920   -5.7360   12.2620 C.3   122  ILE122      0.0019
     79  CD1       -3.8600   -5.1490    9.3650 C.3   122  ILE122      0.0001
     80  N          1.0230   -4.5180   15.3090 N.3   125  LEU125     -0.1245
     81  CA         1.9470   -3.8280   14.4150 C.3   125  LEU125      0.1561
     82  C          3.3680   -4.0860   14.8600 C.2   125  LEU125      0.2260
     83  O          3.6320   -4.2510   16.0490 O.2   125  LEU125     -0.2867
     84  CB         1.6800   -2.3190   14.3890 C.3   125  LEU125      0.0270
     85  CG         0.7320   -1.8450   13.2720 C.3   125  LEU125      0.0019
     86  CD1       -0.6640   -2.3940   13.4830 C.3   125  LEU125      0.0001
     87  CD2        0.6950   -0.3320   13.1900 C.3   125  LEU125      0.0001
     88  N          6.4510    4.2440    3.6180 N.3   219  ASP219     -0.1239
     89  CA         5.5980    3.7750    4.7010 C.3   219  ASP219      0.1674
     90  C          4.8350    2.5150    4.3130 C.2   219  ASP219      0.2266
     91  O          3.7640    2.5690    3.7040 O.2   219  ASP219     -0.2867
     92  CB         4.6230    4.8700    5.1060 C.3   219  ASP219      0.1410
     93  CG         3.8060    4.4920    6.3080 C.2   219  ASP219      0.3668
     94  OD1        2.9420    5.2950    6.7120 O.co2 219  ASP219     -0.2456
     95  OD2        4.0140    3.3790    6.8340 O.co2 219  ASP219     -0.2456
     96  N          3.1720    0.7370    6.1990 N.3   221  GLY221     -0.1210
     97  CA         1.9420    0.6600    6.9710 C.3   221  GLY221      0.1956
     98  C          0.8160    1.5490    6.4830 C.2   221  GLY221      0.2612
     99  O         -0.2380    1.5640    7.1070 O.2   221  GLY221     -0.2717
    100  N          1.0170    2.2470    5.3690 N.am  222  THR222     -0.1952
    101  CA        -0.0270    3.0270    4.7350 C.3   222  THR222      0.1897
    102  C         -0.3560    2.3560    3.4130 C.2   222  THR222      0.2313
    103  O          0.5410    1.9930    2.6680 O.2   222  THR222     -0.2863
    104  CB         0.4260    4.4730    4.5190 C.3   222  THR222      0.1794
    105  OG1        0.4760    5.1250    5.7870 O.3   222  THR222     -0.2208
    106  CG2       -0.5540    5.2530    3.6380 C.3   222  THR222      0.0378
@<TRIPOS>BOND
     1   103   102    2
     2   102   101    1
     3    88    89    1
     4   106   104    1
     5    91    90    2
     6    90    89    1
     7   104   101    1
     8   104   105    1
     9    89    92    1
    10   101   100    1
    11    92    93    1
    12   100    98   am
    13    96    97    1
    14    93    94   ar
    15    93    95   ar
    16    98    97    1
    17    98    99    2
    18     7     6   ar
    19     8     6   ar
    20     6     5    1
    21    37    34    1
    22    37    38    1
    23    15    14   ar
    24    71    69   ar
    25    79    77    1
    26    70    69   ar
    27    10    11    1
    28    10     9    1
    29    10    13    1
    30    11    12    2
    31    69    68    1
    32    34    33    1
    33    34    35    1
    34    32    31    2
    35    77    76    1
    36    40    38   ar
    37     2     5    1
    38     2     3    1
    39     2     1    1
    40    31    33   am
    41    31    30    1
    42     3     4    2
    43    38    39   ar
    44    14    13    1
    45    14    16   ar
    46    30    29    1
    47    36    35    2
    48    68    65    1
    49    65    66    1
    50    65    64    1
    51    72    73    1
    52    76    73    1
    53    76    78    1
    54    29    19   am
    55    73    74    1
    56    66    67    2
    57    51    52    1
    58    51    48    1
    59    50    49    2
    60    19    20    2
    61    19    18    1
    62    21    18    1
    63    21    22    1
    64    87    85    1
    65    48    49    1
    66    48    47    1
    67    85    86    1
    68    85    84    1
    69    49    53   am
    70    74    75    2
    71    46    45    1
    72    18    17    1
    73    24    22   ar
    74    24    26   ar
    75    41    42    1
    76    22    23   ar
    77    45    42    1
    78    61    59   ar
    79    61    63   ar
    80    84    81    1
    81    81    82    1
    82    81    80    1
    83    26    27   ar
    84    59    58   ar
    85    53    54    1
    86    63    62   ar
    87    56    55    2
    88    42    43    1
    89    23    25   ar
    90    82    83    2
    91    54    55    1
    92    54    57    1
    93    27    25   ar
    94    27    28    1
    95    58    57    1
    96    58    60   ar
    97    62    60   ar
    98    44    43    2
