@<TRIPOS>MOLECULE
tmp/5dq5A00.pdb
 95 88 0 0 0
SMALL
GASTEIGER

@<TRIPOS>ATOM
      1  N          1.4580   -6.3890   11.2790 N.3    33  ASP33      -0.1239
      2  CA         1.5280   -5.4660   10.1630 C.3    33  ASP33       0.1674
      3  C          2.8470   -4.7100   10.3020 C.2    33  ASP33       0.2266
      4  O          2.9950   -3.8710   11.1920 O.2    33  ASP33      -0.2867
      5  CB         0.3300   -4.5100   10.2760 C.3    33  ASP33       0.1410
      6  CG         0.2270   -3.5140    9.1470 C.2    33  ASP33       0.3668
      7  OD1        1.1680   -3.3940    8.3390 O.co2  33  ASP33      -0.2456
      8  OD2       -0.8180   -2.8210    9.0910 O.co2  33  ASP33      -0.2456
      9  N          5.3780   -1.9890    9.7190 N.3    35  ASP35      -0.1239
     10  CA         5.0260   -0.6030    9.4560 C.3    35  ASP35       0.1674
     11  C          6.2720    0.2820    9.5060 C.2    35  ASP35       0.2266
     12  O          6.7230    0.6700   10.5860 O.2    35  ASP35      -0.2867
     13  CB         3.9920   -0.1500   10.4890 C.3    35  ASP35       0.1410
     14  CG         3.5630    1.2850   10.3180 C.2    35  ASP35       0.3668
     15  OD1        3.9000    1.8820    9.2870 O.co2  35  ASP35      -0.2456
     16  OD2        2.8870    1.8090   11.2340 O.co2  35  ASP35      -0.2456
     17  N          6.4260    3.2460    8.8660 N.3    37  GLY37      -0.1225
     18  CA         6.0100    4.5770    9.2790 C.3    37  GLY37       0.1811
     19  C          5.7730    4.7910   10.7750 C.2    37  GLY37       0.2280
     20  O          5.3450    5.8690   11.1800 O.2    37  GLY37      -0.2866
     21  N         -2.5210    6.9180   14.9230 N.3    79  TYR79      -0.1227
     22  CA        -2.0480    6.8610   13.5490 C.3    79  TYR79       0.1736
     23  C         -2.8190    7.8390   12.6680 C.2    79  TYR79       0.2596
     24  O         -3.8360    8.3970   13.0890 O.2    79  TYR79      -0.2718
     25  CB        -2.2000    5.4410   13.0260 C.3    79  TYR79       0.0548
     26  CG        -1.4180    4.3900   13.7990 C.ar   79  TYR79      -0.0200
     27  CD1       -2.0510    3.5590   14.7190 C.ar   79  TYR79      -0.0009
     28  CD2       -0.0450    4.2360   13.6090 C.ar   79  TYR79      -0.0009
     29  CE1       -1.3520    2.5940   15.4180 C.ar   79  TYR79       0.0417
     30  CE2        0.6680    3.2750   14.3080 C.ar   79  TYR79       0.0417
     31  CZ         0.0040    2.4490   15.2060 C.ar   79  TYR79       0.1957
     32  OH         0.7170    1.4930   15.9070 O.3    79  TYR79      -0.2866
     33  N         -2.3340    8.0220   11.4410 N.am   80  GLY80      -0.1942
     34  CA        -2.8480    9.0380   10.5380 C.3    80  GLY80       0.2014
     35  C         -4.2790    8.8490   10.0790 C.2    80  GLY80       0.2638
     36  O         -4.8950    9.7870    9.5680 O.2    80  GLY80      -0.2714
     37  N         -4.8060    7.6410   10.2430 N.am   81  ASP81      -0.1971
     38  CA        -6.1870    7.3560    9.8690 C.3    81  ASP81       0.1709
     39  C         -7.1180    7.5460   11.0540 C.2    81  ASP81       0.2293
     40  O         -8.3090    7.2530   10.9690 O.2    81  ASP81      -0.2864
     41  CB        -6.3170    5.9390    9.3090 C.3    81  ASP81       0.1436
     42  CG        -5.9380    4.8700   10.3130 C.2    81  ASP81       0.3671
     43  OD1       -5.4520    5.2110   11.4150 O.co2  81  ASP81      -0.2456
     44  OD2       -6.1210    3.6750    9.9930 O.co2  81  ASP81      -0.2456
     45  N         -6.8390    5.9770   13.9340 N.3    83  SER83      -0.1217
     46  CA        -6.8860    4.8100   14.8100 C.3    83  SER83       0.1889
     47  C         -5.8710    4.9570   15.9400 C.2    83  SER83       0.2288
     48  O         -4.9820    5.7910   15.8780 O.2    83  SER83      -0.2866
     49  CB        -6.6380    3.5140   14.0320 C.3    83  SER83       0.2089
     50  OG        -5.3250    3.4560   13.5270 O.3    83  SER83      -0.2183
     51  N         -9.1460   -1.3560   14.5570 N.3   116  PHE116     -0.1241
     52  CA        -8.3020   -2.5030   14.8760 C.3   116  PHE116      0.1605
     53  C         -9.1680   -3.7020   15.2560 C.2   116  PHE116      0.2264
     54  O         -8.9680   -4.8140   14.7620 O.2   116  PHE116     -0.2867
     55  CB        -7.2990   -2.1650   15.9770 C.3   116  PHE116      0.0534
     56  CG        -6.1750   -1.2740   15.5160 C.ar  116  PHE116     -0.0203
     57  CD1       -5.2870   -1.7120   14.5520 C.ar  116  PHE116     -0.0042
     58  CD2       -6.0090   -0.0000   16.0370 C.ar  116  PHE116     -0.0042
     59  CE1       -4.2540   -0.9070   14.1150 C.ar  116  PHE116     -0.0003
     60  CE2       -4.9730    0.8060   15.6000 C.ar  116  PHE116     -0.0003
     61  CZ        -4.0960    0.3510   14.6440 C.ar  116  PHE116     -0.0000
     62  N          1.0190   -4.5150   15.3360 N.3   125  LEU125     -0.1245
     63  CA         1.9360   -3.8090   14.4380 C.3   125  LEU125      0.1561
     64  C          3.3680   -4.0370   14.8720 C.2   125  LEU125      0.2260
     65  O          3.6420   -4.1920   16.0540 O.2   125  LEU125     -0.2867
     66  CB         1.6560   -2.2970   14.4360 C.3   125  LEU125      0.0270
     67  CG         0.7550   -1.8770   13.2680 C.3   125  LEU125      0.0019
     68  CD1       -0.6710   -2.3950   13.5060 C.3   125  LEU125      0.0001
     69  CD2        0.7830   -0.3930   13.0510 C.3   125  LEU125      0.0001
     70  N          6.4800    4.2120    3.4940 N.3   219  ASP219     -0.1239
     71  CA         5.6380    3.7460    4.5950 C.3   219  ASP219      0.1674
     72  C          4.8540    2.4780    4.2480 C.2   219  ASP219      0.2266
     73  O          3.7920    2.5320    3.6120 O.2   219  ASP219     -0.2867
     74  CB         4.6690    4.8420    5.0220 C.3   219  ASP219      0.1410
     75  CG         3.8800    4.4640    6.2420 C.2   219  ASP219      0.3668
     76  OD1        3.0520    5.2920    6.6780 O.co2 219  ASP219     -0.2456
     77  OD2        4.0910    3.3480    6.7740 O.co2 219  ASP219     -0.2456
     78  N          3.1620    0.7350    6.1360 N.3   221  GLY221     -0.1210
     79  CA         1.9600    0.6440    6.9500 C.3   221  GLY221      0.1956
     80  C          0.8000    1.4850    6.4380 C.2   221  GLY221      0.2613
     81  O         -0.2870    1.4640    7.0200 O.2   221  GLY221     -0.2717
     82  N          1.0290    2.2110    5.3450 N.am  222  THR222     -0.1938
     83  CA        -0.0120    2.9950    4.6900 C.3   222  THR222      0.2028
     84  C         -0.3470    2.3270    3.3580 C.2   222  THR222      0.2642
     85  O          0.5510    1.9870    2.5920 O.2   222  THR222     -0.2714
     86  CB         0.4430    4.4610    4.4850 C.3   222  THR222      0.1808
     87  OG1        0.5040    5.1010    5.7660 O.3   222  THR222     -0.2208
     88  CG2       -0.5510    5.2230    3.6050 C.3   222  THR222      0.0379
     89  N         -1.6360    2.1420    3.0860 N.am  223  THR223     -0.1950
     90  CA        -2.0650    1.4010    1.9000 C.3   223  THR223      0.1897
     91  C         -1.7900    2.1340    0.5850 C.2   223  THR223      0.2313
     92  O         -1.2980    1.5410   -0.3810 O.2   223  THR223     -0.2863
     93  CB        -3.5780    1.0960    1.9640 C.3   223  THR223      0.1794
     94  OG1       -3.9060    0.5570    3.2510 O.3   223  THR223     -0.2208
     95  CG2       -3.9910    0.1110    0.8690 C.3   223  THR223      0.0378
@<TRIPOS>BOND
     1    92    91    2
     2    91    90    1
     3    95    93    1
     4    90    93    1
     5    90    89    1
     6    93    94    1
     7    85    84    2
     8    89    84   am
     9    84    83    1
    10    70    71    1
    11    88    86    1
    12    73    72    2
    13    72    71    1
    14    86    83    1
    15    86    87    1
    16    71    74    1
    17    83    82    1
    18    74    75    1
    19    82    80   am
    20    78    79    1
    21    75    76   ar
    22    75    77   ar
    23    80    79    1
    24    80    81    2
    25     7     6   ar
    26    17    18    1
    27     8     6   ar
    28     6     5    1
    29    18    19    1
    30    15    14   ar
    31    41    38    1
    32    41    42    1
    33    10    11    1
    34    10     9    1
    35    10    13    1
    36    11    12    2
    37    36    35    2
    38    38    37    1
    39    38    39    1
    40    44    42   ar
    41    35    37   am
    42    35    34    1
    43     2     5    1
    44     2     3    1
    45     2     1    1
    46     3     4    2
    47    42    43   ar
    48    14    13    1
    49    14    16   ar
    50    34    33    1
    51    19    20    2
    52    40    39    2
    53    33    23   am
    54    23    24    2
    55    23    22    1
    56    25    22    1
    57    25    26    1
    58    69    67    1
    59    67    68    1
    60    67    66    1
    61    50    49    1
    62    22    21    1
    63    28    26   ar
    64    28    30   ar
    65    26    27   ar
    66    45    46    1
    67    49    46    1
    68    59    57   ar
    69    59    61   ar
    70    30    31   ar
    71    66    63    1
    72    63    64    1
    73    63    62    1
    74    57    56   ar
    75    51    52    1
    76    61    60   ar
    77    27    29   ar
    78    54    53    2
    79    46    47    1
    80    64    65    2
    81    52    53    1
    82    52    55    1
    83    31    29   ar
    84    31    32    1
    85    56    55    1
    86    56    58   ar
    87    60    58   ar
    88    48    47    2
