@<TRIPOS>MOLECULE
tmp/5dq8B01.pdb
 141 140 0 0 0
SMALL
GASTEIGER

@<TRIPOS>ATOM
      1  N         64.8800   20.7060  -23.0210 N.3    48  GLN48      -0.1231
      2  CA        64.3090   20.1120  -24.2210 C.3    48  GLN48       0.1698
      3  C         62.8780   20.5820  -24.5140 C.2    48  GLN48       0.2592
      4  O         62.3440   20.2940  -25.5740 O.2    48  GLN48      -0.2718
      5  CB        64.3400   18.5800  -24.1100 C.3    48  GLN48       0.0381
      6  CG        65.7340   18.0020  -23.8580 C.3    48  GLN48       0.0905
      7  CD        66.2170   17.1000  -24.9740 C.2    48  GLN48       0.2608
      8  OE1       66.4130   15.9060  -24.7650 O.2    48  GLN48      -0.2717
      9  NE2       66.4240   17.6670  -26.1620 N.am   48  GLN48      -0.0878
     10  N         62.2440   21.3060  -23.6010 N.am   49  ILE49      -0.1980
     11  CA        60.8800   21.7270  -23.8620 C.3    49  ILE49       0.1595
     12  C         60.7350   23.2310  -23.6780 C.2    49  ILE49       0.2287
     13  O         59.6230   23.7360  -23.6970 O.2    49  ILE49      -0.2864
     14  CB        59.9120   20.9600  -22.9770 C.3    49  ILE49       0.0276
     15  CG1       60.0430   21.4170  -21.5180 C.3    49  ILE49       0.0022
     16  CG2       60.1980   19.4460  -23.0970 C.3    49  ILE49       0.0022
     17  CD1       59.0960   20.7250  -20.5640 C.3    49  ILE49       0.0001
     18  N         58.5680   25.0640  -26.1520 N.3    52  LYS52      -0.1231
     19  CA        57.1520   24.7330  -26.2370 C.3    52  LYS52       0.1693
     20  C         56.2980   25.5780  -25.3120 C.2    52  LYS52       0.2592
     21  O         55.0840   25.4200  -25.2750 O.2    52  LYS52      -0.2718
     22  CB        56.9460   23.2560  -25.9420 C.3    52  LYS52       0.0285
     23  CG        57.7090   22.3630  -26.9070 C.3    52  LYS52       0.0035
     24  CD        56.9740   21.0760  -27.2300 C.3    52  LYS52       0.0206
     25  CE        57.1040   20.7230  -28.7240 C.3    52  LYS52       0.1093
     26  NZ        58.5280   20.7590  -29.2010 N.3    52  LYS52      -0.1314
     27  N         56.9250   26.4890  -24.5830 N.am   53  PHE53      -0.1976
     28  CA        56.2040   27.3070  -23.6250 C.3    53  PHE53       0.1639
     29  C         56.4930   28.7660  -23.8380 C.2    53  PHE53       0.2290
     30  O         57.3190   29.1050  -24.6670 O.2    53  PHE53      -0.2864
     31  CB        56.5540   26.8380  -22.2150 C.3    53  PHE53       0.0560
     32  CG        55.9630   25.5130  -21.9170 C.ar   53  PHE53      -0.0200
     33  CD1       54.6170   25.4040  -21.6100 C.ar   53  PHE53      -0.0042
     34  CD2       56.7040   24.3650  -22.0660 C.ar   53  PHE53      -0.0042
     35  CE1       54.0310   24.1740  -21.3810 C.ar   53  PHE53      -0.0003
     36  CE2       56.1140   23.1220  -21.8230 C.ar   53  PHE53      -0.0003
     37  CZ        54.7650   23.0450  -21.4910 C.ar   53  PHE53      -0.0000
     38  N         56.6050   17.4650  -15.1820 N.3    74  LEU74      -0.1245
     39  CA        55.9840   17.2830  -16.4960 C.3    74  LEU74       0.1561
     40  C         54.9320   16.1850  -16.4150 C.2    74  LEU74       0.2260
     41  O         55.2200   15.1320  -15.9240 O.2    74  LEU74      -0.2867
     42  CB        57.0100   16.8770  -17.5570 C.3    74  LEU74       0.0270
     43  CG        56.5270   16.5010  -18.9750 C.3    74  LEU74       0.0019
     44  CD1       56.1330   17.6940  -19.7030 C.3    74  LEU74       0.0001
     45  CD2       57.6220   15.8550  -19.7690 C.3    74  LEU74       0.0001
     46  N         52.6190   13.9510  -18.9190 N.3    76  LYS76      -0.1231
     47  CA        52.0500   13.5130  -20.1970 C.3    76  LYS76       0.1693
     48  C         50.6770   12.9280  -19.9720 C.2    76  LYS76       0.2592
     49  O         50.5150   12.0060  -19.1580 O.2    76  LYS76      -0.2718
     50  CB        52.9460   12.4690  -20.8960 C.3    76  LYS76       0.0285
     51  CG        54.3260   13.0230  -21.2330 C.3    76  LYS76       0.0035
     52  CD        55.3650   12.0210  -21.7590 C.3    76  LYS76       0.0206
     53  CE        56.5590   12.7810  -22.3920 C.3    76  LYS76       0.1093
     54  NZ        57.8500   12.0410  -22.4130 N.3    76  LYS76      -0.1314
     55  N         49.7080   13.4350  -20.7110 N.am   77  PHE77      -0.1962
     56  CA        48.3370   12.9230  -20.6820 C.3    77  PHE77       0.1771
     57  C         47.9530   12.2610  -21.9880 C.2    77  PHE77       0.2619
     58  O         48.1390   12.8480  -23.0630 O.2    77  PHE77      -0.2715
     59  CB        47.3130   14.0390  -20.4880 C.3    77  PHE77       0.0574
     60  CG        47.1640   14.5400  -19.0900 C.ar   77  PHE77      -0.0200
     61  CD1       46.8010   13.6970  -18.0570 C.ar   77  PHE77      -0.0042
     62  CD2       47.2670   15.8890  -18.8340 C.ar   77  PHE77      -0.0042
     63  CE1       46.6250   14.1820  -16.7770 C.ar   77  PHE77      -0.0003
     64  CE2       47.0840   16.4030  -17.5540 C.ar   77  PHE77      -0.0003
     65  CZ        46.7590   15.5590  -16.5320 C.ar   77  PHE77      -0.0000
     66  N         47.3540   11.0870  -21.8670 N.am   78  TRP78      -0.1974
     67  CA        46.5440   10.5060  -22.9160 C.3    78  TRP78       0.1640
     68  C         45.0710   10.8230  -22.6500 C.2    78  TRP78       0.2290
     69  O         44.4470   10.2670  -21.7630 O.2    78  TRP78      -0.2864
     70  CB        46.7710    8.9950  -23.0110 C.3    78  TRP78       0.0576
     71  CG        48.1200    8.7000  -23.5030 C.ar   78  TRP78       0.0006
     72  CD1       48.4980    8.5300  -24.8110 C.ar   78  TRP78       0.0946
     73  CD2       49.3030    8.5930  -22.7210 C.ar   78  TRP78       0.0152
     74  NE1       49.8400    8.3260  -24.8710 N.ar   78  TRP78      -0.2442
     75  CE2       50.3620    8.3540  -23.6060 C.ar   78  TRP78       0.0810
     76  CE3       49.5710    8.6720  -21.3490 C.ar   78  TRP78       0.0012
     77  CZ2       51.6700    8.1940  -23.1820 C.ar   78  TRP78       0.0191
     78  CZ3       50.8870    8.4950  -20.9170 C.ar   78  TRP78       0.0001
     79  CH2       51.9140    8.2550  -21.8360 C.ar   78  TRP78       0.0015
     80  N         47.8620   18.2920  -31.3670 N.3   163  LEU163     -0.1231
     81  CA        48.2270   18.4320  -29.9240 C.3   163  LEU163      0.1693
     82  C         49.7790   18.5230  -29.7020 C.2   163  LEU163      0.2591
     83  O         50.2530   18.9070  -28.6560 O.2   163  LEU163     -0.2718
     84  CB        47.6980   17.2580  -29.1610 C.3   163  LEU163      0.0284
     85  CG        46.1870   17.1800  -28.9850 C.3   163  LEU163      0.0019
     86  CD1       45.7950   15.8180  -28.4670 C.3   163  LEU163      0.0001
     87  CD2       45.7320   18.2240  -28.0390 C.3   163  LEU163      0.0001
     88  N         50.5870   18.1530  -30.6830 N.am  164  GLU164     -0.1979
     89  CA        52.0400   18.3390  -30.5240 C.3   164  GLU164      0.1602
     90  C         52.3550   19.8150  -30.2320 C.2   164  GLU164      0.2287
     91  O         53.3460   20.1380  -29.5800 O.2   164  GLU164     -0.2864
     92  CB        52.8100   17.9360  -31.7720 C.3   164  GLU164      0.0415
     93  CG        53.7770   16.7960  -31.6180 C.3   164  GLU164      0.1163
     94  CD        54.4400   16.4400  -32.9590 C.2   164  GLU164      0.3649
     95  OE1       55.6040   16.8480  -33.1730 O.co2 164  GLU164     -0.2457
     96  OE2       53.7950   15.7750  -33.8100 O.co2 164  GLU164     -0.2457
     97  N         50.3910   22.1080  -28.6290 N.3   166  PHE166     -0.1227
     98  CA        49.6060   22.6650  -27.5130 C.3   166  PHE166      0.1736
     99  C         50.0470   22.1280  -26.2080 C.2   166  PHE166      0.2596
    100  O         50.1900   20.9030  -26.0080 O.2   166  PHE166     -0.2718
    101  CB        48.1210   22.3710  -27.6630 C.3   166  PHE166      0.0547
    102  CG        47.4450   23.2530  -28.6600 C.ar  166  PHE166     -0.0202
    103  CD1       46.9950   24.5130  -28.2940 C.ar  166  PHE166     -0.0042
    104  CD2       47.2850   22.8460  -29.9760 C.ar  166  PHE166     -0.0042
    105  CE1       46.3740   25.3400  -29.2170 C.ar  166  PHE166     -0.0003
    106  CE2       46.6710   23.6750  -30.9060 C.ar  166  PHE166     -0.0003
    107  CZ        46.2100   24.9190  -30.5200 C.ar  166  PHE166     -0.0000
    108  N         50.2420   23.0490  -25.2980 N.am  167  THR167     -0.1953
    109  CA        50.7420   22.7390  -23.9650 C.3   167  THR167      0.1897
    110  C         50.0590   23.5910  -22.9190 C.2   167  THR167      0.2313
    111  O         49.5400   24.6570  -23.2400 O.2   167  THR167     -0.2863
    112  CB        52.2330   22.9930  -23.8760 C.3   167  THR167      0.1794
    113  OG1       52.4890   24.3980  -24.0430 O.3   167  THR167     -0.2208
    114  CG2       52.9730   22.1800  -24.9570 C.3   167  THR167      0.0378
    115  N         51.5840   18.0100  -21.4170 N.3   187  VAL187     -0.1231
    116  CA        51.5330   17.7050  -22.8140 C.3   187  VAL187      0.1692
    117  C         50.5410   16.5600  -23.0230 C.2   187  VAL187      0.2592
    118  O         50.3090   15.7540  -22.1190 O.2   187  VAL187     -0.2718
    119  CB        52.9240   17.3670  -23.3240 C.3   187  VAL187      0.0266
    120  CG1       53.7800   18.5710  -23.0630 C.3   187  VAL187      0.0020
    121  CG2       53.4860   16.1850  -22.5930 C.3   187  VAL187      0.0020
    122  N         50.0110   16.5210  -24.2460 N.am  188  PHE188     -0.1962
    123  CA        48.7930   15.7960  -24.5800 C.3   188  PHE188      0.1771
    124  C         48.9160   14.9730  -25.8470 C.2   188  PHE188      0.2619
    125  O         49.4740   15.4180  -26.8480 O.2   188  PHE188     -0.2715
    126  CB        47.6150   16.7670  -24.7620 C.3   188  PHE188      0.0574
    127  CG        47.2830   17.5850  -23.5340 C.ar  188  PHE188     -0.0200
    128  CD1       47.8650   18.8040  -23.3180 C.ar  188  PHE188     -0.0042
    129  CD2       46.3910   17.1200  -22.6100 C.ar  188  PHE188     -0.0042
    130  CE1       47.5590   19.5700  -22.1820 C.ar  188  PHE188     -0.0003
    131  CE2       46.0610   17.8800  -21.4620 C.ar  188  PHE188     -0.0003
    132  CZ        46.6480   19.0930  -21.2770 C.ar  188  PHE188     -0.0000
    133  N         48.4240   13.7430  -25.7300 N.am  189  GLU189     -0.1977
    134  CA        48.0070   12.9220  -26.8150 C.3   189  GLU189      0.1602
    135  C         46.5430   12.5200  -26.6560 C.2   189  GLU189      0.2287
    136  O         45.9650   12.7370  -25.6060 O.2   189  GLU189     -0.2864
    137  CB        48.8480   11.6450  -26.8680 C.3   189  GLU189      0.0415
    138  CG        50.2110   11.8550  -27.5270 C.3   189  GLU189      0.1163
    139  CD        50.8600   10.5470  -27.9950 C.2   189  GLU189      0.3649
    140  OE1       50.2280    9.4400  -27.9080 O.co2 189  GLU189     -0.2457
    141  OE2       52.0200   10.6420  -28.4720 O.co2 189  GLU189     -0.2457
@<TRIPOS>BOND
     1    96    94   ar
     2    95    94   ar
     3    94    93    1
     4    92    93    1
     5    92    89    1
     6    80    81    1
     7   106   107   ar
     8   106   104   ar
     9    88    89    1
    10    88    82   am
    11    89    90    1
    12   107   105   ar
    13    90    91    2
    14   104   102   ar
    15    81    82    1
    16    81    84    1
    17    82    83    2
    18   105   103   ar
    19    26    25    1
    20    84    85    1
    21    85    86    1
    22    85    87    1
    23    25    24    1
    24   102   103   ar
    25   102   101    1
    26    97    98    1
    27   141   139   ar
    28   139   140   ar
    29   139   138    1
    30   101    98    1
    31   138   137    1
    32    98    99    1
    33    24    23    1
    34    23    22    1
    35   137   134    1
    36   125   124    2
    37   134   135    1
    38   134   133    1
    39   135   136    2
    40    19    18    1
    41    19    22    1
    42    19    20    1
    43    99   100    2
    44    99   108   am
    45     9     7   am
    46   124   133   am
    47   124   123    1
    48     4     3    2
    49    20    21    2
    50    20    27   am
    51   108   109    1
    52     7     8    2
    53     7     6    1
    54   114   112    1
    55    74    72   ar
    56    74    75   ar
    57    72    71   ar
    58   126   123    1
    59   126   127    1
    60    30    29    2
    61    27    28    1
    62   123   122    1
    63     3     2    1
    64     3    10   am
    65   122   117   am
    66     2     5    1
    67     2     1    1
    68     5     6    1
    69   113   112    1
    70   109   112    1
    71   109   110    1
    72    11    12    1
    73    11    10    1
    74    11    14    1
    75    29    28    1
    76    13    12    2
    77    28    31    1
    78    75    77   ar
    79    75    73   ar
    80   127   128   ar
    81   127   129   ar
    82    71    70    1
    83    71    73   ar
    84   119   120    1
    85   119   116    1
    86   119   121    1
    87   128   130   ar
    88   111   110    2
    89    77    79   ar
    90    16    14    1
    91    58    57    2
    92   117   116    1
    93   117   118    2
    94    70    67    1
    95    14    15    1
    96    67    68    1
    97    67    66    1
    98   116   115    1
    99    73    76   ar
   100    68    69    2
   101   129   131   ar
   102    54    53    1
   103    53    52    1
   104    31    32    1
   105   130   132   ar
   106    34    32   ar
   107    34    36   ar
   108    57    66   am
   109    57    56    1
   110    32    33   ar
   111    79    78   ar
   112    36    37   ar
   113    52    51    1
   114    33    35   ar
   115    15    17    1
   116    37    35   ar
   117   131   132   ar
   118    76    78   ar
   119    51    50    1
   120    50    47    1
   121    55    56    1
   122    55    48   am
   123    56    59    1
   124    59    60    1
   125    47    48    1
   126    47    46    1
   127    48    49    2
   128    45    43    1
   129    44    43    1
   130    60    62   ar
   131    60    61   ar
   132    43    42    1
   133    62    64   ar
   134    61    63   ar
   135    42    39    1
   136    64    65   ar
   137    63    65   ar
   138    39    40    1
   139    39    38    1
   140    40    41    2
