@<TRIPOS>MOLECULE
tmp/5dq8B00.pdb
 143 133 0 0 0
SMALL
GASTEIGER

@<TRIPOS>ATOM
      1  N         43.1200   15.9590   -9.5290 N.3    14  PHE14      -0.1241
      2  CA        42.9200   16.8290  -10.6600 C.3    14  PHE14       0.1605
      3  C         42.1370   16.1330  -11.7650 C.2    14  PHE14       0.2264
      4  O         42.3370   14.9360  -12.0660 O.2    14  PHE14      -0.2867
      5  CB        44.2470   17.3190  -11.2120 C.3    14  PHE14       0.0534
      6  CG        44.1040   18.0700  -12.4860 C.ar   14  PHE14      -0.0203
      7  CD1       43.8320   19.4050  -12.4600 C.ar   14  PHE14      -0.0042
      8  CD2       44.2030   17.4420  -13.7090 C.ar   14  PHE14      -0.0042
      9  CE1       43.7130   20.1360  -13.6370 C.ar   14  PHE14      -0.0003
     10  CE2       44.0580   18.1790  -14.9010 C.ar   14  PHE14      -0.0003
     11  CZ        43.8190   19.5050  -14.8530 C.ar   14  PHE14      -0.0000
     12  N         39.5720   17.0520  -15.5170 N.3    16  ALA16      -0.1245
     13  CA        38.8590   17.8920  -16.4480 C.3    16  ALA16       0.1562
     14  C         37.7370   17.0440  -16.9810 C.2    16  ALA16       0.2260
     15  O         37.9790   15.8950  -17.2970 O.2    16  ALA16      -0.2867
     16  CB        39.7760   18.3570  -17.5440 C.3    16  ALA16       0.0290
     17  N         38.0150   13.8010  -19.2200 N.3    32  PHE32      -0.1227
     18  CA        38.9540   13.9870  -20.3220 C.3    32  PHE32       0.1736
     19  C         40.3430   13.5440  -19.8450 C.2    32  PHE32       0.2595
     20  O         41.0500   12.8300  -20.5370 O.2    32  PHE32      -0.2718
     21  CB        38.9860   15.4570  -20.8120 C.3    32  PHE32       0.0547
     22  CG        37.7240   15.9000  -21.4560 C.ar   32  PHE32      -0.0202
     23  CD1       37.3510   15.4020  -22.6650 C.ar   32  PHE32      -0.0042
     24  CD2       36.9080   16.8000  -20.8470 C.ar   32  PHE32      -0.0042
     25  CE1       36.1910   15.7960  -23.2560 C.ar   32  PHE32      -0.0003
     26  CE2       35.7340   17.1930  -21.4260 C.ar   32  PHE32      -0.0003
     27  CZ        35.3790   16.6990  -22.6300 C.ar   32  PHE32      -0.0000
     28  N         40.7060   13.9710  -18.6460 N.am   33  VAL33      -0.1980
     29  CA        41.9910   13.6360  -18.0120 C.3    33  VAL33       0.1595
     30  C         41.7690   13.6330  -16.4840 C.2    33  VAL33       0.2287
     31  O         40.8870   14.3370  -15.9580 O.2    33  VAL33      -0.2864
     32  CB        43.1010   14.6340  -18.3500 C.3    33  VAL33       0.0276
     33  CG1       43.4010   14.7070  -19.8360 C.3    33  VAL33       0.0022
     34  CG2       42.6990   16.0390  -17.8740 C.3    33  VAL33       0.0022
     35  N         49.7080   13.4350  -20.7110 N.3    77  PHE77      -0.1241
     36  CA        48.3370   12.9230  -20.6820 C.3    77  PHE77       0.1605
     37  C         47.9530   12.2610  -21.9880 C.2    77  PHE77       0.2264
     38  O         48.1390   12.8480  -23.0630 O.2    77  PHE77      -0.2867
     39  CB        47.3130   14.0390  -20.4880 C.3    77  PHE77       0.0534
     40  CG        47.1640   14.5400  -19.0900 C.ar   77  PHE77      -0.0203
     41  CD1       46.8010   13.6970  -18.0570 C.ar   77  PHE77      -0.0042
     42  CD2       47.2670   15.8890  -18.8340 C.ar   77  PHE77      -0.0042
     43  CE1       46.6250   14.1820  -16.7770 C.ar   77  PHE77      -0.0003
     44  CE2       47.0840   16.4030  -17.5540 C.ar   77  PHE77      -0.0003
     45  CZ        46.7590   15.5590  -16.5320 C.ar   77  PHE77      -0.0000
     46  N         36.8680   21.9430  -14.6120 N.3    89  VAL89      -0.1245
     47  CA        38.1870   21.5220  -14.1490 C.3    89  VAL89       0.1561
     48  C         38.1400   21.5950  -12.6490 C.2    89  VAL89       0.2260
     49  O         37.5900   22.5480  -12.0790 O.2    89  VAL89      -0.2867
     50  CB        39.3170   22.4220  -14.6930 C.3    89  VAL89       0.0252
     51  CG1       40.6690   21.9910  -14.1550 C.3    89  VAL89       0.0019
     52  CG2       39.3300   22.4320  -16.2060 C.3    89  VAL89       0.0019
     53  N         47.1360   29.2260  -14.9190 N.3   105  SER105     -0.1217
     54  CA        47.1970   28.2290  -15.9960 C.3   105  SER105      0.1889
     55  C         47.2820   28.8730  -17.3690 C.2   105  SER105      0.2288
     56  O         46.3900   29.5780  -17.7530 O.2   105  SER105     -0.2866
     57  CB        45.9630   27.3230  -15.9390 C.3   105  SER105      0.2089
     58  OG        45.7490   26.8150  -14.6280 O.3   105  SER105     -0.2183
     59  N         47.6360   28.3480  -21.4880 N.3   107  VAL107     -0.1245
     60  CA        47.5670   27.5280  -22.6820 C.3   107  VAL107      0.1561
     61  C         48.5270   28.1230  -23.6750 C.2   107  VAL107      0.2260
     62  O         48.5120   29.3290  -23.8860 O.2   107  VAL107     -0.2867
     63  CB        46.1410   27.4980  -23.2670 C.3   107  VAL107      0.0252
     64  CG1       46.1160   26.6850  -24.4970 C.3   107  VAL107      0.0019
     65  CG2       45.1600   26.9680  -22.3000 C.3   107  VAL107      0.0019
     66  N         45.9230   31.7200  -23.9220 N.3   115  VAL115     -0.1245
     67  CA        44.9830   32.1020  -22.8530 C.3   115  VAL115      0.1561
     68  C         45.6300   31.9020  -21.5000 C.2   115  VAL115      0.2260
     69  O         46.5940   31.1580  -21.3590 O.2   115  VAL115     -0.2867
     70  CB        43.6650   31.3380  -22.9260 C.3   115  VAL115      0.0252
     71  CG1       42.7840   31.6350  -21.7030 C.3   115  VAL115      0.0019
     72  CG2       42.9360   31.7350  -24.1080 C.3   115  VAL115      0.0019
     73  N         44.4900   31.8900  -17.1320 N.3   117  LYS117     -0.1245
     74  CA        43.4710   31.9230  -16.0780 C.3   117  LYS117      0.1561
     75  C         44.1830   31.9710  -14.7470 C.2   117  LYS117      0.2260
     76  O         45.0770   31.1980  -14.4940 O.2   117  LYS117     -0.2867
     77  CB        42.5400   30.7240  -16.1730 C.3   117  LYS117      0.0271
     78  CG        41.5500   30.5290  -15.0230 C.3   117  LYS117      0.0035
     79  CD        41.0050   29.0700  -15.0120 C.3   117  LYS117      0.0206
     80  CE        39.5110   28.9760  -15.3590 C.3   117  LYS117      0.1093
     81  NZ        39.0130   27.5670  -15.4800 N.3   117  LYS117     -0.1314
     82  N         35.2870   25.5280  -17.5550 N.3   139  MET139     -0.1230
     83  CA        36.2830   25.5110  -18.6290 C.3   139  MET139      0.1702
     84  C         35.9850   26.6890  -19.5460 C.2   139  MET139      0.2592
     85  O         34.8430   26.8120  -20.0420 O.2   139  MET139     -0.2718
     86  CB        36.1850   24.1950  -19.4040 C.3   139  MET139      0.0401
     87  CG        37.4580   23.6340  -19.9360 C.3   139  MET139      0.0596
     88  SD        37.1840   22.0970  -20.8930 S.3   139  MET139     -0.1393
     89  CE        37.2070   20.8250  -19.6590 C.3   139  MET139      0.0692
     90  N         36.9630   27.5430  -19.8240 N.am  140  CYS140     -0.1970
     91  CA        36.6490   28.6680  -20.7270 C.3   140  CYS140      0.1712
     92  C         36.2650   28.2090  -22.1430 C.2   140  CYS140      0.2296
     93  O         36.5970   27.0890  -22.5600 O.2   140  CYS140     -0.2864
     94  CB        37.8000   29.6630  -20.8010 C.3   140  CYS140      0.0983
     95  SG        39.1500   29.1670  -21.7660 S.3   140  CYS140     -0.0798
     96  N         38.6860   26.4110  -24.7220 N.3   143  LEU143     -0.1245
     97  CA        39.0370   25.0080  -24.6160 C.3   143  LEU143      0.1561
     98  C         37.8400   24.1450  -25.0560 C.2   143  LEU143      0.2260
     99  O         38.0300   23.1820  -25.7670 O.2   143  LEU143     -0.2867
    100  CB        39.4970   24.6250  -23.1930 C.3   143  LEU143      0.0270
    101  CG        40.9660   24.8570  -22.7660 C.3   143  LEU143      0.0019
    102  CD1       41.2890   24.0320  -21.5570 C.3   143  LEU143      0.0001
    103  CD2       41.9750   24.5280  -23.8200 C.3   143  LEU143      0.0001
    104  N         50.0540   23.1390  -21.6760 N.3   168  ILE168     -0.1245
    105  CA        49.5440   23.9390  -20.6070 C.3   168  ILE168      0.1561
    106  C         50.6050   24.0540  -19.5250 C.2   168  ILE168      0.2260
    107  O         51.2940   23.1130  -19.1590 O.2   168  ILE168     -0.2867
    108  CB        48.2570   23.3340  -20.0790 C.3   168  ILE168      0.0252
    109  CG1       47.2110   23.3790  -21.1860 C.3   168  ILE168      0.0019
    110  CG2       47.8110   24.1180  -18.8450 C.3   168  ILE168      0.0019
    111  CD1       45.9020   22.8650  -20.7760 C.3   168  ILE168      0.0001
    112  N         50.9550   25.2540  -15.5850 N.3   170  GLN170     -0.1245
    113  CA        50.4710   25.6690  -14.2930 C.3   170  GLN170      0.1566
    114  C         51.5370   26.0980  -13.3300 C.2   170  GLN170      0.2260
    115  O         52.5150   25.4030  -13.1390 O.2   170  GLN170     -0.2867
    116  CB        49.7140   24.5600  -13.6350 C.3   170  GLN170      0.0367
    117  CG        48.3700   24.3790  -14.3180 C.3   170  GLN170      0.0905
    118  CD        47.3660   23.6400  -13.4490 C.2   170  GLN170      0.2608
    119  OE1       47.6670   22.5870  -12.9030 O.2   170  GLN170     -0.2717
    120  NE2       46.1690   24.1980  -13.3270 N.am  170  GLN170     -0.0878
    121  N         52.1340   20.4430  -18.9110 N.3   186  TYR186     -0.1241
    122  CA        51.3060   19.3610  -19.4360 C.3   186  TYR186      0.1605
    123  C         51.4050   19.2420  -20.9250 C.2   186  TYR186      0.2264
    124  O         51.3260   20.2510  -21.6120 O.2   186  TYR186     -0.2867
    125  CB        49.8520   19.5800  -19.1230 C.3   186  TYR186      0.0534
    126  CG        49.5170   19.7120  -17.6740 C.ar  186  TYR186     -0.0201
    127  CD1       49.2680   18.5990  -16.9120 C.ar  186  TYR186     -0.0009
    128  CD2       49.3680   20.9570  -17.0810 C.ar  186  TYR186     -0.0009
    129  CE1       48.9210   18.6960  -15.5720 C.ar  186  TYR186      0.0417
    130  CE2       48.9890   21.0690  -15.7090 C.ar  186  TYR186      0.0417
    131  CZ        48.7860   19.9110  -14.9660 C.ar  186  TYR186      0.1957
    132  OH        48.4160   19.9170  -13.6400 O.3   186  TYR186     -0.2866
    133  N         50.0110   16.5210  -24.2460 N.3   188  PHE188     -0.1241
    134  CA        48.7930   15.7960  -24.5800 C.3   188  PHE188      0.1605
    135  C         48.9160   14.9730  -25.8470 C.2   188  PHE188      0.2264
    136  O         49.4740   15.4180  -26.8480 O.2   188  PHE188     -0.2867
    137  CB        47.6150   16.7670  -24.7620 C.3   188  PHE188      0.0534
    138  CG        47.2830   17.5850  -23.5340 C.ar  188  PHE188     -0.0203
    139  CD1       47.8650   18.8040  -23.3180 C.ar  188  PHE188     -0.0042
    140  CD2       46.3910   17.1200  -22.6100 C.ar  188  PHE188     -0.0042
    141  CE1       47.5590   19.5700  -22.1820 C.ar  188  PHE188     -0.0003
    142  CE2       46.0610   17.8800  -21.4620 C.ar  188  PHE188     -0.0003
    143  CZ        46.6480   19.0930  -21.2770 C.ar  188  PHE188     -0.0000
@<TRIPOS>BOND
     1   136   135    2
     2   135   134    1
     3    99    98    2
     4    98    97    1
     5   137   134    1
     6   137   138    1
     7    96    97    1
     8    97   100    1
     9   134   133    1
    10    64    63    1
    11    72    70    1
    12    66    67    1
    13    62    61    2
    14   103   101    1
    15    61    60    1
    16   138   139   ar
    17   138   140   ar
    18   139   141   ar
    19    63    60    1
    20    63    65    1
    21    25    23   ar
    22    25    27   ar
    23   100   101    1
    24    38    37    2
    25    70    67    1
    26    70    71    1
    27    67    68    1
    28   101   102    1
    29    60    59    1
    30    23    22   ar
    31    27    26   ar
    32   140   142   ar
    33    93    92    2
    34   141   143   ar
    35    92    91    1
    36    37    36    1
    37    95    94    1
    38   104   105    1
    39   124   123    2
    40    68    69    2
    41   142   143   ar
    42    22    24   ar
    43    22    21    1
    44    26    24   ar
    45   109   111    1
    46   109   108    1
    47   123   122    1
    48    88    87    1
    49    88    89    1
    50    21    18    1
    51    94    91    1
    52    91    90    1
    53    35    36    1
    54    36    39    1
    55   105   108    1
    56   105   106    1
    57    20    19    2
    58    39    40    1
    59    18    19    1
    60    18    17    1
    61   108   110    1
    62    85    84    2
    63    87    86    1
    64    19    28   am
    65    33    32    1
    66    90    84   am
    67    84    83    1
    68   106   107    2
    69   122   125    1
    70   122   121    1
    71    86    83    1
    72   125   126    1
    73    40    42   ar
    74    40    41   ar
    75    42    44   ar
    76    28    29    1
    77    83    82    1
    78    32    29    1
    79    32    34    1
    80    41    43   ar
    81    29    30    1
    82    56    55    2
    83   126   128   ar
    84   126   127   ar
    85    44    45   ar
    86    16    13    1
    87    55    54    1
    88    15    14    2
    89    73    74    1
    90   128   130   ar
    91    14    13    1
    92   127   129   ar
    93    43    45   ar
    94    30    31    2
    95    13    12    1
    96    52    50    1
    97    77    74    1
    98    77    78    1
    99    74    75    1
   100    54    57    1
   101    54    53    1
   102    57    58    1
   103   130   131   ar
   104   112   113    1
   105   129   131   ar
   106    81    80    1
   107    80    79    1
   108    78    79    1
   109   131   132    1
   110    10    11   ar
   111    10     8   ar
   112    11     9   ar
   113    75    76    2
   114    50    51    1
   115    50    47    1
   116    46    47    1
   117   117   116    1
   118   117   118    1
   119   113   116    1
   120   113   114    1
   121    47    48    1
   122     8     6   ar
   123     9     7   ar
   124   118   120   am
   125   118   119    2
   126   114   115    2
   127    48    49    2
   128     6     7   ar
   129     6     5    1
   130     4     3    2
   131     3     2    1
   132     5     2    1
   133     2     1    1
