@<TRIPOS>MOLECULE
tmp/5dq9E00.pdb
 94 91 0 0 0
SMALL
GASTEIGER

@<TRIPOS>ATOM
      1  N         93.1190   -4.5540   42.2100 N.3    33  GLY33      -0.1225
      2  CA        93.9700   -4.0190   41.1710 C.3    33  GLY33       0.1811
      3  C         93.1380   -3.1440   40.2490 C.2    33  GLY33       0.2280
      4  O         91.8960   -3.1990   40.2510 O.2    33  GLY33      -0.2866
      5  N         98.5710   -1.4010   34.4120 N.3    50  LEU50      -0.1231
      6  CA        97.9060   -1.8080   35.6450 C.3    50  LEU50       0.1693
      7  C         98.7020   -1.4770   36.8680 C.2    50  LEU50       0.2592
      8  O         99.9080   -1.2130   36.7980 O.2    50  LEU50      -0.2718
      9  CB        97.5750   -3.2950   35.6560 C.3    50  LEU50       0.0284
     10  CG        98.7180   -4.3080   35.7440 C.3    50  LEU50       0.0019
     11  CD1       99.2800   -4.3870   37.1460 C.3    50  LEU50       0.0001
     12  CD2       98.2110   -5.6620   35.3000 C.3    50  LEU50       0.0001
     13  N         98.0000   -1.5120   37.9910 N.am   51  ILE51      -0.1966
     14  CA        98.5810   -1.2770   39.2950 C.3    51  ILE51       0.1727
     15  C         97.8700   -2.1540   40.3290 C.2    51  ILE51       0.2617
     16  O         96.6300   -2.2940   40.2970 O.2    51  ILE51      -0.2715
     17  CB        98.5240    0.1940   39.6780 C.3    51  ILE51       0.0290
     18  CG1       99.2920    0.4710   40.9940 C.3    51  ILE51       0.0022
     19  CG2       97.0960    0.6740   39.7900 C.3    51  ILE51       0.0023
     20  CD1       99.5730    1.9490   41.2000 C.3    51  ILE51       0.0001
     21  N         98.6590   -2.7690   41.2090 N.am   52  SER52      -0.1936
     22  CA        98.1550   -3.6340   42.2730 C.3    52  SER52       0.2055
     23  C         97.4850   -2.8130   43.3880 C.2    52  SER52       0.2643
     24  O         97.6780   -1.6070   43.5060 O.2    52  SER52      -0.2714
     25  CB        99.2910   -4.4590   42.8880 C.3    52  SER52       0.2130
     26  OG       100.2720   -3.6310   43.5390 O.3    52  SER52      -0.2179
     27  N         96.7100   -3.5020   44.1910 N.am   53  ASN53      -0.1957
     28  CA        95.9340   -2.9310   45.3240 C.3    53  ASN53       0.1819
     29  C         96.5860   -1.7640   46.0590 C.2    53  ASN53       0.2621
     30  O         96.0310   -0.6630   46.0820 O.2    53  ASN53      -0.2715
     31  CB        95.6160   -4.0900   46.2850 C.3    53  ASN53       0.1195
     32  CG        95.0230   -3.6420   47.6090 C.2    53  ASN53       0.2630
     33  OD1       95.0760   -4.3840   48.6110 O.2    53  ASN53      -0.2716
     34  ND2       94.4110   -2.4990   47.6200 N.am   53  ASN53      -0.0877
     35  N         97.7520   -2.0020   46.6720 N.am   54  GLY54      -0.1954
     36  CA        98.4390   -0.9960   47.4500 C.3    54  GLY54       0.1869
     37  C         99.4970   -0.2240   46.6820 C.2    54  GLY54       0.2309
     38  O        100.1810    0.6490   47.2460 O.2    54  GLY54      -0.2863
     39  N        102.2420   -1.5230   45.0860 N.3    56  SER56      -0.1202
     40  CA       103.5930   -2.1120   45.0510 C.3    56  SER56       0.2020
     41  C        104.0490   -2.5020   43.6590 C.2    56  SER56       0.2618
     42  O        105.2200   -2.5240   43.4290 O.2    56  SER56      -0.2717
     43  CB       103.6800   -3.4220   45.8780 C.3    56  SER56       0.2103
     44  OG       103.4720   -3.1620   47.2350 O.3    56  SER56      -0.2182
     45  N        103.1060   -2.9060   42.8060 N.am   57  TYR57      -0.1975
     46  CA       103.3690   -3.5180   41.4950 C.3    57  TYR57       0.1639
     47  C        102.6960   -2.6880   40.4060 C.2    57  TYR57       0.2290
     48  O        101.4770   -2.4130   40.4900 O.2    57  TYR57      -0.2864
     49  CB       102.8070   -4.9430   41.4850 C.3    57  TYR57       0.0560
     50  CG       102.9390   -5.7050   40.1890 C.ar   57  TYR57      -0.0198
     51  CD1      102.0310   -5.5550   39.1630 C.ar   57  TYR57      -0.0009
     52  CD2      103.9410   -6.6290   40.0200 C.ar   57  TYR57      -0.0009
     53  CE1      102.1400   -6.2800   37.9820 C.ar   57  TYR57       0.0417
     54  CE2      104.0570   -7.3570   38.8430 C.ar   57  TYR57       0.0417
     55  CZ       103.1530   -7.1650   37.8210 C.ar   57  TYR57       0.1957
     56  OH       103.2710   -7.8730   36.6560 O.3    57  TYR57      -0.2866
     57  N         89.6220   -4.0590   38.6720 N.3    99  HIS99      -0.1226
     58  CA        89.7000   -5.4980   38.5250 C.3    99  HIS99       0.1752
     59  C         88.7680   -6.1360   39.5470 C.2    99  HIS99       0.2595
     60  O         88.4920   -5.5470   40.5900 O.2    99  HIS99      -0.2718
     61  CB        91.1170   -5.9730   38.7950 C.3    99  HIS99       0.0759
     62  CG        92.1260   -5.5120   37.7980 C.ar   99  HIS99       0.0818
     63  ND1       93.4140   -5.9960   37.7700 N.ar   99  HIS99      -0.2268
     64  CD2       92.0400   -4.6100   36.7840 C.ar   99  HIS99       0.1154
     65  CE1       94.0880   -5.4040   36.7940 C.ar   99  HIS99       0.1986
     66  NE2       93.2680   -4.5760   36.1680 N.ar   99  HIS99      -0.2212
     67  N         88.2660   -7.3160   39.2280 N.am  100  LYS100     -0.1980
     68  CA        87.6870   -8.1970   40.2390 C.3   100  LYS100      0.1596
     69  C         88.7690   -8.5570   41.2600 C.2   100  LYS100      0.2287
     70  O         89.9540   -8.3540   41.0020 O.2   100  LYS100     -0.2864
     71  CB        87.0970   -9.4640   39.6040 C.3   100  LYS100      0.0298
     72  CG        85.8790   -9.2220   38.7400 C.3   100  LYS100      0.0038
     73  CD        85.3340  -10.5180   38.1470 C.3   100  LYS100      0.0206
     74  CE        84.5940  -11.3800   39.1660 C.3   100  LYS100      0.1093
     75  NZ        83.2680  -10.7960   39.4820 N.3   100  LYS100     -0.1314
     76  N         94.7340  -16.3800   41.3980 N.3   105  GLY105     -0.1210
     77  CA        95.2760  -15.8470   40.1710 C.3   105  GLY105      0.1956
     78  C         94.7930  -14.4350   39.8450 C.2   105  GLY105      0.2613
     79  O         94.3300  -13.6920   40.7170 O.2   105  GLY105     -0.2717
     80  N         94.8990  -14.0740   38.5730 N.am  106  THR106     -0.1938
     81  CA        94.5690  -12.7240   38.0930 C.3   106  THR106      0.2028
     82  C         93.0590  -12.5920   37.7810 C.2   106  THR106      0.2642
     83  O         92.3040  -13.5820   37.8340 O.2   106  THR106     -0.2714
     84  CB        95.4250  -12.3790   36.8520 C.3   106  THR106      0.1808
     85  OG1       95.1610  -13.3180   35.8160 O.3   106  THR106     -0.2208
     86  CG2       96.9080  -12.4090   37.1850 C.3   106  THR106      0.0379
     87  N         92.6340  -11.3770   37.4420 N.am  107  ASN107     -0.1971
     88  CA        91.2270  -11.0480   37.3790 C.3   107  ASN107      0.1688
     89  C         90.8620  -10.2360   36.1500 C.2   107  ASN107      0.2292
     90  O         91.6910   -9.5050   35.5930 O.2   107  ASN107     -0.2864
     91  CB        90.8200  -10.2770   38.6330 C.3   107  ASN107      0.1181
     92  CG        90.6030  -11.1850   39.8300 C.2   107  ASN107      0.2629
     93  OD1       89.5290  -11.7240   40.0300 O.2   107  ASN107     -0.2716
     94  ND2       91.6360  -11.3380   40.6370 N.am  107  ASN107     -0.0877
@<TRIPOS>BOND
     1     5     6    1
     2    12    10    1
     3    90    89    2
     4     6     9    1
     5     6     7    1
     6     9    10    1
     7    10    11    1
     8    85    84    1
     9    89    88    1
    10    66    64   ar
    11    66    65   ar
    12    56    55    1
    13    64    62   ar
    14    65    63   ar
    15     8     7    2
    16    84    86    1
    17    84    81    1
    18     7    13   am
    19    88    87    1
    20    88    91    1
    21    87    82   am
    22    63    62   ar
    23    82    83    2
    24    82    81    1
    25    62    61    1
    26    55    53   ar
    27    55    54   ar
    28    53    51   ar
    29    13    14    1
    30    81    80    1
    31    73    72    1
    32    73    74    1
    33    58    57    1
    34    58    61    1
    35    58    59    1
    36    80    78   am
    37    91    92    1
    38    72    71    1
    39    54    52   ar
    40    51    50   ar
    41    74    75    1
    42    67    59   am
    43    67    68    1
    44    14    17    1
    45    14    15    1
    46    59    60    2
    47    71    68    1
    48    17    19    1
    49    17    18    1
    50    92    93    2
    51    92    94   am
    52    78    77    1
    53    78    79    2
    54    52    50   ar
    55    77    76    1
    56    50    49    1
    57    68    69    1
    58     3     4    2
    59     3     2    1
    60    16    15    2
    61    15    21   am
    62    47    48    2
    63    47    46    1
    64    18    20    1
    65    70    69    2
    66     2     1    1
    67    21    22    1
    68    49    46    1
    69    46    45    1
    70    22    25    1
    71    22    23    1
    72    45    41   am
    73    25    26    1
    74    23    24    2
    75    23    27   am
    76    42    41    2
    77    41    40    1
    78    27    28    1
    79    40    39    1
    80    40    43    1
    81    28    29    1
    82    28    31    1
    83    43    44    1
    84    29    30    2
    85    29    35   am
    86    31    32    1
    87    35    36    1
    88    37    38    2
    89    37    36    1
    90    32    34   am
    91    32    33    2
