@<TRIPOS>MOLECULE
tmp/5dqdB00.pdb
 120 117 0 0 0
SMALL
GASTEIGER

@<TRIPOS>ATOM
      1  N         28.9920   49.7700   15.4760 N.3    33  GLY33      -0.1225
      2  CA        29.9660   48.6920   15.6240 C.3    33  GLY33       0.1811
      3  C         29.2440   47.3790   15.3660 C.2    33  GLY33       0.2280
      4  O         28.0140   47.3220   15.4400 O.2    33  GLY33      -0.2866
      5  N         34.9630   41.8860   17.2460 N.3    50  LEU50      -0.1231
      6  CA        34.2080   43.0950   16.9430 C.3    50  LEU50       0.1693
      7  C         34.9380   44.0140   15.9570 C.2    50  LEU50       0.2592
      8  O         36.1700   43.9390   15.7800 O.2    50  LEU50      -0.2718
      9  CB        33.8610   43.8870   18.2280 C.3    50  LEU50       0.0284
     10  CG        34.9540   44.6180   19.0210 C.3    50  LEU50       0.0019
     11  CD1       35.4960   45.8710   18.3140 C.3    50  LEU50       0.0001
     12  CD2       34.4380   45.0210   20.4240 C.3    50  LEU50       0.0001
     13  N         34.1770   44.9250   15.3620 N.am   51  ILE51      -0.1966
     14  CA        34.7500   45.9180   14.4600 C.3    51  ILE51       0.1727
     15  C         33.9970   47.2170   14.6190 C.2    51  ILE51       0.2617
     16  O         32.7730   47.2190   14.7110 O.2    51  ILE51      -0.2715
     17  CB        34.7290   45.4390   12.9800 C.3    51  ILE51       0.0290
     18  CG1       35.4550   46.4400   12.0780 C.3    51  ILE51       0.0022
     19  CG2       33.2830   45.2020   12.4630 C.3    51  ILE51       0.0023
     20  CD1       35.9040   45.7900   10.7230 C.3    51  ILE51       0.0001
     21  N         34.7340   48.3260   14.6650 N.am   52  SER52      -0.1936
     22  CA        34.1410   49.6460   14.8370 C.3    52  SER52       0.2055
     23  C         33.3890   50.0720   13.5770 C.2    52  SER52       0.2643
     24  O         33.5280   49.4600   12.5140 O.2    52  SER52      -0.2714
     25  CB        35.2330   50.6640   15.1780 C.3    52  SER52       0.2130
     26  OG        36.2100   50.7100   14.1420 O.3    52  SER52      -0.2179
     27  N         32.5920   51.1240   13.6890 N.am   53  ARG53      -0.1963
     28  CA        31.7480   51.5390   12.5680 C.3    53  ARG53       0.1729
     29  C         32.5100   51.7760   11.2410 C.2    53  ARG53       0.2617
     30  O         32.0000   51.4450   10.1670 O.2    53  ARG53      -0.2715
     31  CB        30.8930   52.7490   12.9730 C.3    53  ARG53       0.0348
     32  CG        31.6900   53.9190   13.4720 C.3    53  ARG53       0.0492
     33  CD        30.7640   55.0940   13.8320 C.3    53  ARG53       0.2205
     34  NE        29.9120   54.8300   14.9970 N.pl3  53  ARG53      -0.0865
     35  CZ        28.8580   55.5710   15.3440 C.cat  53  ARG53       0.5346
     36  NH1       28.1470   55.2560   16.4260 N.pl3  53  ARG53       0.1354
     37  NH2       28.5060   56.6290   14.6070 N.pl3  53  ARG53       0.1354
     38  N         33.7280   52.3120   11.3110 N.am   54  GLY54      -0.1940
     39  CA        34.5090   52.5610   10.1090 C.3    54  GLY54       0.2014
     40  C         35.5650   51.5000    9.8510 C.2    54  GLY54       0.2639
     41  O         36.2280   51.5000    8.8070 O.2    54  GLY54      -0.2714
     42  N         35.7460   50.6010   10.8110 N.am   55  GLY55      -0.1939
     43  CA        36.6270   49.4620   10.6020 C.3    55  GLY55       0.2014
     44  C         38.0770   49.6260   11.0150 C.2    55  GLY55       0.2640
     45  O         38.8740   48.6950   10.8400 O.2    55  GLY55      -0.2714
     46  N         38.4450   50.7810   11.5700 N.am   56  SER56      -0.1935
     47  CA        39.8440   50.9630   11.9670 C.3    56  SER56       0.2055
     48  C         40.1880   50.3190   13.3070 C.2    56  SER56       0.2643
     49  O         41.3660   50.2050   13.6520 O.2    56  SER56      -0.2714
     50  CB        40.2600   52.4390   11.9700 C.3    56  SER56       0.2130
     51  OG        39.7020   53.1240   13.0790 O.3    56  SER56      -0.2179
     52  N         39.1820   49.9010   14.0700 N.am   57  TYR57      -0.1973
     53  CA        39.4640   49.1790   15.3200 C.3    57  TYR57       0.1639
     54  C         38.8170   47.8070   15.2970 C.2    57  TYR57       0.2290
     55  O         37.6070   47.6770   15.0450 O.2    57  TYR57      -0.2864
     56  CB        38.9510   49.9830   16.5230 C.3    57  TYR57       0.0560
     57  CG        39.1080   49.2860   17.8630 C.ar   57  TYR57      -0.0198
     58  CD1       40.3670   49.0780   18.4270 C.ar   57  TYR57      -0.0009
     59  CD2       37.9980   48.8560   18.5720 C.ar   57  TYR57      -0.0009
     60  CE1       40.5080   48.4450   19.6530 C.ar   57  TYR57       0.0417
     61  CE2       38.1300   48.2130   19.7960 C.ar   57  TYR57       0.0417
     62  CZ        39.3790   48.0150   20.3320 C.ar   57  TYR57       0.1957
     63  OH        39.4940   47.3860   21.5610 O.3    57  TYR57      -0.2866
     64  N         25.8550   46.3680   17.2410 N.3    99  HIS99      -0.1226
     65  CA        25.9830   47.0730   18.5220 C.3    99  HIS99       0.1752
     66  C         25.0120   48.2500   18.5370 C.2    99  HIS99       0.2595
     67  O         24.8430   48.9110   17.5070 O.2    99  HIS99      -0.2718
     68  CB        27.3970   47.6630   18.6740 C.3    99  HIS99       0.0759
     69  CG        28.4880   46.6460   18.8030 C.ar   99  HIS99       0.0818
     70  ND1       29.7780   46.9950   19.1490 N.ar   99  HIS99      -0.2268
     71  CD2       28.4970   45.3010   18.6340 C.ar   99  HIS99       0.1154
     72  CE1       30.5330   45.9130   19.1950 C.ar   99  HIS99       0.1986
     73  NE2       29.7800   44.8690   18.8900 N.ar   99  HIS99      -0.2212
     74  N         24.4090   48.5550   19.6940 N.am  100  LYS100     -0.1980
     75  CA        23.7060   49.8330   19.8450 C.3   100  LYS100      0.1596
     76  C         24.7120   50.9610   19.6420 C.2   100  LYS100      0.2287
     77  O         25.9300   50.7490   19.6970 O.2   100  LYS100     -0.2864
     78  CB        23.0400   49.9690   21.2250 C.3   100  LYS100      0.0298
     79  CG        21.8000   49.1290   21.4210 C.3   100  LYS100      0.0038
     80  CD        21.1940   49.2660   22.8370 C.3   100  LYS100      0.0206
     81  CE        20.5510   50.6190   23.0590 C.3   100  LYS100      0.1093
     82  NZ        19.2110   50.6840   22.4040 N.3   100  LYS100     -0.1314
     83  N         24.8920   54.0640   21.3150 N.3   102  LEU102     -0.1231
     84  CA        24.9010   55.1170   22.3310 C.3   102  LEU102      0.1693
     85  C         26.3250   55.6290   22.5420 C.2   102  LEU102      0.2591
     86  O         27.2770   54.8790   22.3940 O.2   102  LEU102     -0.2718
     87  CB        24.3490   54.5790   23.6470 C.3   102  LEU102      0.0284
     88  CG        22.9170   54.0630   23.5740 C.3   102  LEU102      0.0019
     89  CD1       22.5210   53.4060   24.8690 C.3   102  LEU102      0.0001
     90  CD2       21.9660   55.1940   23.2320 C.3   102  LEU102      0.0001
     91  N         26.4580   56.9060   22.8840 N.am  103  ARG103     -0.1980
     92  CA        27.7270   57.4650   23.3460 C.3   103  ARG103      0.1597
     93  C         27.9570   57.1000   24.8150 C.2   103  ARG103      0.2287
     94  O         27.2580   56.2290   25.3680 O.2   103  ARG103     -0.2864
     95  CB        27.6860   58.9950   23.2080 C.3   103  ARG103      0.0334
     96  CG        27.4460   59.4870   21.7820 C.3   103  ARG103      0.0492
     97  CD        28.7110   59.4560   20.9220 C.3   103  ARG103      0.2205
     98  NE        28.9410   58.1600   20.2810 N.pl3 103  ARG103     -0.0865
     99  CZ        29.8830   57.9290   19.3650 C.cat 103  ARG103      0.5346
    100  NH1       30.6940   58.9050   18.9720 N.pl3 103  ARG103      0.1354
    101  NH2       30.0170   56.7190   18.8350 N.pl3 103  ARG103      0.1354
    102  N         30.4800   55.4770   26.1770 N.3   105  GLY105     -0.1210
    103  CA        31.0530   54.1620   26.4330 C.3   105  GLY105      0.1956
    104  C         30.6160   53.1080   25.4310 C.2   105  GLY105      0.2613
    105  O         30.1640   53.4230   24.3320 O.2   105  GLY105     -0.2717
    106  N         30.7230   51.8480   25.8220 N.am  106  THR106     -0.1938
    107  CA        30.4720   50.7500   24.8950 C.3   106  THR106      0.2028
    108  C         29.0100   50.3200   24.9340 C.2   106  THR106      0.2642
    109  O         28.2190   50.8060   25.7600 O.2   106  THR106     -0.2714
    110  CB        31.3590   49.5580   25.2380 C.3   106  THR106      0.1808
    111  OG1       31.1780   49.2260   26.6230 O.3   106  THR106     -0.2208
    112  CG2       32.8320   49.9070   25.0130 C.3   106  THR106      0.0379
    113  N         28.6390   49.4070   24.0440 N.am  107  ASN107     -0.1971
    114  CA        27.2250   49.1090   23.8270 C.3   107  ASN107      0.1688
    115  C         26.9190   47.6380   23.8030 C.2   107  ASN107      0.2292
    116  O         27.7830   46.8260   23.4880 O.2   107  ASN107     -0.2864
    117  CB        26.7930   49.6890   22.4870 C.3   107  ASN107      0.1181
    118  CG        26.4850   51.1520   22.5810 C.2   107  ASN107      0.2629
    119  OD1       25.3570   51.5190   22.9100 O.2   107  ASN107     -0.2716
    120  ND2       27.4850   52.0100   22.3120 N.am  107  ASN107     -0.0877
@<TRIPOS>BOND
     1    41    40    2
     2    40    39    1
     3    40    42   am
     4    39    38    1
     5    30    29    2
     6    43    42    1
     7    43    44    1
     8    20    18    1
     9    45    44    2
    10    44    46   am
    11    29    38   am
    12    29    28    1
    13    46    47    1
    14    47    50    1
    15    47    48    1
    16    50    51    1
    17    18    17    1
    18    19    17    1
    19    24    23    2
    20    28    31    1
    21    28    27    1
    22    31    32    1
    23    17    14    1
    24    48    49    2
    25    48    52   am
    26    32    33    1
    27    23    27   am
    28    23    22    1
    29    33    34    1
    30    52    53    1
    31    26    25    1
    32    14    15    1
    33    14    13    1
    34    37    35    1
    35    15    21   am
    36    15    16    2
    37    21    22    1
    38    22    25    1
    39    34    35    2
    40    55    54    2
    41    54    53    1
    42    53    56    1
    43    35    36    1
    44    13     7   am
    45     3     4    2
    46     3     2    1
    47     1     2    1
    48     8     7    2
    49     7     6    1
    50    56    57    1
    51     6     5    1
    52     6     9    1
    53    64    65    1
    54    67    66    2
    55    57    58   ar
    56    57    59   ar
    57     9    10    1
    58    11    10    1
    59    58    60   ar
    60    65    66    1
    61    65    68    1
    62    66    74   am
    63    59    61   ar
    64    71    69   ar
    65    71    73   ar
    66    68    69    1
    67    69    70   ar
    68   101    99    1
    69    73    72   ar
    70   100    99    1
    71    10    12    1
    72    70    72   ar
    73    99    98    2
    74    76    77    2
    75    76    75    1
    76    60    62   ar
    77    74    75    1
    78    61    62   ar
    79    75    78    1
    80    98    97    1
    81    62    63    1
    82    97    96    1
    83    78    79    1
    84    83    84    1
    85    79    80    1
    86    96    95    1
    87   120   118   am
    88    84    85    1
    89    84    87    1
    90    86    85    2
    91    82    81    1
    92   117   118    1
    93   117   114    1
    94    85    91   am
    95   118   119    2
    96    80    81    1
    97    91    92    1
    98    95    92    1
    99    90    88    1
   100    92    93    1
   101   116   115    2
   102    88    87    1
   103    88    89    1
   104   115   114    1
   105   114   113    1
   106   113   108   am
   107   105   104    2
   108    93    94    2
   109   107   108    1
   110   107   110    1
   111   107   106    1
   112   108   109    2
   113   112   110    1
   114   110   111    1
   115   104   106   am
   116   104   103    1
   117   102   103    1
