@<TRIPOS>MOLECULE
tmp/5dqeB01.pdb
 113 112 0 0 0
SMALL
GASTEIGER

@<TRIPOS>ATOM
      1  N         62.3630   21.1020  -23.6220 N.3    49  ILE49      -0.1245
      2  CA        61.0010   21.5690  -23.8770 C.3    49  ILE49       0.1561
      3  C         60.8720   23.0920  -23.7560 C.2    49  ILE49       0.2260
      4  O         59.7620   23.6150  -23.8230 O.2    49  ILE49      -0.2867
      5  CB        59.9870   20.8720  -22.9260 C.3    49  ILE49       0.0252
      6  CG1       60.1330   21.3870  -21.4950 C.3    49  ILE49       0.0019
      7  CG2       60.1870   19.3510  -22.9330 C.3    49  ILE49       0.0019
      8  CD1       59.0770   20.8010  -20.5520 C.3    49  ILE49       0.0001
      9  N         58.5860   24.8420  -26.3050 N.3    52  LYS52      -0.1245
     10  CA        57.1530   24.5860  -26.3610 C.3    52  LYS52       0.1561
     11  C         56.3970   25.4600  -25.3460 C.2    52  LYS52       0.2260
     12  O         55.1710   25.3930  -25.2410 O.2    52  LYS52      -0.2867
     13  CB        56.8920   23.0970  -26.1260 C.3    52  LYS52       0.0271
     14  CG        57.5960   22.1810  -27.1490 C.3    52  LYS52       0.0035
     15  CD        56.5880   21.5240  -28.1200 C.3    52  LYS52       0.0206
     16  CE        57.1440   21.2750  -29.5350 C.3    52  LYS52       0.1093
     17  NZ        57.3620   19.8390  -29.8460 N.3    52  LYS52      -0.1314
     18  N         52.7910   14.0100  -18.8570 N.3    76  LYS76      -0.1231
     19  CA        52.2420   13.5830  -20.1380 C.3    76  LYS76       0.1693
     20  C         50.8660   12.9910  -19.8880 C.2    76  LYS76       0.2592
     21  O         50.7230   12.0290  -19.1320 O.2    76  LYS76      -0.2718
     22  CB        53.1170   12.5300  -20.8630 C.3    76  LYS76       0.0285
     23  CG        54.5560   12.9440  -21.1400 C.3    76  LYS76       0.0035
     24  CD        55.4020   11.7770  -21.6730 C.3    76  LYS76       0.0206
     25  CE        56.5090   12.2340  -22.6320 C.3    76  LYS76       0.1093
     26  NZ        57.8940   12.2310  -22.0660 N.3    76  LYS76      -0.1314
     27  N         49.8640   13.5470  -20.5600 N.am   77  PHE77      -0.1962
     28  CA        48.5040   12.9970  -20.5470 C.3    77  PHE77       0.1771
     29  C         48.2040   12.2890  -21.8600 C.2    77  PHE77       0.2619
     30  O         48.5220   12.7940  -22.9430 O.2    77  PHE77      -0.2715
     31  CB        47.4750   14.0900  -20.3790 C.3    77  PHE77       0.0574
     32  CG        47.2910   14.5650  -18.9780 C.ar   77  PHE77      -0.0200
     33  CD1       46.9660   13.6950  -17.9600 C.ar   77  PHE77      -0.0042
     34  CD2       47.3600   15.8890  -18.7040 C.ar   77  PHE77      -0.0042
     35  CE1       46.7230   14.1430  -16.6880 C.ar   77  PHE77      -0.0003
     36  CE2       47.1270   16.3560  -17.3960 C.ar   77  PHE77      -0.0003
     37  CZ        46.8150   15.4560  -16.3980 C.ar   77  PHE77      -0.0000
     38  N         47.5500   11.1430  -21.7310 N.am   78  TRP78      -0.1974
     39  CA        46.7880   10.5850  -22.8220 C.3    78  TRP78       0.1640
     40  C         45.3440   10.9090  -22.5130 C.2    78  TRP78       0.2290
     41  O         44.7490   10.3420  -21.6010 O.2    78  TRP78      -0.2864
     42  CB        47.0320    9.0980  -22.9560 C.3    78  TRP78       0.0576
     43  CG        48.3980    8.7990  -23.4540 C.ar   78  TRP78       0.0006
     44  CD1       48.7830    8.6060  -24.7530 C.ar   78  TRP78       0.0946
     45  CD2       49.5640    8.6590  -22.6750 C.ar   78  TRP78       0.0152
     46  NE1       50.1250    8.3350  -24.8140 N.ar   78  TRP78      -0.2442
     47  CE2       50.6230    8.3910  -23.5330 C.ar   78  TRP78       0.0810
     48  CE3       49.8040    8.7540  -21.2980 C.ar   78  TRP78       0.0012
     49  CZ2       51.9100    8.1740  -23.0870 C.ar   78  TRP78       0.0191
     50  CZ3       51.0980    8.5270  -20.8550 C.ar   78  TRP78       0.0001
     51  CH2       52.1320    8.2650  -21.7510 C.ar   78  TRP78       0.0015
     52  N         48.1640   18.3690  -31.3480 N.3   163  LEU163     -0.1231
     53  CA        48.4950   18.5270  -29.9270 C.3   163  LEU163      0.1693
     54  C         49.9880   18.7160  -29.6530 C.2   163  LEU163      0.2591
     55  O         50.3700   19.1750  -28.5780 O.2   163  LEU163     -0.2718
     56  CB        47.9970   17.3360  -29.1340 C.3   163  LEU163      0.0284
     57  CG        46.4990   17.4040  -28.8690 C.3   163  LEU163      0.0019
     58  CD1       46.0780   15.9790  -28.3810 C.3   163  LEU163      0.0001
     59  CD2       46.1310   18.5350  -27.8300 C.3   163  LEU163      0.0001
     60  N         50.8310   18.3910  -30.6110 N.am  164  GLU164     -0.1979
     61  CA        52.2530   18.6000  -30.4070 C.3   164  GLU164      0.1602
     62  C         52.5530   20.0710  -30.2130 C.2   164  GLU164      0.2287
     63  O         53.6050   20.4390  -29.6860 O.2   164  GLU164     -0.2864
     64  CB        53.1000   18.0810  -31.5890 C.3   164  GLU164      0.0415
     65  CG        53.4120   16.6150  -31.5300 C.3   164  GLU164      0.1163
     66  CD        54.1100   16.1640  -32.7950 C.2   164  GLU164      0.3649
     67  OE1       54.9680   16.9500  -33.2610 O.co2 164  GLU164     -0.2457
     68  OE2       53.7900   15.0680  -33.3330 O.co2 164  GLU164     -0.2457
     69  N         50.5780   22.2680  -28.5610 N.3   166  PHE166     -0.1227
     70  CA        49.8650   22.8790  -27.4190 C.3   166  PHE166      0.1736
     71  C         50.3550   22.3690  -26.1550 C.2   166  PHE166      0.2596
     72  O         50.5490   21.1630  -26.0000 O.2   166  PHE166     -0.2718
     73  CB        48.3700   22.6310  -27.4790 C.3   166  PHE166      0.0547
     74  CG        47.7010   23.4450  -28.5490 C.ar  166  PHE166     -0.0202
     75  CD1       47.3450   24.7670  -28.2960 C.ar  166  PHE166     -0.0042
     76  CD2       47.4920   22.9270  -29.8250 C.ar  166  PHE166     -0.0042
     77  CE1       46.7450   25.5640  -29.2750 C.ar  166  PHE166     -0.0003
     78  CE2       46.9010   23.7200  -30.8330 C.ar  166  PHE166     -0.0003
     79  CZ        46.5160   25.0480  -30.5450 C.ar  166  PHE166     -0.0000
     80  N         50.5960   23.2760  -25.2350 N.am  167  THR167     -0.1953
     81  CA        51.0330   22.8980  -23.9160 C.3   167  THR167      0.1897
     82  C         50.3700   23.7940  -22.8570 C.2   167  THR167      0.2313
     83  O         49.8980   24.8950  -23.1650 O.2   167  THR167     -0.2863
     84  CB        52.5210   23.0160  -23.8210 C.3   167  THR167      0.1794
     85  OG1       52.8590   24.4010  -24.0090 O.3   167  THR167     -0.2208
     86  CG2       53.1690   22.1360  -24.8960 C.3   167  THR167      0.0378
     87  N         51.8480   18.1290  -21.2980 N.3   187  VAL187     -0.1231
     88  CA        51.8070   17.8370  -22.7030 C.3   187  VAL187      0.1692
     89  C         50.8200   16.7000  -22.9650 C.2   187  VAL187      0.2592
     90  O         50.5950   15.8500  -22.0920 O.2   187  VAL187     -0.2718
     91  CB        53.1820   17.5070  -23.2420 C.3   187  VAL187      0.0266
     92  CG1       54.0620   18.7060  -23.0810 C.3   187  VAL187      0.0020
     93  CG2       53.8000   16.2640  -22.5890 C.3   187  VAL187      0.0020
     94  N         50.2640   16.6900  -24.1790 N.am  188  PHE188     -0.1962
     95  CA        49.1150   15.8450  -24.5220 C.3   188  PHE188      0.1771
     96  C         49.2250   15.0050  -25.8190 C.2   188  PHE188      0.2619
     97  O         49.7690   15.4300  -26.8600 O.2   188  PHE188     -0.2715
     98  CB        47.8580   16.6930  -24.6910 C.3   188  PHE188      0.0574
     99  CG        47.5350   17.5610  -23.5240 C.ar  188  PHE188     -0.0200
    100  CD1       48.1580   18.7860  -23.3550 C.ar  188  PHE188     -0.0042
    101  CD2       46.6260   17.1350  -22.5890 C.ar  188  PHE188     -0.0042
    102  CE1       47.8740   19.5810  -22.2670 C.ar  188  PHE188     -0.0003
    103  CE2       46.3060   17.9250  -21.4780 C.ar  188  PHE188     -0.0003
    104  CZ        46.9400   19.1410  -21.3120 C.ar  188  PHE188     -0.0000
    105  N         48.6410   13.8320  -25.7050 N.am  189  GLU189     -0.1977
    106  CA        48.2940   12.9680  -26.8150 C.3   189  GLU189      0.1602
    107  C         46.8790   12.5190  -26.6070 C.2   189  GLU189      0.2287
    108  O         46.3590   12.6570  -25.5000 O.2   189  GLU189     -0.2864
    109  CB        49.1770   11.7500  -26.8730 C.3   189  GLU189      0.0415
    110  CG        50.5560   12.0630  -27.3610 C.3   189  GLU189      0.1163
    111  CD        51.2540   10.8370  -27.8710 C.2   189  GLU189      0.3649
    112  OE1       50.6820    9.7150  -27.7570 O.co2 189  GLU189     -0.2457
    113  OE2       52.3640   11.0020  -28.4240 O.co2 189  GLU189     -0.2457
@<TRIPOS>BOND
     1    68    66   ar
     2    67    66   ar
     3    66    65    1
     4    64    65    1
     5    64    61    1
     6    52    53    1
     7    78    79   ar
     8    78    76   ar
     9    60    61    1
    10    60    54   am
    11    79    77   ar
    12    61    62    1
    13    62    63    2
    14    53    54    1
    15    53    56    1
    16    17    16    1
    17    76    74   ar
    18    54    55    2
    19    16    15    1
    20    77    75   ar
    21    56    57    1
    22    57    58    1
    23    57    59    1
    24    69    70    1
    25    74    75   ar
    26    74    73    1
    27   113   111   ar
    28    15    14    1
    29   111   112   ar
    30   111   110    1
    31    73    70    1
    32    70    71    1
    33   110   109    1
    34    14    13    1
    35   109   106    1
    36    97    96    2
    37   106   107    1
    38   106   105    1
    39   107   108    2
    40    10     9    1
    41    10    13    1
    42    10    11    1
    43    71    72    2
    44    71    80   am
    45    96   105   am
    46    96    95    1
    47    11    12    2
    48    80    81    1
    49    86    84    1
    50    46    44   ar
    51    46    47   ar
    52    44    43   ar
    53    98    95    1
    54    98    99    1
    55    95    94    1
    56    94    89   am
    57    85    84    1
    58    81    84    1
    59    81    82    1
    60     2     3    1
    61     2     1    1
    62     2     5    1
    63     4     3    2
    64    47    49   ar
    65    47    45   ar
    66    99   100   ar
    67    99   101   ar
    68    43    42    1
    69    43    45   ar
    70   100   102   ar
    71    91    92    1
    72    91    88    1
    73    91    93    1
    74    83    82    2
    75    49    51   ar
    76    89    88    1
    77    89    90    2
    78    42    39    1
    79    30    29    2
    80     7     5    1
    81     5     6    1
    82    39    40    1
    83    39    38    1
    84    88    87    1
    85    45    48   ar
    86    25    26    1
    87    25    24    1
    88   101   103   ar
    89    40    41    2
    90   102   104   ar
    91    29    38   am
    92    29    28    1
    93    51    50   ar
    94    24    23    1
    95     6     8    1
    96   103   104   ar
    97    48    50   ar
    98    23    22    1
    99    22    19    1
   100    27    28    1
   101    27    20   am
   102    28    31    1
   103    31    32    1
   104    19    20    1
   105    19    18    1
   106    20    21    2
   107    32    34   ar
   108    32    33   ar
   109    34    36   ar
   110    33    35   ar
   111    36    37   ar
   112    35    37   ar
