@<TRIPOS>MOLECULE
tmp/5dqeB00.pdb
 148 139 0 0 0
SMALL
GASTEIGER

@<TRIPOS>ATOM
      1  N         43.4960   16.1040   -9.5470 N.3    14  PHE14      -0.1241
      2  CA        43.2560   16.9890  -10.6670 C.3    14  PHE14       0.1605
      3  C         42.4130   16.2860  -11.7390 C.2    14  PHE14       0.2264
      4  O         42.6580   15.1280  -12.0570 O.2    14  PHE14      -0.2867
      5  CB        44.5510   17.4650  -11.2820 C.3    14  PHE14       0.0534
      6  CG        44.3440   18.2940  -12.4590 C.ar   14  PHE14      -0.0203
      7  CD1       43.9830   19.6240  -12.3240 C.ar   14  PHE14      -0.0042
      8  CD2       44.4500   17.7610  -13.7210 C.ar   14  PHE14      -0.0042
      9  CE1       43.7990   20.4250  -13.4560 C.ar   14  PHE14      -0.0003
     10  CE2       44.2600   18.5580  -14.8590 C.ar   14  PHE14      -0.0003
     11  CZ        43.9260   19.8930  -14.7110 C.ar   14  PHE14      -0.0000
     12  N         39.8610   17.1430  -15.4760 N.3    16  ALA16      -0.1245
     13  CA        39.1120   17.9400  -16.4010 C.3    16  ALA16       0.1562
     14  C         37.9940   17.0250  -16.9020 C.2    16  ALA16       0.2260
     15  O         38.2360   15.8920  -17.2430 O.2    16  ALA16      -0.2867
     16  CB        40.0130   18.4380  -17.5630 C.3    16  ALA16       0.0290
     17  N         41.0570   14.0830  -18.6520 N.3    33  VAL33      -0.1245
     18  CA        42.2900   13.7490  -17.9620 C.3    33  VAL33       0.1561
     19  C         42.0070   13.7140  -16.4440 C.2    33  VAL33       0.2260
     20  O         41.0290   14.3330  -15.9440 O.2    33  VAL33      -0.2867
     21  CB        43.3920   14.7350  -18.2480 C.3    33  VAL33       0.0252
     22  CG1       43.7820   14.7290  -19.7070 C.3    33  VAL33       0.0019
     23  CG2       42.9750   16.1090  -17.8080 C.3    33  VAL33       0.0019
     24  N         49.8640   13.5470  -20.5600 N.3    77  PHE77      -0.1241
     25  CA        48.5040   12.9970  -20.5470 C.3    77  PHE77       0.1605
     26  C         48.2040   12.2890  -21.8600 C.2    77  PHE77       0.2264
     27  O         48.5220   12.7940  -22.9430 O.2    77  PHE77      -0.2867
     28  CB        47.4750   14.0900  -20.3790 C.3    77  PHE77       0.0534
     29  CG        47.2910   14.5650  -18.9780 C.ar   77  PHE77      -0.0203
     30  CD1       46.9660   13.6950  -17.9600 C.ar   77  PHE77      -0.0042
     31  CD2       47.3600   15.8890  -18.7040 C.ar   77  PHE77      -0.0042
     32  CE1       46.7230   14.1430  -16.6880 C.ar   77  PHE77      -0.0003
     33  CE2       47.1270   16.3560  -17.3960 C.ar   77  PHE77      -0.0003
     34  CZ        46.8150   15.4560  -16.3980 C.ar   77  PHE77      -0.0000
     35  N         36.9840   21.9180  -14.6330 N.3    89  VAL89      -0.1245
     36  CA        38.2830   21.5830  -14.1170 C.3    89  VAL89       0.1561
     37  C         38.2440   21.6760  -12.5800 C.2    89  VAL89       0.2260
     38  O         37.6360   22.6030  -12.0110 O.2    89  VAL89      -0.2867
     39  CB        39.3600   22.5100  -14.7020 C.3    89  VAL89       0.0252
     40  CG1       40.7340   22.0590  -14.2250 C.3    89  VAL89       0.0019
     41  CG2       39.3680   22.4740  -16.2510 C.3    89  VAL89       0.0019
     42  N         47.3370   29.2560  -14.7100 N.3   105  SER105     -0.1202
     43  CA        47.3680   28.3180  -15.8090 C.3   105  SER105      0.2020
     44  C         47.5320   29.0390  -17.1420 C.2   105  SER105      0.2619
     45  O         46.7490   29.9230  -17.4750 O.2   105  SER105     -0.2717
     46  CB        46.0930   27.4930  -15.8170 C.3   105  SER105      0.2103
     47  OG        45.9810   26.7330  -14.6230 O.3   105  SER105     -0.2182
     48  N         48.5530   28.6520  -17.8890 N.am  106  LYS106     -0.1965
     49  CA        48.8730   29.2820  -19.1640 C.3   106  LYS106      0.1728
     50  C         48.8480   28.2660  -20.3240 C.2   106  LYS106      0.2616
     51  O         49.5160   27.2420  -20.2550 O.2   106  LYS106     -0.2715
     52  CB        50.2480   29.8890  -19.1420 C.3   106  LYS106      0.0311
     53  CG        50.6010   30.7050  -17.9170 C.3   106  LYS106      0.0038
     54  CD        52.0090   31.2920  -18.1210 C.3   106  LYS106      0.0206
     55  CE        52.3230   32.4300  -17.1610 C.3   106  LYS106      0.1093
     56  NZ        52.7170   31.8430  -15.8680 N.3   106  LYS106     -0.1314
     57  N         48.0860   28.5800  -21.3710 N.am  107  VAL107     -0.1977
     58  CA        48.0360   27.7970  -22.5830 C.3   107  VAL107      0.1596
     59  C         49.0260   28.3720  -23.5880 C.2   107  VAL107      0.2287
     60  O         49.0100   29.5530  -23.8760 O.2   107  VAL107     -0.2864
     61  CB        46.6100   27.7730  -23.1840 C.3   107  VAL107      0.0276
     62  CG1       46.5850   26.8710  -24.3690 C.3   107  VAL107      0.0022
     63  CG2       45.6240   27.2550  -22.2030 C.3   107  VAL107      0.0022
     64  N         46.5250   32.1270  -23.7050 N.3   115  VAL115     -0.1245
     65  CA        45.5560   32.3670  -22.6330 C.3   115  VAL115      0.1561
     66  C         46.2500   32.1980  -21.3050 C.2   115  VAL115      0.2260
     67  O         47.1570   31.3840  -21.1930 O.2   115  VAL115     -0.2867
     68  CB        44.3400   31.4200  -22.7190 C.3   115  VAL115      0.0252
     69  CG1       43.5450   31.4270  -21.4040 C.3   115  VAL115      0.0019
     70  CG2       43.4540   31.8410  -23.8390 C.3   115  VAL115      0.0019
     71  N         44.8790   32.0020  -17.0690 N.3   117  LYS117     -0.1245
     72  CA        43.8590   32.0800  -16.0300 C.3   117  LYS117      0.1561
     73  C         44.5110   32.0820  -14.6540 C.2   117  LYS117      0.2260
     74  O         45.3170   31.1940  -14.3110 O.2   117  LYS117     -0.2867
     75  CB        42.8790   30.9340  -16.1130 C.3   117  LYS117      0.0271
     76  CG        41.5410   31.2450  -15.4190 C.3   117  LYS117      0.0035
     77  CD        41.1880   30.1810  -14.4170 C.3   117  LYS117      0.0206
     78  CE        39.6510   29.9720  -14.2660 C.3   117  LYS117      0.1093
     79  NZ        39.0400   29.0750  -15.3380 N.3   117  LYS117     -0.1314
     80  N         34.6230   26.5010  -14.3410 N.3   138  PRO138     -0.2102
     81  CA        34.2080   26.3140  -15.7310 C.3   138  PRO138      0.1504
     82  C         35.4210   26.3090  -16.6720 C.2   138  PRO138      0.2576
     83  O         36.3400   27.1200  -16.5400 O.2   138  PRO138     -0.2718
     84  CB        33.2920   27.4970  -15.9710 C.3   138  PRO138      0.0282
     85  CG        32.7880   27.8310  -14.5900 C.3   138  PRO138      0.0208
     86  CD        33.9530   27.6500  -13.7140 C.3   138  PRO138      0.0893
     87  N         35.4690   25.3290  -17.5450 N.am  139  MET139     -0.1966
     88  CA        36.5020   25.2710  -18.5610 C.3   139  MET139      0.1736
     89  C         36.3460   26.4820  -19.4670 C.2   139  MET139      0.2616
     90  O         35.2400   26.7820  -19.9670 O.2   139  MET139     -0.2715
     91  CB        36.3990   23.9710  -19.3570 C.3   139  MET139      0.0427
     92  CG        37.6090   23.5820  -20.0680 C.3   139  MET139      0.0599
     93  SD        37.3910   21.9970  -20.9280 S.3   139  MET139     -0.1393
     94  CE        37.5900   20.7640  -19.6390 C.3   139  MET139      0.0692
     95  N         37.4490   27.1930  -19.6220 N.am  140  CYS140     -0.1968
     96  CA        37.5580   28.2330  -20.6300 C.3   140  CYS140      0.1712
     97  C         36.9360   27.7820  -21.9610 C.2   140  CYS140      0.2296
     98  O         37.1560   26.6620  -22.4500 O.2   140  CYS140     -0.2864
     99  CB        39.0320   28.6110  -20.8070 C.3   140  CYS140      0.0983
    100  SG        39.3250   29.6850  -22.1420 S.3   140  CYS140     -0.0798
    101  N         38.8610   26.2680  -24.7480 N.3   143  LEU143     -0.1245
    102  CA        39.3210   24.9300  -24.6000 C.3   143  LEU143      0.1561
    103  C         38.1600   24.0180  -24.9970 C.2   143  LEU143      0.2260
    104  O         38.3460   23.0570  -25.7010 O.2   143  LEU143     -0.2867
    105  CB        39.8220   24.6850  -23.1660 C.3   143  LEU143      0.0270
    106  CG        41.3580   24.6340  -23.0820 C.3   143  LEU143      0.0019
    107  CD1       41.8920   24.8000  -21.6840 C.3   143  LEU143      0.0001
    108  CD2       41.8120   23.2990  -23.6460 C.3   143  LEU143      0.0001
    109  N         50.2860   23.2700  -21.6370 N.3   168  ILE168     -0.1245
    110  CA        49.7140   24.0030  -20.5240 C.3   168  ILE168      0.1561
    111  C         50.7910   24.0130  -19.4310 C.2   168  ILE168      0.2260
    112  O         51.4700   23.0150  -19.1730 O.2   168  ILE168     -0.2867
    113  CB        48.4070   23.3870  -20.0760 C.3   168  ILE168      0.0252
    114  CG1       47.3640   23.6180  -21.1910 C.3   168  ILE168      0.0019
    115  CG2       47.9750   24.0340  -18.7480 C.3   168  ILE168      0.0019
    116  CD1       46.0560   22.9760  -20.9390 C.3   168  ILE168      0.0001
    117  N         51.0500   25.1480  -15.4890 N.3   170  GLN170     -0.1245
    118  CA        50.5310   25.6150  -14.1960 C.3   170  GLN170      0.1566
    119  C         51.6000   26.0180  -13.1960 C.2   170  GLN170      0.2260
    120  O         52.5170   25.2590  -12.8960 O.2   170  GLN170     -0.2867
    121  CB        49.6840   24.5320  -13.5600 C.3   170  GLN170      0.0367
    122  CG        48.3700   24.4160  -14.2370 C.3   170  GLN170      0.0905
    123  CD        47.4360   23.5230  -13.4970 C.2   170  GLN170      0.2608
    124  OE1       47.8520   22.5290  -12.8750 O.2   170  GLN170     -0.2717
    125  NE2       46.1600   23.8510  -13.5600 N.am  170  GLN170     -0.0878
    126  N         52.3590   20.5130  -18.8350 N.3   186  TYR186     -0.1241
    127  CA        51.4990   19.4550  -19.3040 C.3   186  TYR186      0.1605
    128  C         51.5910   19.3480  -20.8120 C.2   186  TYR186      0.2264
    129  O         51.4530   20.3680  -21.5160 O.2   186  TYR186     -0.2867
    130  CB        50.0650   19.7290  -18.9490 C.3   186  TYR186      0.0534
    131  CG        49.7370   19.7620  -17.4860 C.ar  186  TYR186     -0.0201
    132  CD1       49.3650   18.6150  -16.8330 C.ar  186  TYR186     -0.0009
    133  CD2       49.7860   20.9510  -16.7480 C.ar  186  TYR186     -0.0009
    134  CE1       49.0120   18.6210  -15.5270 C.ar  186  TYR186      0.0417
    135  CE2       49.4260   20.9580  -15.4010 C.ar  186  TYR186      0.0417
    136  CZ        49.0290   19.7830  -14.7990 C.ar  186  TYR186      0.1957
    137  OH        48.6760   19.7310  -13.4610 O.3   186  TYR186     -0.2866
    138  N         50.2640   16.6900  -24.1790 N.3   188  PHE188     -0.1241
    139  CA        49.1150   15.8450  -24.5220 C.3   188  PHE188      0.1605
    140  C         49.2250   15.0050  -25.8190 C.2   188  PHE188      0.2264
    141  O         49.7690   15.4300  -26.8600 O.2   188  PHE188     -0.2867
    142  CB        47.8580   16.6930  -24.6910 C.3   188  PHE188      0.0534
    143  CG        47.5350   17.5610  -23.5240 C.ar  188  PHE188     -0.0203
    144  CD1       48.1580   18.7860  -23.3550 C.ar  188  PHE188     -0.0042
    145  CD2       46.6260   17.1350  -22.5890 C.ar  188  PHE188     -0.0042
    146  CE1       47.8740   19.5810  -22.2670 C.ar  188  PHE188     -0.0003
    147  CE2       46.3060   17.9250  -21.4780 C.ar  188  PHE188     -0.0003
    148  CZ        46.9400   19.1410  -21.3120 C.ar  188  PHE188     -0.0000
@<TRIPOS>BOND
     1   141   140    2
     2   140   139    1
     3   104   103    2
     4   103   102    1
     5   101   102    1
     6   142   139    1
     7   142   143    1
     8   102   105    1
     9   139   138    1
    10    62    61    1
    11    60    59    2
    12    70    68    1
    13    64    65    1
    14   108   106    1
    15    59    58    1
    16   143   144   ar
    17   143   145   ar
    18   144   146   ar
    19    61    58    1
    20    61    63    1
    21   105   106    1
    22   106   107    1
    23    27    26    2
    24    68    65    1
    25    68    69    1
    26    65    66    1
    27   145   147   ar
    28    58    57    1
    29    98    97    2
    30   146   148   ar
    31   100    99    1
    32    97    96    1
    33    26    25    1
    34   109   110    1
    35   129   128    2
    36   147   148   ar
    37    57    50   am
    38    66    67    2
    39   114   116    1
    40   114   113    1
    41    93    92    1
    42    93    94    1
    43   128   127    1
    44    99    96    1
    45    96    95    1
    46    24    25    1
    47    25    28    1
    48   110   113    1
    49   110   111    1
    50    28    29    1
    51    50    51    2
    52    50    49    1
    53   113   115    1
    54    92    91    1
    55    90    89    2
    56    22    21    1
    57    95    89   am
    58    89    88    1
    59   111   112    2
    60    91    88    1
    61   127   130    1
    62   127   126    1
    63    49    52    1
    64    49    48    1
    65    52    53    1
    66    29    31   ar
    67    29    30   ar
    68   130   131    1
    69    31    33   ar
    70    17    18    1
    71    88    87    1
    72    21    18    1
    73    21    23    1
    74    54    53    1
    75    54    55    1
    76    18    19    1
    77    30    32   ar
    78    48    44   am
    79    16    13    1
    80    87    82   am
    81   131   132   ar
    82   131   133   ar
    83    45    44    2
    84    33    34   ar
    85    15    14    2
    86    55    56    1
    87    44    43    1
    88    71    72    1
    89    14    13    1
    90   132   134   ar
    91   133   135   ar
    92    32    34   ar
    93    82    83    2
    94    82    81    1
    95    19    20    2
    96    13    12    1
    97    41    39    1
    98    75    72    1
    99    75    76    1
   100    72    73    1
   101    84    81    1
   102    84    85    1
   103    46    43    1
   104    46    47    1
   105    43    42    1
   106    81    80    1
   107   134   136   ar
   108   117   118    1
   109    76    77    1
   110   135   136   ar
   111    79    78    1
   112    10    11   ar
   113    10     8   ar
   114   136   137    1
   115    11     9   ar
   116    39    40    1
   117    39    36    1
   118    73    74    2
   119    35    36    1
   120    85    86    1
   121    77    78    1
   122    80    86    1
   123   122   121    1
   124   122   123    1
   125   118   121    1
   126   118   119    1
   127    36    37    1
   128     8     6   ar
   129   125   123   am
   130   123   124    2
   131     9     7   ar
   132   119   120    2
   133    37    38    2
   134     6     7   ar
   135     6     5    1
   136     4     3    2
   137     3     2    1
   138     5     2    1
   139     2     1    1
