@<TRIPOS>MOLECULE
tmp/5dqfA06.pdb
 129 119 0 0 0
SMALL
GASTEIGER

@<TRIPOS>ATOM
      1  N        -32.0810   20.3470  -15.0360 N.3   205  ARG205     -0.1231
      2  CA       -32.1360   19.0900  -15.7610 C.3   205  ARG205      0.1694
      3  C        -32.6300   17.9210  -14.8790 C.2   205  ARG205      0.2591
      4  O        -33.4080   17.0820  -15.3480 O.2   205  ARG205     -0.2718
      5  CB       -30.7640   18.7680  -16.3530 C.3   205  ARG205      0.0321
      6  CG       -30.6140   17.3340  -16.8320 C.3   205  ARG205      0.0489
      7  CD       -29.4790   17.1050  -17.8400 C.3   205  ARG205      0.2205
      8  NE       -28.1050   17.2930  -17.3460 N.pl3 205  ARG205     -0.0865
      9  CZ       -27.4700   16.5250  -16.4450 C.cat 205  ARG205      0.5346
     10  NH1      -28.0840   15.5020  -15.8410 N.pl3 205  ARG205      0.1354
     11  NH2      -26.1930   16.7920  -16.1270 N.pl3 205  ARG205      0.1354
     12  N        -32.1850   17.8810  -13.6240 N.am  206  ALA206     -0.1980
     13  CA       -32.6070   16.8400  -12.6910 C.3   206  ALA206      0.1597
     14  C        -34.0730   16.9630  -12.3520 C.2   206  ALA206      0.2287
     15  O        -34.7680   15.9450  -12.2810 O.2   206  ALA206     -0.2864
     16  CB       -31.7790   16.8880  -11.4230 C.3   206  ALA206      0.0319
     17  N        -36.3390   18.3810  -14.3090 N.3   208  LYS208     -0.1231
     18  CA       -37.0460   18.0360  -15.5350 C.3   208  LYS208      0.1693
     19  C        -37.1300   16.5210  -15.7010 C.2   208  LYS208      0.2591
     20  O        -38.2050   16.0000  -15.9990 O.2   208  LYS208     -0.2718
     21  CB       -36.3940   18.6600  -16.7700 C.3   208  LYS208      0.0285
     22  CG       -36.9130   20.0500  -17.0880 C.3   208  LYS208      0.0035
     23  CD       -35.9870   20.7830  -18.0560 C.3   208  LYS208      0.0206
     24  CE       -36.6390   22.0080  -18.6620 C.3   208  LYS208      0.1093
     25  NZ       -37.2240   22.8940  -17.6270 N.3   208  LYS208     -0.1314
     26  N        -36.0120   15.8380  -15.4830 N.am  209  ALA209     -0.1980
     27  CA       -35.9530   14.3760  -15.6150 C.3   209  ALA209      0.1597
     28  C        -36.9600   13.7130  -14.6790 C.2   209  ALA209      0.2287
     29  O        -37.8400   12.9580  -15.1090 O.2   209  ALA209     -0.2864
     30  CB       -34.5420   13.8710  -15.3310 C.3   209  ALA209      0.0319
     31  N        -40.4340   14.4620  -15.9900 N.3   212  VAL212     -0.1245
     32  CA       -40.7820   13.6210  -17.1550 C.3   212  VAL212      0.1561
     33  C        -41.2370   12.2270  -16.7090 C.2   212  VAL212      0.2260
     34  O        -42.2620   11.7250  -17.1720 O.2   212  VAL212     -0.2867
     35  CB       -39.6270   13.4810  -18.1780 C.3   212  VAL212      0.0252
     36  CG1      -39.9520   12.4210  -19.2150 C.3   212  VAL212      0.0019
     37  CG2      -39.3800   14.7870  -18.9140 C.3   212  VAL212      0.0019
     38  N        -45.5910   12.6660  -26.1670 N.3   224  PHE224     -0.1241
     39  CA       -44.3390   13.2400  -25.6560 C.3   224  PHE224      0.1605
     40  C        -44.3500   14.7720  -25.6810 C.2   224  PHE224      0.2264
     41  O        -43.8140   15.4020  -24.7750 O.2   224  PHE224     -0.2867
     42  CB       -43.1200   12.7050  -26.4100 C.3   224  PHE224      0.0534
     43  CG       -41.7900   13.1660  -25.8480 C.ar  224  PHE224     -0.0203
     44  CD1      -41.4920   13.0300  -24.4990 C.ar  224  PHE224     -0.0042
     45  CD2      -40.8210   13.7290  -26.6800 C.ar  224  PHE224     -0.0042
     46  CE1      -40.2600   13.4470  -23.9870 C.ar  224  PHE224     -0.0003
     47  CE2      -39.5920   14.1500  -26.1780 C.ar  224  PHE224     -0.0003
     48  CZ       -39.3080   14.0030  -24.8320 C.ar  224  PHE224     -0.0000
     49  N        -28.7560   13.8700  -27.8670 N.3   319  LYS319     -0.1231
     50  CA       -28.7010   13.0050  -26.6810 C.3   319  LYS319      0.1693
     51  C        -29.8980   13.2400  -25.7550 C.2   319  LYS319      0.2592
     52  O        -30.7040   12.3180  -25.5290 O.2   319  LYS319     -0.2718
     53  CB       -27.3710   13.1790  -25.9250 C.3   319  LYS319      0.0285
     54  CG       -26.2080   12.6320  -26.7280 C.3   319  LYS319      0.0035
     55  CD       -24.8680   12.5180  -26.0270 C.3   319  LYS319      0.0206
     56  CE       -23.8940   11.8500  -26.9960 C.3   319  LYS319      0.1093
     57  NZ       -22.4880   11.8880  -26.5350 N.3   319  LYS319     -0.1314
     58  N        -30.0460   14.4940  -25.3070 N.am  320  ASP320     -0.1974
     59  CA       -31.0710   14.8750  -24.3190 C.3   320  ASP320      0.1709
     60  C        -32.5020   14.6240  -24.8090 C.2   320  ASP320      0.2293
     61  O        -33.3920   14.3830  -23.9950 O.2   320  ASP320     -0.2864
     62  CB       -30.8980   16.3400  -23.8840 C.3   320  ASP320      0.1436
     63  CG       -29.5560   16.5980  -23.1570 C.2   320  ASP320      0.3671
     64  OD1      -29.3240   16.0590  -22.0450 O.co2 320  ASP320     -0.2456
     65  OD2      -28.7320   17.3640  -23.7000 O.co2 320  ASP320     -0.2456
     66  N        -32.9030   10.4430  -25.1530 N.3   323  LEU323     -0.1231
     67  CA       -33.0270    9.9170  -23.7920 C.3   323  LEU323      0.1693
     68  C        -34.3290   10.3250  -23.1190 C.2   323  LEU323      0.2592
     69  O        -34.9210    9.5400  -22.3490 O.2   323  LEU323     -0.2718
     70  CB       -31.8440   10.3780  -22.9370 C.3   323  LEU323      0.0284
     71  CG       -30.4710    9.8470  -23.3730 C.3   323  LEU323      0.0019
     72  CD1      -29.3550   10.4680  -22.5290 C.3   323  LEU323      0.0001
     73  CD2      -30.4170    8.3200  -23.3170 C.3   323  LEU323      0.0001
     74  N        -34.7630   11.5540  -23.3900 N.am  324  GLY324     -0.1957
     75  CA       -36.0300   12.0330  -22.9010 C.3   324  GLY324      0.1869
     76  C        -37.1720   11.1900  -23.3850 C.2   324  GLY324      0.2309
     77  O        -38.0470   10.8170  -22.5930 O.2   324  GLY324     -0.2863
     78  N        -37.1300    7.9330  -21.6700 N.3   327  LEU327     -0.1245
     79  CA       -37.5900    8.0360  -20.3010 C.3   327  LEU327      0.1561
     80  C        -39.1170    8.1730  -20.2740 C.2   327  LEU327      0.2260
     81  O        -39.7640    7.5110  -19.4870 O.2   327  LEU327     -0.2867
     82  CB       -36.8710    9.1680  -19.5680 C.3   327  LEU327      0.0270
     83  CG       -37.2870    9.3970  -18.1170 C.3   327  LEU327      0.0019
     84  CD1      -36.8970    8.2430  -17.2220 C.3   327  LEU327      0.0001
     85  CD2      -36.7110   10.7170  -17.5980 C.3   327  LEU327      0.0001
     86  N        -35.2250    6.7770  -13.1820 N.3   343  LEU343     -0.1245
     87  CA       -34.0490    7.5920  -13.4240 C.3   343  LEU343      0.1561
     88  C        -32.7650    6.7390  -13.4380 C.2   343  LEU343      0.2260
     89  O        -31.8810    6.9920  -14.2530 O.2   343  LEU343     -0.2867
     90  CB       -33.9620    8.7130  -12.3830 C.3   343  LEU343      0.0270
     91  CG       -35.1240    9.7400  -12.3790 C.3   343  LEU343      0.0019
     92  CD1      -34.7850   10.8970  -11.4780 C.3   343  LEU343      0.0001
     93  CD2      -35.5090   10.2530  -13.7500 C.3   343  LEU343      0.0001
     94  N        -32.8690    4.9480  -16.8180 N.3   346  ALA346     -0.1231
     95  CA       -32.4260    5.9100  -17.8480 C.3   346  ALA346      0.1694
     96  C        -30.9150    6.1410  -17.8530 C.2   346  ALA346      0.2591
     97  O        -30.3050    6.2150  -18.9120 O.2   346  ALA346     -0.2718
     98  CB       -33.1570    7.2350  -17.6880 C.3   346  ALA346      0.0304
     99  N        -30.3190    6.2940  -16.6840 N.am  347  LYS347     -0.1980
    100  CA       -28.8720    6.4290  -16.6260 C.3   347  LYS347      0.1596
    101  C        -28.1580    5.1510  -17.0870 C.2   347  LYS347      0.2287
    102  O        -27.1110    5.2300  -17.7160 O.2   347  LYS347     -0.2864
    103  CB       -28.3730    6.8650  -15.2360 C.3   347  LYS347      0.0298
    104  CG       -28.7110    8.3210  -14.8980 C.3   347  LYS347      0.0038
    105  CD       -27.5560    9.0720  -14.2250 C.3   347  LYS347      0.0206
    106  CE       -27.9560   10.5230  -13.9140 C.3   347  LYS347      0.1093
    107  NZ       -26.8490   11.4050  -13.4210 N.3   347  LYS347     -0.1314
    108  N        -28.3900    5.1650  -20.9960 N.3   350  GLU350     -0.1245
    109  CA       -27.3660    6.1000  -21.4660 C.3   350  GLU350      0.1567
    110  C        -25.9790    5.5020  -21.3980 C.2   350  GLU350      0.2260
    111  O        -25.2670    5.5060  -22.3930 O.2   350  GLU350     -0.2867
    112  CB       -27.4060    7.3780  -20.6570 C.3   350  GLU350      0.0388
    113  CG       -26.4310    8.4470  -21.1400 C.3   350  GLU350      0.1160
    114  CD       -26.3010    9.6100  -20.2040 C.2   350  GLU350      0.3649
    115  OE1      -26.8830    9.6110  -19.1010 O.co2 350  GLU350     -0.2457
    116  OE2      -25.5870   10.5530  -20.5600 O.co2 350  GLU350     -0.2457
    117  N        -28.4590   12.1270   -7.5400 N.3   477  LEU477     -0.1231
    118  CA       -29.7560   12.0600   -6.8930 C.3   477  LEU477      0.1693
    119  C        -30.4240   10.6990   -7.0950 C.2   477  LEU477      0.2591
    120  O        -31.0100   10.1520   -6.1790 O.2   477  LEU477     -0.2718
    121  CB       -30.6680   13.1440   -7.4570 C.3   477  LEU477      0.0284
    122  CG       -32.0820   13.2740   -6.8850 C.3   477  LEU477      0.0019
    123  CD1      -32.0450   13.6130   -5.4000 C.3   477  LEU477      0.0001
    124  CD2      -32.8430   14.3500   -7.6390 C.3   477  LEU477      0.0001
    125  N        -30.3190   10.1700   -8.3020 N.am  478  ALA478     -0.1980
    126  CA       -30.8820    8.8700   -8.6200 C.3   478  ALA478      0.1597
    127  C        -30.3240    7.7390   -7.7140 C.2   478  ALA478      0.2287
    128  O        -31.0820    6.8430   -7.2960 O.2   478  ALA478     -0.2864
    129  CB       -30.6120    8.5450  -10.0860 C.3   478  ALA478      0.0319
@<TRIPOS>BOND
     1    49    50    1
     2    56    57    1
     3    56    55    1
     4    54    55    1
     5    54    53    1
     6    50    53    1
     7    50    51    1
     8    45    47   ar
     9    45    43   ar
    10    42    43    1
    11    42    39    1
    12    47    48   ar
    13    38    39    1
    14    43    44   ar
    15    51    52    2
    16    51    58   am
    17    40    39    1
    18    40    41    2
    19    58    59    1
    20    66    67    1
    21    48    46   ar
    22    60    59    1
    23    60    61    2
    24    44    46   ar
    25    59    62    1
    26    62    63    1
    27    67    68    1
    28    67    70    1
    29    65    63   ar
    30    74    68   am
    31    74    75    1
    32    76    75    1
    33    76    77    2
    34    71    73    1
    35    71    70    1
    36    71    72    1
    37    63    64   ar
    38    68    69    2
    39   111   110    2
    40    78    79    1
    41   109   110    1
    42   109   108    1
    43   109   112    1
    44   113   112    1
    45   113   114    1
    46   116   114   ar
    47    79    80    1
    48    79    82    1
    49    80    81    2
    50   114   115   ar
    51    82    83    1
    52    36    35    1
    53    37    35    1
    54    97    96    2
    55    24    23    1
    56    24    25    1
    57    35    32    1
    58    83    85    1
    59    83    84    1
    60    23    22    1
    61    96    95    1
    62    96    99   am
    63    95    98    1
    64    95    94    1
    65     7     8    1
    66     7     6    1
    67   102   101    2
    68     8     9    2
    69    34    33    2
    70    32    33    1
    71    32    31    1
    72    22    21    1
    73   101   100    1
    74     6     5    1
    75    21    18    1
    76    99   100    1
    77   100   103    1
    78     9    11    1
    79     9    10    1
    80     5     2    1
    81    20    19    2
    82     2     1    1
    83     2     3    1
    84    19    18    1
    85    19    26   am
    86    27    26    1
    87    27    30    1
    88    27    28    1
    89    18    17    1
    90     4     3    2
    91   103   104    1
    92    29    28    2
    93   104   105    1
    94     3    12   am
    95    89    88    2
    96   105   106    1
    97   106   107    1
    98    93    91    1
    99    12    13    1
   100    88    87    1
   101    87    86    1
   102    87    90    1
   103    13    14    1
   104    13    16    1
   105    90    91    1
   106    91    92    1
   107    14    15    2
   108   129   126    1
   109   126   125    1
   110   126   127    1
   111   125   119   am
   112   127   128    2
   113   124   122    1
   114   117   118    1
   115   121   118    1
   116   121   122    1
   117   119   118    1
   118   119   120    2
   119   122   123    1
