@<TRIPOS>MOLECULE
tmp/5dqfA05.pdb
 141 132 0 0 0
SMALL
GASTEIGER

@<TRIPOS>ATOM
      1  N        -56.8100   40.5330   -4.6760 N.3    13  GLU13      -0.1231
      2  CA       -56.2920   41.0150   -3.3900 C.3    13  GLU13       0.1699
      3  C        -56.0940   39.9120   -2.3510 C.2    13  GLU13       0.2592
      4  O        -55.0590   39.8430   -1.6920 O.2    13  GLU13      -0.2718
      5  CB       -57.2080   42.1020   -2.8180 C.3    13  GLU13       0.0402
      6  CG       -56.6610   42.7770   -1.5660 C.3    13  GLU13       0.1161
      7  CD       -57.5010   43.9600   -1.1120 C.2    13  GLU13       0.3649
      8  OE1      -56.9930   44.8140   -0.3660 O.co2  13  GLU13      -0.2457
      9  OE2      -58.6730   44.0500   -1.5010 O.co2  13  GLU13      -0.2457
     10  N        -57.0920   39.0610   -2.1990 N.am   14  LYS14      -0.1966
     11  CA       -57.0220   37.9450   -1.2630 C.3    14  LYS14       0.1728
     12  C        -55.7620   37.0740   -1.4660 C.2    14  LYS14       0.2616
     13  O        -54.9520   36.9250   -0.5460 O.2    14  LYS14      -0.2715
     14  CB       -58.2900   37.1040   -1.3280 C.3    14  LYS14       0.0311
     15  CG       -58.4340   36.1420   -0.1760 C.3    14  LYS14       0.0038
     16  CD       -59.5730   35.1440   -0.3640 C.3    14  LYS14       0.0206
     17  CE       -59.5310   34.1300    0.7730 C.3    14  LYS14       0.1093
     18  NZ       -60.4130   32.9610    0.5710 N.3    14  LYS14      -0.1314
     19  N        -55.6010   36.5310   -2.6610 N.am   15  HIS15      -0.1973
     20  CA       -54.4960   35.6620   -2.9440 C.3    15  HIS15       0.1656
     21  C        -53.1780   36.4620   -2.9810 C.2    15  HIS15       0.2291
     22  O        -52.1760   35.9770   -2.5000 O.2    15  HIS15      -0.2864
     23  CB       -54.7220   34.8350   -4.2230 C.3    15  HIS15       0.0771
     24  CG       -55.8000   33.8000   -4.0930 C.ar   15  HIS15       0.0820
     25  ND1      -56.2050   33.0100   -5.1510 N.ar   15  HIS15      -0.2267
     26  CD2      -56.5710   33.4360   -3.0380 C.ar   15  HIS15       0.1154
     27  CE1      -57.1730   32.2050   -4.7530 C.ar   15  HIS15       0.1986
     28  NE2      -57.4120   32.4410   -3.4740 N.ar   15  HIS15      -0.2212
     29  N        -52.3690   39.1900   -1.1860 N.3    17  LYS17      -0.1231
     30  CA       -52.0210   39.4020    0.1970 C.3    17  LYS17       0.1693
     31  C        -51.5650   38.1280    0.8970 C.2    17  LYS17       0.2592
     32  O        -50.5200   38.1470    1.5590 O.2    17  LYS17      -0.2718
     33  CB       -53.1750   40.0370    0.9580 C.3    17  LYS17       0.0285
     34  CG       -53.4080   41.4620    0.5230 C.3    17  LYS17       0.0035
     35  CD       -54.4350   42.1450    1.3890 C.3    17  LYS17       0.0206
     36  CE       -53.8240   42.7180    2.6550 C.3    17  LYS17       0.1093
     37  NZ       -54.1280   44.1680    2.7430 N.3    17  LYS17      -0.1314
     38  N        -52.3230   37.0350    0.7420 N.am   18  GLY18      -0.1957
     39  CA       -51.9080   35.7620    1.2900 C.3    18  GLY18       0.1869
     40  C        -50.4850   35.3470    0.8960 C.2    18  GLY18       0.2309
     41  O        -49.6630   34.9850    1.7520 O.2    18  GLY18      -0.2863
     42  N        -47.7250   37.5220    2.3600 N.3    21  LEU21      -0.1245
     43  CA       -47.4800   37.1580    3.7550 C.3    21  LEU21       0.1561
     44  C        -46.6400   35.8680    3.8260 C.2    21  LEU21       0.2260
     45  O        -45.6710   35.7600    4.5840 O.2    21  LEU21      -0.2867
     46  CB       -48.7890   37.0320    4.5200 C.3    21  LEU21       0.0270
     47  CG       -48.7120   36.5530    5.9650 C.3    21  LEU21       0.0019
     48  CD1      -48.0140   37.5570    6.8540 C.3    21  LEU21       0.0001
     49  CD2      -50.1120   36.2410    6.4740 C.3    21  LEU21       0.0001
     50  N        -46.2790   38.0670   14.0610 N.3    33  PHE33      -0.1241
     51  CA       -47.2920   38.0690   13.0220 C.3    33  PHE33       0.1605
     52  C        -47.7410   39.4900   12.6840 C.2    33  PHE33       0.2264
     53  O        -47.8220   39.8520   11.5040 O.2    33  PHE33      -0.2867
     54  CB       -48.4900   37.2320   13.4420 C.3    33  PHE33       0.0534
     55  CG       -49.6590   37.3770   12.5260 C.ar   33  PHE33      -0.0203
     56  CD1      -49.5290   37.1030   11.1770 C.ar   33  PHE33      -0.0042
     57  CD2      -50.8780   37.8150   13.0050 C.ar   33  PHE33      -0.0042
     58  CE1      -50.6060   37.2470   10.3250 C.ar   33  PHE33      -0.0003
     59  CE2      -51.9560   37.9610   12.1600 C.ar   33  PHE33      -0.0003
     60  CZ       -51.8240   37.6770   10.8180 C.ar   33  PHE33      -0.0000
     61  N        -47.9580   41.6020    8.9560 N.3    37  VAL37      -0.1245
     62  CA       -49.2150   42.1720    8.4760 C.3    37  VAL37       0.1561
     63  C        -48.9860   43.5770    7.9320 C.2    37  VAL37       0.2260
     64  O        -49.5530   43.9180    6.9170 O.2    37  VAL37      -0.2867
     65  CB       -50.3010   42.2020    9.5840 C.3    37  VAL37       0.0252
     66  CG1      -51.4760   43.0660    9.1750 C.3    37  VAL37       0.0019
     67  CG2      -50.8050   40.7930    9.9070 C.3    37  VAL37       0.0019
     68  N        -47.1800   43.6730    4.6080 N.3    40  VAL40      -0.1231
     69  CA       -48.0740   43.1640    3.5790 C.3    40  VAL40       0.1692
     70  C        -49.0730   44.2480    3.1800 C.2    40  VAL40       0.2592
     71  O        -49.2900   44.4890    1.9930 O.2    40  VAL40      -0.2718
     72  CB       -48.8100   41.8820    4.0430 C.3    40  VAL40       0.0266
     73  CG1      -49.9200   41.4900    3.0620 C.3    40  VAL40       0.0020
     74  CG2      -47.8210   40.7350    4.1840 C.3    40  VAL40       0.0020
     75  N        -49.6730   44.8870    4.1750 N.am   41  ASN41      -0.1974
     76  CA       -50.5980   45.9720    3.9250 C.3    41  ASN41       0.1688
     77  C        -49.9640   47.1060    3.1270 C.2    41  ASN41       0.2292
     78  O        -50.5710   47.6110    2.1900 O.2    41  ASN41      -0.2864
     79  CB       -51.2150   46.4510    5.2340 C.3    41  ASN41       0.1181
     80  CG       -52.2780   45.4890    5.7530 C.2    41  ASN41       0.2629
     81  OD1      -52.6720   44.5580    5.0550 O.2    41  ASN41      -0.2716
     82  ND2      -52.7500   45.7200    6.9770 N.am   41  ASN41      -0.0877
     83  N        -60.3270   36.6270    9.4750 N.3   128  ASP128     -0.1225
     84  CA       -59.2200   37.0150    8.5980 C.3   128  ASP128      0.1805
     85  C        -57.8710   37.0350    9.3000 C.2   128  ASP128      0.2597
     86  O        -56.8830   36.5690    8.7340 O.2   128  ASP128     -0.2718
     87  CB       -59.4760   38.3610    7.9420 C.3   128  ASP128      0.1424
     88  CG       -60.6680   38.3370    7.0170 C.2   128  ASP128      0.3668
     89  OD1      -60.9670   37.2710    6.4270 O.co2 128  ASP128     -0.2456
     90  OD2      -61.3100   39.3970    6.8840 O.co2 128  ASP128     -0.2456
     91  N        -57.8250   37.5680   10.5180 N.am  129  LYS129     -0.1979
     92  CA       -56.5830   37.5270   11.3030 C.3   129  LYS129      0.1596
     93  C        -56.1790   36.0910   11.6650 C.2   129  LYS129      0.2287
     94  O        -54.9860   35.7520   11.6380 O.2   129  LYS129     -0.2864
     95  CB       -56.6870   38.3780   12.5750 C.3   129  LYS129      0.0298
     96  CG       -55.3470   38.5470   13.2890 C.3   129  LYS129      0.0038
     97  CD       -55.3360   39.6080   14.3780 C.3   129  LYS129      0.0206
     98  CE       -55.7710   39.0670   15.7320 C.3   129  LYS129      0.1093
     99  NZ       -56.2650   40.1810   16.5960 N.3   129  LYS129     -0.1314
    100  N        -56.9060   33.2460   10.0440 N.3   131  LEU131     -0.1231
    101  CA       -56.4090   32.4930    8.8910 C.3   131  LEU131      0.1693
    102  C        -55.0390   33.0060    8.4350 C.2   131  LEU131      0.2592
    103  O        -54.1810   32.2170    8.0460 O.2   131  LEU131     -0.2718
    104  CB       -57.4190   32.5150    7.7380 C.3   131  LEU131      0.0284
    105  CG       -58.7990   31.8950    8.0390 C.3   131  LEU131      0.0019
    106  CD1      -59.6550   31.9200    6.7760 C.3   131  LEU131      0.0001
    107  CD2      -58.7190   30.4760    8.6140 C.3   131  LEU131      0.0001
    108  N        -54.8230   34.3160    8.4940 N.am  132  GLY132     -0.1957
    109  CA       -53.5140   34.8690    8.1530 C.3   132  GLY132      0.1869
    110  C        -52.4260   34.3410    9.0640 C.2   132  GLY132      0.2309
    111  O        -51.3330   34.0200    8.6160 O.2   132  GLY132     -0.2863
    112  N        -51.3540   30.9680    7.9270 N.3   135  LEU135     -0.1245
    113  CA       -50.3780   31.1160    6.8360 C.3   135  LEU135      0.1561
    114  C        -48.9700   31.4030    7.3670 C.2   135  LEU135      0.2260
    115  O        -48.0270   30.7000    7.0340 O.2   135  LEU135     -0.2867
    116  CB       -50.7920   32.2240    5.8530 C.3   135  LEU135      0.0270
    117  CG       -52.0540   31.9630    5.0480 C.3   135  LEU135      0.0019
    118  CD1      -52.4220   33.2170    4.2810 C.3   135  LEU135      0.0001
    119  CD2      -51.8550   30.7830    4.0980 C.3   135  LEU135      0.0001
    120  N        -52.0920   28.2730    0.5760 N.3   151  LEU151     -0.1245
    121  CA       -53.4100   28.9410    0.5250 C.3   151  LEU151      0.1561
    122  C        -54.5150   27.9120    0.4640 C.2   151  LEU151      0.2260
    123  O        -55.5360   28.0980    1.0870 O.2   151  LEU151     -0.2867
    124  CB       -53.5730   29.9020   -0.6580 C.3   151  LEU151      0.0270
    125  CG       -52.5820   31.0500   -0.8910 C.3   151  LEU151      0.0019
    126  CD1      -53.2630   32.1750   -1.6540 C.3   151  LEU151      0.0001
    127  CD2      -51.9220   31.6050    0.3700 C.3   151  LEU151      0.0001
    128  N        -54.9120   26.4600    3.9240 N.3   154  ALA154     -0.1231
    129  CA       -55.5830   27.4630    4.7570 C.3   154  ALA154      0.1694
    130  C        -57.1090   27.4130    4.6430 C.2   154  ALA154      0.2591
    131  O        -57.8140   27.6710    5.6310 O.2   154  ALA154     -0.2718
    132  CB       -55.0870   28.8660    4.4210 C.3   154  ALA154      0.0304
    133  N        -57.6170   27.1110    3.4490 N.am  155  GLU155     -0.1979
    134  CA       -59.0740   27.0230    3.2440 C.3   155  GLU155      0.1602
    135  C        -59.6530   25.7630    3.8760 C.2   155  GLU155      0.2287
    136  O        -60.7800   25.7710    4.3450 O.2   155  GLU155     -0.2864
    137  CB       -59.4350   27.1240    1.7590 C.3   155  GLU155      0.0415
    138  CG       -58.8230   28.3560    1.0800 C.3   155  GLU155      0.1163
    139  CD       -59.5970   28.9050   -0.1190 C.2   155  GLU155      0.3649
    140  OE1      -60.6710   28.3570   -0.4640 O.co2 155  GLU155     -0.2457
    141  OE2      -59.1150   29.9110   -0.7220 O.co2 155  GLU155     -0.2457
@<TRIPOS>BOND
     1    25    27   ar
     2    25    24   ar
     3    27    28   ar
     4     1     2    1
     5    23    24    1
     6    23    20    1
     7    24    26   ar
     8    28    26   ar
     9     2     5    1
    10     2     3    1
    11    21    20    1
    12    21    22    2
    13    20    19    1
    14     5     6    1
    15    19    12   am
    16     3    10   am
    17     3     4    2
    18    10    11    1
    19   126   125    1
    20     6     7    1
    21     9     7   ar
    22    12    11    1
    23    12    13    2
    24    14    11    1
    25    14    15    1
    26    29    30    1
    27     7     8   ar
    28   125   124    1
    29   125   127    1
    30   141   139   ar
    31   124   121    1
    32   140   139   ar
    33    16    15    1
    34    16    17    1
    35   139   138    1
    36    30    31    1
    37    30    33    1
    38   122   121    1
    39   122   123    2
    40    34    33    1
    41    34    35    1
    42   121   120    1
    43    18    17    1
    44    38    31   am
    45    38    39    1
    46    40    39    1
    47    40    41    2
    48    31    32    2
    49   138   137    1
    50    35    36    1
    51   137   134    1
    52    71    70    2
    53    78    77    2
    54    42    43    1
    55    36    37    1
    56    73    72    1
    57    77    76    1
    58    70    69    1
    59    70    75   am
    60   134   133    1
    61   134   135    1
    62   133   130   am
    63    69    72    1
    64    69    68    1
    65    43    44    1
    66    43    46    1
    67    44    45    2
    68   135   136    2
    69   128   129    1
    70    76    75    1
    71    76    79    1
    72    72    74    1
    73   119   117    1
    74   118   117    1
    75   132   129    1
    76    46    47    1
    77   130   129    1
    78   130   131    2
    79   117   116    1
    80    81    80    2
    81    79    80    1
    82    80    82   am
    83   116   113    1
    84    47    49    1
    85    47    48    1
    86    89    88   ar
    87   106   105    1
    88   113   114    1
    89   113   112    1
    90    90    88   ar
    91    64    63    2
    92    88    87    1
    93   115   114    2
    94   104   105    1
    95   104   101    1
    96    63    62    1
    97    87    84    1
    98   105   107    1
    99   103   102    2
   100   109   108    1
   101   109   110    1
   102   102   108   am
   103   102   101    1
   104    62    61    1
   105    62    65    1
   106    84    85    1
   107    84    83    1
   108   111   110    2
   109    86    85    2
   110   101   100    1
   111    66    65    1
   112    85    91   am
   113    65    67    1
   114    58    60   ar
   115    58    56   ar
   116    91    92    1
   117    60    59   ar
   118    56    55   ar
   119    92    93    1
   120    92    95    1
   121    53    52    2
   122    94    93    2
   123    59    57   ar
   124    55    57   ar
   125    55    54    1
   126    95    96    1
   127    52    51    1
   128    51    54    1
   129    51    50    1
   130    96    97    1
   131    97    98    1
   132    98    99    1
