@<TRIPOS>MOLECULE
tmp/5dqfA01.pdb
 90 83 0 0 0
SMALL
GASTEIGER

@<TRIPOS>ATOM
      1  N        -44.6760   25.2600   -0.8070 N.3   146  TYR146     -0.1241
      2  CA       -45.2260   25.6300   -2.0980 C.3   146  TYR146      0.1605
      3  C        -46.3730   26.6270   -1.8240 C.2   146  TYR146      0.2264
      4  O        -47.4050   26.2660   -1.3090 O.2   146  TYR146     -0.2867
      5  CB       -45.6900   24.3000   -2.7550 C.3   146  TYR146      0.0534
      6  CG       -46.1370   24.2770   -4.2040 C.ar  146  TYR146     -0.0201
      7  CD1      -45.7420   25.2480   -5.1200 C.ar  146  TYR146     -0.0009
      8  CD2      -46.9290   23.2150   -4.6700 C.ar  146  TYR146     -0.0009
      9  CE1      -46.1500   25.1890   -6.4530 C.ar  146  TYR146      0.0417
     10  CE2      -47.3350   23.1310   -6.0020 C.ar  146  TYR146      0.0417
     11  CZ       -46.9540   24.1270   -6.8930 C.ar  146  TYR146      0.1957
     12  OH       -47.3460   24.0730   -8.2130 O.3   146  TYR146     -0.2866
     13  N        -38.0690   19.1390   -4.4430 N.3   195  LYS195     -0.1245
     14  CA       -37.9990   19.9030   -5.6870 C.3   195  LYS195      0.1561
     15  C        -36.9680   21.0160   -5.5860 C.2   195  LYS195      0.2260
     16  O        -36.1060   21.1040   -6.4430 O.2   195  LYS195     -0.2867
     17  CB       -39.3920   20.4290   -6.1230 C.3   195  LYS195      0.0271
     18  CG       -40.3320   19.2600   -6.4450 C.3   195  LYS195      0.0035
     19  CD       -41.6980   19.7020   -6.9570 C.3   195  LYS195      0.0206
     20  CE       -42.7260   18.5810   -6.8770 C.3   195  LYS195      0.1093
     21  NZ       -42.3630   17.4890   -7.8120 N.3   195  LYS195     -0.1314
     22  N        -44.4300   23.2940  -15.5790 N.3   234  LEU234     -0.1245
     23  CA       -44.3690   22.9600  -14.1620 C.3   234  LEU234      0.1561
     24  C        -42.9750   23.1750  -13.5390 C.2   234  LEU234      0.2260
     25  O        -42.8540   23.5270  -12.3750 O.2   234  LEU234     -0.2867
     26  CB       -44.7780   21.4940  -13.9820 C.3   234  LEU234      0.0270
     27  CG       -44.9340   20.9950  -12.5620 C.3   234  LEU234      0.0019
     28  CD1      -45.9900   21.7880  -11.8350 C.3   234  LEU234      0.0001
     29  CD2      -45.3210   19.5140  -12.4920 C.3   234  LEU234      0.0001
     30  N        -42.1930   25.5550  -10.3120 N.3   238  HIS238     -0.1241
     31  CA       -41.4030   25.1820   -9.1250 C.3   238  HIS238      0.1621
     32  C        -40.1120   25.9670   -8.9690 C.2   238  HIS238      0.2264
     33  O        -39.7650   26.3120   -7.8500 O.2   238  HIS238     -0.2867
     34  CB       -41.1590   23.6830   -9.0690 C.3   238  HIS238      0.0745
     35  CG       -42.3960   22.9160   -8.7170 C.ar  238  HIS238      0.0817
     36  ND1      -42.9860   22.9990   -7.4770 N.ar  238  HIS238     -0.2268
     37  CD2      -43.1980   22.1270   -9.4600 C.ar  238  HIS238      0.1154
     38  CE1      -44.0820   22.2640   -7.4600 C.ar  238  HIS238      0.1986
     39  NE2      -44.2300   21.7180   -8.6510 N.ar  238  HIS238     -0.2212
     40  N        -48.7820   28.8100  -12.1870 N.3   253  ARG253     -0.1245
     41  CA       -49.4590   27.5810  -11.7910 C.3   253  ARG253      0.1563
     42  C        -50.9460   27.5660  -12.2230 C.2   253  ARG253      0.2260
     43  O        -51.4600   26.5100  -12.6330 O.2   253  ARG253     -0.2867
     44  CB       -49.3640   27.3500  -10.2840 C.3   253  ARG253      0.0307
     45  CG       -49.8780   25.9870   -9.8380 C.3   253  ARG253      0.0489
     46  CD       -49.9730   25.9040   -8.3350 C.3   253  ARG253      0.2205
     47  NE       -50.1110   24.5210   -7.8910 N.pl3 253  ARG253     -0.0865
     48  CZ       -50.8120   24.1010   -6.8390 C.cat 253  ARG253      0.5346
     49  NH1      -51.4950   24.9420   -6.0660 N.pl3 253  ARG253      0.1354
     50  NH2      -50.8660   22.7970   -6.5870 N.pl3 253  ARG253      0.1354
     51  N        -51.1910   26.9080  -15.8260 N.3   256  LEU256     -0.1231
     52  CA       -50.9150   25.4860  -16.1110 C.3   256  LEU256      0.1693
     53  C        -52.1320   24.6210  -15.8570 C.2   256  LEU256      0.2591
     54  O        -52.4580   23.7770  -16.6690 O.2   256  LEU256     -0.2718
     55  CB       -49.7440   24.9630  -15.2830 C.3   256  LEU256      0.0284
     56  CG       -49.3640   23.4810  -15.4710 C.3   256  LEU256      0.0019
     57  CD1      -49.0970   23.2170  -16.9500 C.3   256  LEU256      0.0001
     58  CD2      -48.1470   23.1350  -14.6170 C.3   256  LEU256      0.0001
     59  N        -52.7860   24.8300  -14.7170 N.am  257  ALA257     -0.1980
     60  CA       -54.0270   24.1400  -14.3970 C.3   257  ALA257      0.1597
     61  C        -55.0860   24.3360  -15.4860 C.2   257  ALA257      0.2287
     62  O        -55.7470   23.3870  -15.8870 O.2   257  ALA257     -0.2864
     63  CB       -54.5680   24.6270  -13.0600 C.3   257  ALA257      0.0319
     64  N        -53.9870   22.3050  -18.6590 N.3   260  ILE260     -0.1245
     65  CA       -54.2360   20.8510  -18.4470 C.3   260  ILE260      0.1561
     66  C        -55.7380   20.5380  -18.6040 C.2   260  ILE260      0.2260
     67  O        -56.1070   19.6140  -19.3290 O.2   260  ILE260     -0.2867
     68  CB       -53.6660   20.3820  -17.0780 C.3   260  ILE260      0.0252
     69  CG1      -52.1210   20.3550  -17.1170 C.3   260  ILE260      0.0019
     70  CG2      -54.1750   18.9980  -16.6920 C.3   260  ILE260      0.0019
     71  CD1      -51.4500   20.1650  -15.7600 C.3   260  ILE260      0.0001
     72  N        -55.9180   22.9840   -8.9520 N.3   283  SER283     -0.1217
     73  CA       -54.4640   22.7780   -8.9870 C.3   283  SER283      0.1889
     74  C        -54.0530   21.6520   -8.0840 C.2   283  SER283      0.2288
     75  O        -53.3370   20.7540   -8.5200 O.2   283  SER283     -0.2866
     76  CB       -53.7100   24.0290   -8.5770 C.3   283  SER283      0.2089
     77  OG       -53.9150   25.0420   -9.5240 O.3   283  SER283     -0.2183
     78  N        -55.1610   18.2260   -9.5030 N.3   286  ILE286     -0.1231
     79  CA       -54.2560   17.8100  -10.5860 C.3   286  ILE286      0.1692
     80  C        -52.9490   17.2900   -9.9860 C.2   286  ILE286      0.2591
     81  O        -52.4830   16.2150  -10.3350 O.2   286  ILE286     -0.2718
     82  CB       -53.9660   18.9490  -11.5790 C.3   286  ILE286      0.0266
     83  CG1      -55.2470   19.2990  -12.3550 C.3   286  ILE286      0.0019
     84  CG2      -52.8520   18.5550  -12.5580 C.3   286  ILE286      0.0020
     85  CD1      -55.2460   20.6770  -12.9880 C.3   286  ILE286      0.0001
     86  N        -52.3910   18.0310   -9.0410 N.am  287  ALA287     -0.1980
     87  CA       -51.1110   17.6470   -8.4230 C.3   287  ALA287      0.1597
     88  C        -51.1480   16.2560   -7.7850 C.2   287  ALA287      0.2287
     89  O        -50.1580   15.5280   -7.8470 O.2   287  ALA287     -0.2864
     90  CB       -50.6780   18.6900   -7.4100 C.3   287  ALA287      0.0319
@<TRIPOS>BOND
     1    67    66    2
     2    64    65    1
     3    66    65    1
     4    65    68    1
     5    69    68    1
     6    69    71    1
     7    68    70    1
     8    57    56    1
     9    54    53    2
    10    52    53    1
    11    52    51    1
    12    52    55    1
    13    62    61    2
    14    53    59   am
    15    22    23    1
    16    61    60    1
    17    56    55    1
    18    56    58    1
    19    59    60    1
    20    60    63    1
    21    23    26    1
    22    23    24    1
    23    26    27    1
    24    24    25    2
    25    85    83    1
    26    43    42    2
    27    27    29    1
    28    27    28    1
    29    84    82    1
    30    83    82    1
    31    42    41    1
    32    40    41    1
    33    41    44    1
    34    82    79    1
    35    79    80    1
    36    79    78    1
    37    81    80    2
    38    30    31    1
    39    44    45    1
    40    80    86   am
    41    45    46    1
    42    77    76    1
    43    37    35   ar
    44    37    39   ar
    45    31    34    1
    46    31    32    1
    47    34    35    1
    48    86    87    1
    49    73    72    1
    50    73    76    1
    51    73    74    1
    52    32    33    2
    53    35    36   ar
    54    39    38   ar
    55    75    74    2
    56    87    88    1
    57    87    90    1
    58    46    47    1
    59    12    11    1
    60    47    48    2
    61    89    88    2
    62    21    20    1
    63    36    38   ar
    64    19    20    1
    65    19    18    1
    66    11     9   ar
    67    11    10   ar
    68    48    50    1
    69    48    49    1
    70     9     7   ar
    71    18    17    1
    72    16    15    2
    73    17    14    1
    74    10     8   ar
    75    14    15    1
    76    14    13    1
    77     7     6   ar
    78     8     6   ar
    79     6     5    1
    80     5     2    1
    81     2     3    1
    82     2     1    1
    83     3     4    2
