@<TRIPOS>MOLECULE
tmp/5dqfA00.pdb
 76 70 0 0 0
SMALL
GASTEIGER

@<TRIPOS>ATOM
      1  N        -33.8680   -6.5070   22.9380 N.3   542  THR542     -0.1203
      2  CA       -34.0260   -7.1330   24.2510 C.3   542  THR542      0.1994
      3  C        -33.8470   -6.1020   25.3620 C.2   542  THR542      0.2617
      4  O        -34.6680   -6.0010   26.2580 O.2   542  THR542     -0.2717
      5  CB       -33.0510   -8.3160   24.4300 C.3   542  THR542      0.1784
      6  OG1      -33.4190   -9.3500   23.5280 O.3   542  THR542     -0.2211
      7  CG2      -33.1350   -8.8840   25.7970 C.3   542  THR542      0.0376
      8  N        -32.7730   -5.3200   25.3000 N.am  543  VAL543     -0.1979
      9  CA       -32.5570   -4.2540   26.2910 C.3   543  VAL543      0.1595
     10  C        -33.7180   -3.2340   26.2640 C.2   543  VAL543      0.2287
     11  O        -34.2340   -2.8130   27.3190 O.2   543  VAL543     -0.2864
     12  CB       -31.2040   -3.5640   26.0500 C.3   543  VAL543      0.0276
     13  CG1      -31.0960   -2.2430   26.8120 C.3   543  VAL543      0.0022
     14  CG2      -30.0880   -4.5120   26.4250 C.3   543  VAL543      0.0022
     15  N        -36.5800   -4.3610   28.1770 N.3   546  ASN546     -0.1240
     16  CA       -36.4370   -4.1910   29.6120 C.3   546  ASN546      0.1653
     17  C        -36.6740   -2.7850   30.0790 C.2   546  ASN546      0.2266
     18  O        -37.2680   -2.5810   31.1360 O.2   546  ASN546     -0.2867
     19  CB       -35.1100   -4.7490   30.0720 C.3   546  ASN546      0.1155
     20  CG       -35.1120   -6.2750   30.0500 C.2   546  ASN546      0.2627
     21  OD1      -34.5240   -6.8890   29.2080 O.2   546  ASN546     -0.2716
     22  ND2      -35.8330   -6.8670   30.9550 N.am  546  ASN546     -0.0877
     23  N        -39.7250   -1.6290   32.6540 N.3   550  PHE550     -0.1241
     24  CA       -39.3680   -0.8380   33.8080 C.3   550  PHE550      0.1605
     25  C        -40.1950    0.4440   33.8740 C.2   550  PHE550      0.2264
     26  O        -40.6460    0.8260   34.9480 O.2   550  PHE550     -0.2867
     27  CB       -37.8600   -0.5880   33.7670 C.3   550  PHE550      0.0534
     28  CG       -37.3950    0.7000   34.3780 C.ar  550  PHE550     -0.0203
     29  CD1      -37.4350    0.8940   35.7440 C.ar  550  PHE550     -0.0042
     30  CD2      -36.8080    1.6660   33.5890 C.ar  550  PHE550     -0.0042
     31  CE1      -36.9300    2.0430   36.3070 C.ar  550  PHE550     -0.0003
     32  CE2      -36.3010    2.8250   34.1400 C.ar  550  PHE550     -0.0003
     33  CZ       -36.3460    3.0010   35.5050 C.ar  550  PHE550     -0.0000
     34  N        -34.8070    1.2890   40.8020 N.3   567  GLU567     -0.1245
     35  CA       -34.6890    0.3580   39.6790 C.3   567  GLU567      0.1567
     36  C        -33.8540    0.8850   38.5060 C.2   567  GLU567      0.2260
     37  O        -33.3080    0.0960   37.7350 O.2   567  GLU567     -0.2867
     38  CB       -36.0830   -0.0210   39.1730 C.3   567  GLU567      0.0388
     39  CG       -36.9600   -0.6890   40.2220 C.3   567  GLU567      0.1160
     40  CD       -36.4500   -2.0590   40.6230 C.2   567  GLU567      0.3649
     41  OE1      -36.6690   -2.4600   41.7790 O.co2 567  GLU567     -0.2457
     42  OE2      -35.8150   -2.7400   39.7930 O.co2 567  GLU567     -0.2457
     43  N        -29.9040   -0.1160   38.2530 N.3   570  LYS570     -0.1231
     44  CA       -29.7990   -1.5650   37.9950 C.3   570  LYS570      0.1693
     45  C        -29.9960   -1.8880   36.5220 C.2   570  LYS570      0.2591
     46  O        -29.2000   -2.5950   35.8970 O.2   570  LYS570     -0.2718
     47  CB       -30.8320   -2.3410   38.8280 C.3   570  LYS570      0.0285
     48  CG       -30.5850   -2.2320   40.3210 C.3   570  LYS570      0.0035
     49  CD       -31.7310   -2.7830   41.1590 C.3   570  LYS570      0.0206
     50  CE       -31.5040   -2.4530   42.6340 C.3   570  LYS570      0.1093
     51  NZ       -32.2570   -3.3630   43.5410 N.3   570  LYS570     -0.1314
     52  N        -31.0560   -1.3270   35.9660 N.am  571  LEU571     -0.1980
     53  CA       -31.3390   -1.4940   34.5680 C.3   571  LEU571      0.1596
     54  C        -30.1740   -0.9830   33.7150 C.2   571  LEU571      0.2287
     55  O        -29.7480   -1.6360   32.7470 O.2   571  LEU571     -0.2864
     56  CB       -32.5980   -0.7270   34.2300 C.3   571  LEU571      0.0297
     57  CG       -33.1280   -0.9390   32.8260 C.3   571  LEU571      0.0022
     58  CD1      -33.8400   -2.2800   32.7130 C.3   571  LEU571      0.0001
     59  CD2      -34.0650    0.2020   32.5010 C.3   571  LEU571      0.0001
     60  N        -27.1230   -3.3610   34.1670 N.3   574  SER574     -0.1202
     61  CA       -27.4620   -4.6170   33.4770 C.3   574  SER574      0.2020
     62  C        -27.3440   -4.4940   31.9790 C.2   574  SER574      0.2619
     63  O        -26.6920   -5.3030   31.3460 O.2   574  SER574     -0.2717
     64  CB       -28.8870   -5.0400   33.7960 C.3   574  SER574      0.2103
     65  OG       -28.9620   -5.5040   35.1110 O.3   574  SER574     -0.2182
     66  N        -27.9770   -3.4540   31.4260 N.am  575  SER575     -0.1951
     67  CA       -27.9830   -3.2140   29.9840 C.3   575  SER575      0.1924
     68  C        -26.6030   -3.1240   29.3180 C.2   575  SER575      0.2314
     69  O        -26.4510   -3.6080   28.2030 O.2   575  SER575     -0.2863
     70  CB       -28.8040   -1.9620   29.6700 C.3   575  SER575      0.2116
     71  OG       -30.1240   -2.1950   30.1180 O.3   575  SER575     -0.2180
     72  N        -25.5540   -6.7010   28.7650 N.3   578  ALA578     -0.1245
     73  CA       -26.3880   -7.2850   27.6980 C.3   578  ALA578      0.1562
     74  C        -26.0100   -6.8300   26.2960 C.2   578  ALA578      0.2260
     75  O        -26.3960   -7.4780   25.3190 O.2   578  ALA578     -0.2867
     76  CB       -27.8660   -6.9810   27.9490 C.3   578  ALA578      0.0290
@<TRIPOS>BOND
     1     1     2    1
     2     6     5    1
     3     2     5    1
     4     2     3    1
     5     5     7    1
     6     8     3   am
     7     8     9    1
     8    75    74    2
     9     3     4    2
    10    12     9    1
    11    12    14    1
    12    12    13    1
    13    10     9    1
    14    10    11    2
    15    74    73    1
    16    73    76    1
    17    73    72    1
    18    15    16    1
    19    69    68    2
    20    21    20    2
    21    68    67    1
    22    16    19    1
    23    16    17    1
    24    70    67    1
    25    70    71    1
    26    67    66    1
    27    20    19    1
    28    20    22   am
    29    17    18    2
    30    63    62    2
    31    66    62   am
    32    62    61    1
    33    59    57    1
    34    23    24    1
    35    58    57    1
    36    55    54    2
    37    57    56    1
    38    61    64    1
    39    61    60    1
    40    30    32   ar
    41    30    28   ar
    42    54    53    1
    43    27    24    1
    44    27    28    1
    45    64    65    1
    46    24    25    1
    47    25    26    2
    48    32    33   ar
    49    56    53    1
    50    28    29   ar
    51    53    52    1
    52    33    31   ar
    53    29    31   ar
    54    46    45    2
    55    52    45   am
    56    45    44    1
    57    37    36    2
    58    44    43    1
    59    44    47    1
    60    36    35    1
    61    47    48    1
    62    38    35    1
    63    38    39    1
    64    35    34    1
    65    42    40   ar
    66    39    40    1
    67    48    49    1
    68    40    41   ar
    69    49    50    1
    70    50    51    1
