@<TRIPOS>MOLECULE
tmp/5dqlD00.pdb
 97 91 0 0 0
SMALL
GASTEIGER

@<TRIPOS>ATOM
      1  N          9.8560   82.7640   65.4970 N.3    93  TRP93      -0.1241
      2  CA         8.5370   83.1890   65.0320 C.3    93  TRP93       0.1605
      3  C          8.3000   82.6520   63.6110 C.2    93  TRP93       0.2264
      4  O          7.2210   82.1400   63.2890 O.2    93  TRP93      -0.2867
      5  CB         8.4540   84.7330   65.0460 C.3    93  TRP93       0.0550
      6  CG         7.0510   85.2930   64.8230 C.ar   93  TRP93       0.0003
      7  CD1        6.2340   85.8530   65.7610 C.ar   93  TRP93       0.0946
      8  CD2        6.3170   85.3320   63.5840 C.ar   93  TRP93       0.0152
      9  NE1        5.0350   86.2190   65.1910 N.ar   93  TRP93      -0.2442
     10  CE2        5.0650   85.9140   63.8500 C.ar   93  TRP93       0.0810
     11  CE3        6.5980   84.9260   62.2720 C.ar   93  TRP93       0.0012
     12  CZ2        4.0920   86.1010   62.8620 C.ar   93  TRP93       0.0191
     13  CZ3        5.6280   85.1110   61.2860 C.ar   93  TRP93       0.0001
     14  CH2        4.3970   85.6900   61.5890 C.ar   93  TRP93       0.0015
     15  N          3.5510   82.4680   67.6660 N.3   108  ASP108     -0.1239
     16  CA         4.8550   82.3570   68.2880 C.3   108  ASP108      0.1674
     17  C          4.6820   82.1310   69.7870 C.2   108  ASP108      0.2266
     18  O          4.8060   83.0590   70.6030 O.2   108  ASP108     -0.2867
     19  CB         5.6510   83.6320   68.0000 C.3   108  ASP108      0.1410
     20  CG         7.1140   83.4980   68.3560 C.2   108  ASP108      0.3668
     21  OD1        7.5670   82.3500   68.5920 O.co2 108  ASP108     -0.2456
     22  OD2        7.8120   84.5410   68.3780 O.co2 108  ASP108     -0.2456
     23  N          5.9040   85.7570   71.4410 N.3   191  CYS191     -0.1221
     24  CA         6.8040   86.6770   70.7620 C.3   191  CYS191      0.1808
     25  C          6.8600   87.9560   71.6040 C.2   191  CYS191      0.2602
     26  O          5.8930   88.2850   72.2910 O.2   191  CYS191     -0.2717
     27  CB         6.3170   86.9690   69.3400 C.3   191  CYS191      0.0970
     28  SG         5.4130   88.4970   69.0700 S.3   191  CYS191     -0.0800
     29  N          7.9960   88.6440   71.5780 N.am  192  GLY192     -0.1942
     30  CA         8.1820   89.8200   72.4180 C.3   192  GLY192      0.2014
     31  C          7.1000   90.8800   72.2760 C.2   192  GLY192      0.2638
     32  O          6.8360   91.6400   73.2130 O.2   192  GLY192     -0.2714
     33  N          6.4490   90.9070   71.1150 N.am  193  HIS193     -0.1973
     34  CA         5.4770   91.9510   70.8130 C.3   193  HIS193      0.1656
     35  C          4.0300   91.4720   70.8050 C.2   193  HIS193      0.2291
     36  O          3.1330   92.1650   70.3160 O.2   193  HIS193     -0.2864
     37  CB         5.8590   92.6410   69.5130 C.3   193  HIS193      0.0771
     38  CG         7.2360   93.2200   69.5440 C.ar  193  HIS193      0.0820
     39  ND1        8.1580   93.0200   68.5400 N.ar  193  HIS193     -0.2267
     40  CD2        7.8570   93.9820   70.4790 C.ar  193  HIS193      0.1154
     41  CE1        9.2850   93.6380   68.8510 C.ar  193  HIS193      0.1986
     42  NE2        9.1250   94.2320   70.0210 N.ar  193  HIS193     -0.2212
     43  N         18.0010   87.5690   76.4660 N.3   228  ARG228     -0.1245
     44  CA        16.9470   88.5440   76.1950 C.3   228  ARG228      0.1563
     45  C         16.0240   88.6720   77.3930 C.2   228  ARG228      0.2260
     46  O         15.6350   87.6700   78.0000 O.2   228  ARG228     -0.2867
     47  CB        16.1400   88.1400   74.9520 C.3   228  ARG228      0.0307
     48  CG        14.6830   88.6010   74.9420 C.3   228  ARG228      0.0489
     49  CD        13.9730   88.2190   73.6280 C.3   228  ARG228      0.2205
     50  NE        12.5330   88.0550   73.8340 N.pl3 228  ARG228     -0.0865
     51  CZ        11.6600   87.6810   72.9030 C.cat 228  ARG228      0.5346
     52  NH1       12.0640   87.4310   71.6670 N.pl3 228  ARG228      0.1354
     53  NH2       10.3730   87.5610   73.2150 N.pl3 228  ARG228      0.1354
     54  N         13.5360   93.7190   74.8510 N.3   285  GLU285     -0.1245
     55  CA        12.3740   93.9100   73.9740 C.3   285  GLU285      0.1567
     56  C         11.6460   95.2230   74.2640 C.2   285  GLU285      0.2260
     57  O         11.3530   95.5390   75.4230 O.2   285  GLU285     -0.2867
     58  CB        11.3970   92.7340   74.0830 C.3   285  GLU285      0.0388
     59  CG        11.7330   91.5510   73.1770 C.3   285  GLU285      0.1160
     60  CD        11.5200   91.8580   71.6970 C.2   285  GLU285      0.3649
     61  OE1       12.5140   92.1360   70.9830 O.co2 285  GLU285     -0.2457
     62  OE2       10.3550   91.8160   71.2450 O.co2 285  GLU285     -0.2457
     63  N         16.4880   94.2880   68.2380 N.3   313  ASN313     -0.1240
     64  CA        15.5260   93.7190   67.3050 C.3   313  ASN313      0.1653
     65  C         14.7730   94.8320   66.5720 C.2   313  ASN313      0.2266
     66  O         13.8230   95.4250   67.1040 O.2   313  ASN313     -0.2867
     67  CB        14.5650   92.7840   68.0560 C.3   313  ASN313      0.1155
     68  CG        13.3230   92.4130   67.2500 C.2   313  ASN313      0.2627
     69  OD1       13.3140   92.4520   66.0150 O.2   313  ASN313     -0.2716
     70  ND2       12.2580   92.0420   67.9620 N.am  313  ASN313     -0.0877
     71  N         12.1930   95.3040   64.6570 N.3   315  SER315     -0.1217
     72  CA        11.0850   94.3740   64.4430 C.3   315  SER315      0.1889
     73  C          9.9510   94.8670   63.5260 C.2   315  SER315      0.2288
     74  O          9.4940   96.0000   63.6340 O.2   315  SER315     -0.2866
     75  CB        10.5240   93.9640   65.8060 C.3   315  SER315      0.2089
     76  OG         9.3630   93.1640   65.6950 O.3   315  SER315     -0.2183
     77  N          7.1110   93.9340   63.8840 N.3   317  SER317     -0.1217
     78  CA         5.9550   94.0930   64.7600 C.3   317  SER317      0.1889
     79  C          5.7240   95.5710   65.0800 C.2   317  SER317      0.2288
     80  O          4.6800   95.9410   65.6190 O.2   317  SER317     -0.2866
     81  CB         6.1260   93.2930   66.0450 C.3   317  SER317      0.2089
     82  OG         6.1090   91.9090   65.7790 O.3   317  SER317     -0.2183
     83  N         13.7710   90.4020   62.7030 N.3   347  THR347     -0.1203
     84  CA        13.2520   89.0650   62.9880 C.3   347  THR347      0.1994
     85  C         12.4200   88.4400   61.8610 C.2   347  THR347      0.2617
     86  O         12.6930   87.3190   61.4300 O.2   347  THR347     -0.2717
     87  CB        12.3940   89.0610   64.2580 C.3   347  THR347      0.1784
     88  OG1       11.3900   90.0790   64.1620 O.3   347  THR347     -0.2211
     89  CG2       13.2490   89.3050   65.4820 C.3   347  THR347      0.0376
     90  N         11.4040   89.1550   61.3920 N.am  348  LEU348     -0.1979
     91  CA        10.4550   88.5820   60.4430 C.3   348  LEU348      0.1596
     92  C         10.6500   88.9990   58.9760 C.2   348  LEU348      0.2287
     93  O          9.6940   88.9920   58.1950 O.2   348  LEU348     -0.2864
     94  CB         9.0260   88.8840   60.8980 C.3   348  LEU348      0.0297
     95  CG         8.8110   88.6400   62.3860 C.3   348  LEU348      0.0022
     96  CD1        7.3690   88.8660   62.8060 C.3   348  LEU348      0.0001
     97  CD2        9.2830   87.2240   62.7580 C.3   348  LEU348      0.0001
@<TRIPOS>BOND
     1    93    92    2
     2    92    91    1
     3    91    94    1
     4    91    90    1
     5    94    95    1
     6    13    14   ar
     7    13    11   ar
     8    90    85   am
     9    86    85    2
    10    14    12   ar
    11    85    84    1
    12    11     8   ar
    13    95    97    1
    14    95    96    1
    15    83    84    1
    16    12    10   ar
    17    84    87    1
    18     4     3    2
    19    73    74    2
    20    73    72    1
    21     8    10   ar
    22     8     6   ar
    23     3     2    1
    24    10     9   ar
    25    77    78    1
    26    88    87    1
    27    87    89    1
    28    72    71    1
    29    72    75    1
    30    78    79    1
    31    78    81    1
    32     6     5    1
    33     6     7   ar
    34     2     5    1
    35     2     1    1
    36    79    80    2
    37     9     7   ar
    38    76    75    1
    39    82    81    1
    40    69    68    2
    41    65    66    2
    42    65    64    1
    43    68    70   am
    44    68    67    1
    45    64    67    1
    46    64    63    1
    47    15    16    1
    48    19    16    1
    49    19    20    1
    50    16    17    1
    51    20    22   ar
    52    20    21   ar
    53    39    41   ar
    54    39    38   ar
    55    41    42   ar
    56    28    27    1
    57    27    24    1
    58    37    38    1
    59    37    34    1
    60    38    40   ar
    61    17    18    2
    62    42    40   ar
    63    36    35    2
    64    24    23    1
    65    24    25    1
    66    35    34    1
    67    34    33    1
    68    61    60   ar
    69    33    31   am
    70    62    60   ar
    71    29    25   am
    72    29    30    1
    73    25    26    2
    74    52    51    1
    75    60    59    1
    76    31    30    1
    77    31    32    2
    78    51    53    1
    79    51    50    2
    80    59    58    1
    81    49    50    1
    82    49    48    1
    83    55    58    1
    84    55    56    1
    85    55    54    1
    86    56    57    2
    87    48    47    1
    88    47    44    1
    89    44    43    1
    90    44    45    1
    91    45    46    2
