@<TRIPOS>MOLECULE
tmp/5dqnA02.pdb
 159 149 0 0 0
SMALL
GASTEIGER

@<TRIPOS>ATOM
      1  N         10.7530  -14.5730   -2.3700 N.3    79  ILE79      -0.1245
      2  CA        10.8140  -14.7550   -0.9200 C.3    79  ILE79       0.1561
      3  C         10.1150  -16.0540   -0.5090 C.2    79  ILE79       0.2260
      4  O          8.9590  -16.2830   -0.8580 O.2    79  ILE79      -0.2867
      5  CB        10.1940  -13.5550   -0.1840 C.3    79  ILE79       0.0252
      6  CG1       11.0950  -12.3290   -0.3570 C.3    79  ILE79       0.0019
      7  CG2        9.9830  -13.8710    1.2970 C.3    79  ILE79       0.0019
      8  CD1       10.5030  -11.0470    0.1740 C.3    79  ILE79       0.0001
      9  N          0.8730  -10.3870   -5.3110 N.3    93  LEU93      -0.1231
     10  CA         1.1870   -9.1200   -5.9510 C.3    93  LEU93       0.1693
     11  C          2.6420   -8.7310   -5.7260 C.2    93  LEU93       0.2591
     12  O          3.0310   -7.5850   -5.9350 O.2    93  LEU93      -0.2718
     13  CB         0.2510   -8.0160   -5.4670 C.3    93  LEU93       0.0284
     14  CG        -0.8110   -7.5840   -6.4860 C.3    93  LEU93       0.0019
     15  CD1       -1.4850   -6.2890   -6.0530 C.3    93  LEU93       0.0001
     16  CD2       -0.2300   -7.4550   -7.8960 C.3    93  LEU93       0.0001
     17  N          3.4460   -9.6980   -5.3050 N.am   94  GLN94      -0.1979
     18  CA         4.8900   -9.5200   -5.2960 C.3    94  GLN94       0.1601
     19  C          5.3770   -9.4150   -6.7420 C.2    94  GLN94       0.2287
     20  O          6.4300   -8.8410   -7.0190 O.2    94  GLN94      -0.2864
     21  CB         5.5730  -10.6800   -4.5690 C.3    94  GLN94       0.0394
     22  CG         5.1690  -10.7960   -3.1040 C.3    94  GLN94       0.0908
     23  CD         5.7570   -9.7000   -2.2420 C.2    94  GLN94       0.2608
     24  OE1        6.7540   -9.0750   -2.6020 O.2    94  GLN94      -0.2717
     25  NE2        5.1100   -9.4250   -1.1210 N.am   94  GLN94      -0.0878
     26  N          4.4980   -7.5800   -8.9490 N.3    96  ALA96      -0.1231
     27  CA         4.5630   -6.2030   -9.4250 C.3    96  ALA96       0.1694
     28  C          5.9890   -5.6310   -9.4470 C.2    96  ALA96       0.2591
     29  O          6.2000   -4.5410   -9.9720 O.2    96  ALA96      -0.2718
     30  CB         3.6680   -5.3160   -8.5890 C.3    96  ALA96       0.0304
     31  N          6.9640   -6.3390   -8.8780 N.am   97  VAL97      -0.1980
     32  CA         8.3450   -5.8570   -8.9550 C.3    97  VAL97       0.1595
     33  C          9.2420   -6.8480   -9.6890 C.2    97  VAL97       0.2287
     34  O          8.9310   -8.0380   -9.7640 O.2    97  VAL97      -0.2864
     35  CB         8.9320   -5.5480   -7.5560 C.3    97  VAL97       0.0276
     36  CG1        8.1950   -4.3690   -6.9320 C.3    97  VAL97       0.0022
     37  CG2        8.8950   -6.7790   -6.6390 C.3    97  VAL97       0.0022
     38  N         12.0150   -8.5040   -9.3630 N.3    99  LEU99      -0.1231
     39  CA        12.4480   -9.7350   -8.7070 C.3    99  LEU99       0.1693
     40  C         11.4850  -10.9050   -8.9150 C.2    99  LEU99       0.2592
     41  O         11.9060  -12.0510   -9.0630 O.2    99  LEU99      -0.2718
     42  CB        12.6230   -9.4800   -7.2080 C.3    99  LEU99       0.0284
     43  CG        13.0300  -10.6760   -6.3560 C.3    99  LEU99       0.0019
     44  CD1       14.2920  -11.2230   -6.9280 C.3    99  LEU99       0.0001
     45  CD2       13.2340  -10.2890   -4.8940 C.3    99  LEU99       0.0001
     46  N         10.1930  -10.6040   -8.9420 N.am  100  ASN100     -0.1974
     47  CA         9.1710  -11.6410   -8.9730 C.3   100  ASN100      0.1688
     48  C          8.4220  -11.7390  -10.3000 C.2   100  ASN100      0.2292
     49  O          7.3020  -12.2370  -10.3450 O.2   100  ASN100     -0.2864
     50  CB         8.1830  -11.4040   -7.8260 C.3   100  ASN100      0.1181
     51  CG         8.8850  -11.2800   -6.4780 C.2   100  ASN100      0.2629
     52  OD1        9.6560  -12.1560   -6.0910 O.2   100  ASN100     -0.2716
     53  ND2        8.6280  -10.1850   -5.7660 N.am  100  ASN100     -0.0877
     54  N         10.2470   -0.5980    4.9800 N.3   182  MET182     -0.1245
     55  CA         9.8850   -1.7280    4.1350 C.3   182  MET182      0.1570
     56  C         10.7110   -2.9630    4.4680 C.2   182  MET182      0.2261
     57  O         10.6130   -3.9820    3.7920 O.2   182  MET182     -0.2867
     58  CB        10.0580   -1.3680    2.6610 C.3   182  MET182      0.0387
     59  CG         9.2090   -0.1970    2.2050 C.3   182  MET182      0.0595
     60  SD         9.4800    0.1610    0.4630 S.3   182  MET182     -0.1393
     61  CE         8.9400   -1.3810   -0.2660 C.3   182  MET182      0.0692
     62  N          5.7680    2.0750    0.8530 N.3   199  SER199     -0.1217
     63  CA         6.0190    1.6890   -0.5330 C.3   199  SER199      0.1889
     64  C          5.1870    2.5650   -1.4610 C.2   199  SER199      0.2288
     65  O          5.6690    3.0280   -2.4950 O.2   199  SER199     -0.2866
     66  CB         5.7060    0.2090   -0.7600 C.3   199  SER199      0.2089
     67  OG         4.3440   -0.0720   -0.4990 O.3   199  SER199     -0.2183
     68  N          7.9360    1.2930   -9.5870 N.3   242  PHE242     -0.1241
     69  CA         8.0940   -0.0400   -9.0220 C.3   242  PHE242      0.1605
     70  C          9.5440   -0.4970   -9.0820 C.2   242  PHE242      0.2264
     71  O          9.9480   -1.3970   -8.3470 O.2   242  PHE242     -0.2867
     72  CB         7.1830   -1.0370   -9.7360 C.3   242  PHE242      0.0534
     73  CG         5.7500   -0.9480   -9.3010 C.ar  242  PHE242     -0.0203
     74  CD1        5.3480   -1.4910   -8.0880 C.ar  242  PHE242     -0.0042
     75  CD2        4.8070   -0.3060  -10.0900 C.ar  242  PHE242     -0.0042
     76  CE1        4.0310   -1.4030   -7.6780 C.ar  242  PHE242     -0.0003
     77  CE2        3.4860   -0.2140   -9.6840 C.ar  242  PHE242     -0.0003
     78  CZ         3.0970   -0.7640   -8.4770 C.ar  242  PHE242     -0.0000
     79  N         11.0430    1.1450   -5.8330 N.3   245  VAL245     -0.1231
     80  CA        10.6180    0.3210   -4.7060 C.3   245  VAL245      0.1692
     81  C         11.4880   -0.9280   -4.6060 C.2   245  VAL245      0.2591
     82  O         11.9730   -1.2780   -3.5280 O.2   245  VAL245     -0.2718
     83  CB         9.1350   -0.0880   -4.8310 C.3   245  VAL245      0.0266
     84  CG1        8.8400   -1.3030   -3.9710 C.3   245  VAL245      0.0020
     85  CG2        8.2480    1.0630   -4.4300 C.3   245  VAL245      0.0020
     86  N         11.6770   -1.5840   -5.7480 N.am  246  MET246     -0.1979
     87  CA        12.5540   -2.7410   -5.8640 C.3   246  MET246      0.1605
     88  C         13.9470   -2.4370   -5.3090 C.2   246  MET246      0.2287
     89  O         14.4880   -3.2140   -4.5290 O.2   246  MET246     -0.2864
     90  CB        12.6460   -3.1760   -7.3290 C.3   246  MET246      0.0413
     91  CG        13.5610   -4.3540   -7.6060 C.3   246  MET246      0.0598
     92  SD        12.8300   -5.9290   -7.1250 S.3   246  MET246     -0.1393
     93  CE        13.7120   -6.2760   -5.6070 C.3   246  MET246      0.0692
     94  N         14.4510   -2.0580   -1.3440 N.3   249  VAL249     -0.1231
     95  CA        14.5470   -3.2760   -0.5470 C.3   249  VAL249      0.1692
     96  C         15.7400   -4.1420   -0.9640 C.2   249  VAL249      0.2591
     97  O         16.3190   -4.8430   -0.1370 O.2   249  VAL249     -0.2718
     98  CB        13.2520   -4.1260   -0.6360 C.3   249  VAL249      0.0266
     99  CG1       12.0480   -3.3000   -0.2300 C.3   249  VAL249      0.0020
    100  CG2       13.0570   -4.6880   -2.0330 C.3   249  VAL249      0.0020
    101  N         16.1150   -4.0790   -2.2390 N.am  250  ALA250     -0.1980
    102  CA        17.1050   -5.0040   -2.7810 C.3   250  ALA250      0.1597
    103  C         18.5220   -4.6220   -2.3940 C.2   250  ALA250      0.2287
    104  O         19.3650   -5.4900   -2.1890 O.2   250  ALA250     -0.2864
    105  CB        16.9880   -5.0810   -4.3020 C.3   250  ALA250      0.0319
    106  N         18.9440   -3.5830    3.0400 N.3   253  GLU253     -0.1231
    107  CA        19.1740   -4.5780    4.0820 C.3   253  GLU253      0.1699
    108  C         20.2730   -5.5690    3.7080 C.2   253  GLU253      0.2592
    109  O         21.0250   -6.0300    4.5650 O.2   253  GLU253     -0.2718
    110  CB        17.8700   -5.3260    4.3810 C.3   253  GLU253      0.0402
    111  CG        17.1380   -5.8090    3.1330 C.3   253  GLU253      0.1161
    112  CD        15.7170   -6.2620    3.4170 C.2   253  GLU253      0.3649
    113  OE1       15.2630   -6.1120    4.5690 O.co2 253  GLU253     -0.2457
    114  OE2       15.0540   -6.7680    2.4860 O.co2 253  GLU253     -0.2457
    115  N         20.3620   -5.8870    2.4220 N.am  254  THR254     -0.1953
    116  CA        21.3400   -6.8520    1.9280 C.3   254  THR254      0.1897
    117  C         22.7770   -6.3700    2.1360 C.2   254  THR254      0.2313
    118  O         23.5830   -7.0600    2.7580 O.2   254  THR254     -0.2863
    119  CB        21.1260   -7.1460    0.4420 C.3   254  THR254      0.1794
    120  OG1       21.0230   -5.9060   -0.2680 O.3   254  THR254     -0.2208
    121  CG2       19.8480   -7.9500    0.2440 C.3   254  THR254      0.0378
    122  N         21.0740  -12.9420    1.8470 N.3   295  VAL295     -0.1245
    123  CA        19.8810  -13.6940    1.4690 C.3   295  VAL295      0.1561
    124  C         20.1560  -15.1810    1.6750 C.2   295  VAL295      0.2260
    125  O         20.9140  -15.7840    0.9170 O.2   295  VAL295     -0.2867
    126  CB        19.4570  -13.4430    0.0020 C.3   295  VAL295      0.0252
    127  CG1       18.2510  -14.3150   -0.3570 C.3   295  VAL295      0.0019
    128  CG2       19.1480  -11.9610   -0.2340 C.3   295  VAL295      0.0019
    129  N         16.2060  -18.0230   -1.6150 N.3   298  PHE298     -0.1241
    130  CA        15.1410  -17.5550   -2.4880 C.3   298  PHE298      0.1605
    131  C         14.5270  -18.7750   -3.1690 C.2   298  PHE298      0.2264
    132  O         15.1550  -19.8360   -3.2450 O.2   298  PHE298     -0.2867
    133  CB        15.6660  -16.5630   -3.5280 C.3   298  PHE298      0.0534
    134  CG        15.6260  -15.1250   -3.0860 C.ar  298  PHE298     -0.0203
    135  CD1       14.7490  -14.7030   -2.1010 C.ar  298  PHE298     -0.0042
    136  CD2       16.4530  -14.1850   -3.6830 C.ar  298  PHE298     -0.0042
    137  CE1       14.7090  -13.3710   -1.7080 C.ar  298  PHE298     -0.0003
    138  CE2       16.4150  -12.8470   -3.2980 C.ar  298  PHE298     -0.0003
    139  CZ        15.5440  -12.4420   -2.3100 C.ar  298  PHE298     -0.0000
    140  N         21.7030  -10.9120   -9.4460 N.3   359  CYS359     -0.1235
    141  CA        21.6930   -9.5530   -8.8880 C.3   359  CYS359      0.1677
    142  C         22.2750   -8.5100   -9.8390 C.2   359  CYS359      0.2270
    143  O         23.4350   -8.5990  -10.2490 O.2   359  CYS359     -0.2867
    144  CB        22.4590   -9.5080   -7.5600 C.3   359  CYS359      0.0956
    145  SG        22.5110   -7.8650   -6.7780 S.3   359  CYS359     -0.0801
    146  N         14.5000  -15.8830    6.0920 N.3   396  TRP396     -0.1241
    147  CA        15.2380  -15.9360    4.8320 C.3   396  TRP396      0.1605
    148  C         16.3230  -14.8670    4.7360 C.2   396  TRP396      0.2264
    149  O         17.2670  -14.9930    3.9500 O.2   396  TRP396     -0.2867
    150  CB        14.2710  -15.7820    3.6540 C.3   396  TRP396      0.0550
    151  CG        13.5650  -14.4630    3.6650 C.ar  396  TRP396      0.0003
    152  CD1       12.4340  -14.1440    4.3640 C.ar  396  TRP396      0.0946
    153  CD2       13.9530  -13.2730    2.9650 C.ar  396  TRP396      0.0152
    154  NE1       12.0900  -12.8340    4.1330 N.ar  396  TRP396     -0.2442
    155  CE2       13.0070  -12.2750    3.2820 C.ar  396  TRP396      0.0810
    156  CE3       15.0080  -12.9540    2.1030 C.ar  396  TRP396      0.0012
    157  CZ2       13.0780  -10.9820    2.7610 C.ar  396  TRP396      0.0191
    158  CZ3       15.0780  -11.6640    1.5830 C.ar  396  TRP396      0.0001
    159  CH2       14.1190  -10.6960    1.9160 C.ar  396  TRP396      0.0015
@<TRIPOS>BOND
     1    49    48    2
     2    48    47    1
     3   143   142    2
     4    75    77   ar
     5    75    73   ar
     6    29    28    2
     7   142   141    1
     8    34    33    2
     9    72    73    1
    10    72    69    1
    11    33    32    1
    12    77    78   ar
    13    68    69    1
    14    28    27    1
    15    28    31   am
    16   140   141    1
    17    27    26    1
    18    27    30    1
    19    38    39    1
    20    73    74   ar
    21    70    69    1
    22    70    71    2
    23    41    40    2
    24    47    46    1
    25    47    50    1
    26    32    31    1
    27    32    35    1
    28    46    40   am
    29    40    39    1
    30   141   144    1
    31    39    42    1
    32    78    76   ar
    33    74    76   ar
    34    16    14    1
    35    50    51    1
    36    91    90    1
    37    91    92    1
    38   144   145    1
    39    35    36    1
    40    35    37    1
    41    90    87    1
    42    42    43    1
    43    92    93    1
    44    20    19    2
    45    44    43    1
    46    19    18    1
    47    14    15    1
    48    14    13    1
    49    51    52    2
    50    51    53   am
    51    43    45    1
    52    10    11    1
    53    10    13    1
    54    10     9    1
    55    12    11    2
    56    87    86    1
    57    87    88    1
    58    79    80    1
    59    86    81   am
    60    11    17   am
    61    88    89    2
    62    17    18    1
    63    18    21    1
    64    83    80    1
    65    83    85    1
    66    83    84    1
    67    80    81    1
    68    81    82    2
    69    21    22    1
    70   105   102    1
    71   136   138   ar
    72   136   134   ar
    73   133   134    1
    74   133   130    1
    75   138   139   ar
    76   132   131    2
    77   131   130    1
    78    22    23    1
    79   134   135   ar
    80   102   103    1
    81   102   101    1
    82    24    23    2
    83    65    64    2
    84   130   129    1
    85   103   104    2
    86     1     2    1
    87   139   137   ar
    88    23    25   am
    89   101    96   am
    90   135   137   ar
    91   100    98    1
    92    64    63    1
    93    94    95    1
    94    96    95    1
    95    96    97    2
    96     2     3    1
    97     2     5    1
    98     4     3    2
    99    66    63    1
   100    66    67    1
   101    98    95    1
   102    98    99    1
   103    63    62    1
   104     6     5    1
   105     6     8    1
   106   127   126    1
   107   120   119    1
   108    61    60    1
   109   128   126    1
   110     5     7    1
   111   126   123    1
   112   121   119    1
   113   119   116    1
   114    60    59    1
   115   125   124    2
   116   123   124    1
   117   123   122    1
   118   158   159   ar
   119   158   156   ar
   120   159   157   ar
   121   116   117    1
   122   116   115    1
   123   156   153   ar
   124   117   118    2
   125    59    58    1
   126   115   108   am
   127   114   112   ar
   128    58    55    1
   129   157   155   ar
   130   153   155   ar
   131   153   151   ar
   132   106   107    1
   133   111   112    1
   134   111   110    1
   135   155   154   ar
   136   112   113   ar
   137   150   151    1
   138   150   147    1
   139   151   152   ar
   140   108   107    1
   141   108   109    2
   142    57    56    2
   143   149   148    2
   144   107   110    1
   145   154   152   ar
   146    55    56    1
   147    55    54    1
   148   148   147    1
   149   147   146    1
