@<TRIPOS>MOLECULE
tmp/5dqpA00.pdb
 170 162 0 0 0
SMALL
GASTEIGER

@<TRIPOS>ATOM
      1  N         20.4830  186.8660   13.5100 N.3     8  TRP8       -0.1241
      2  CA        21.8730  187.1380   13.1390 C.3     8  TRP8        0.1605
      3  C         22.2580  188.5540   13.5760 C.2     8  TRP8        0.2264
      4  O         21.5470  189.5160   13.2690 O.2     8  TRP8       -0.2867
      5  CB        21.9950  186.9860   11.6140 C.3     8  TRP8        0.0550
      6  CG        23.2530  186.4390   10.9850 C.ar    8  TRP8        0.0003
      7  CD1       24.4750  187.0470   10.9140 C.ar    8  TRP8        0.0946
      8  CD2       23.3770  185.2130   10.2370 C.ar    8  TRP8        0.0152
      9  NE1       25.3600  186.2590   10.2080 N.ar    8  TRP8       -0.2442
     10  CE2       24.7120  185.1300    9.7830 C.ar    8  TRP8        0.0810
     11  CE3       22.4890  184.1740    9.9160 C.ar    8  TRP8        0.0012
     12  CZ2       25.1850  184.0440    9.0310 C.ar    8  TRP8        0.0191
     13  CZ3       22.9620  183.0920    9.1690 C.ar    8  TRP8        0.0001
     14  CH2       24.2980  183.0390    8.7380 C.ar    8  TRP8        0.0015
     15  N         22.5960  185.4270   17.2140 N.3    51  PHE51      -0.1241
     16  CA        23.5940  184.5330   16.6650 C.3    51  PHE51       0.1605
     17  C         24.7300  185.3400   16.0530 C.2    51  PHE51       0.2264
     18  O         24.4990  186.3370   15.3590 O.2    51  PHE51      -0.2867
     19  CB        22.9560  183.6160   15.6070 C.3    51  PHE51       0.0534
     20  CG        23.9520  182.8740   14.7580 C.ar   51  PHE51      -0.0203
     21  CD1       24.7840  181.9280   15.3240 C.ar   51  PHE51      -0.0042
     22  CD2       24.0260  183.0970   13.3940 C.ar   51  PHE51      -0.0042
     23  CE1       25.6840  181.2270   14.5620 C.ar   51  PHE51      -0.0003
     24  CE2       24.9320  182.3790   12.5970 C.ar   51  PHE51      -0.0003
     25  CZ        25.7570  181.4510   13.1850 C.ar   51  PHE51      -0.0000
     26  N         27.9410  184.6290   13.6020 N.3    53  ALA53      -0.1231
     27  CA        28.8130  183.8380   12.7480 C.3    53  ALA53       0.1694
     28  C         30.2530  184.2850   12.9800 C.2    53  ALA53       0.2592
     29  O         30.5060  185.3620   13.5230 O.2    53  ALA53      -0.2718
     30  CB        28.4290  184.0100   11.2810 C.3    53  ALA53       0.0304
     31  N         31.2060  183.4410   12.5930 N.am   54  ASP54      -0.1960
     32  CA        32.5970  183.8420   12.7350 C.3    54  ASP54       0.1840
     33  C         33.5070  183.0340   11.8170 C.2    54  ASP54       0.2621
     34  O         33.2780  181.8510   11.5730 O.2    54  ASP54      -0.2715
     35  CB        33.0910  183.6900   14.1760 C.3    54  ASP54       0.1450
     36  CG        34.5140  184.1980   14.3500 C.2    54  ASP54       0.3671
     37  OD1       34.7600  185.3470   13.9190 O.co2  54  ASP54      -0.2456
     38  OD2       35.3810  183.4550   14.8860 O.co2  54  ASP54      -0.2456
     39  N         34.5490  183.7000   11.3200 N.am   55  GLN55      -0.1977
     40  CA        35.7130  183.0560   10.7320 C.3    55  GLN55       0.1601
     41  C         36.8880  183.8970   11.2020 C.2    55  GLN55       0.2287
     42  O         36.8120  185.1330   11.1480 O.2    55  GLN55      -0.2864
     43  CB        35.6770  183.0050    9.2070 C.3    55  GLN55       0.0394
     44  CG        34.7720  181.9140    8.6800 C.3    55  GLN55       0.0908
     45  CD        34.7730  181.8790    7.1820 C.2    55  GLN55       0.2608
     46  OE1       35.5490  182.5870    6.5400 O.2    55  GLN55      -0.2717
     47  NE2       33.8990  181.0610    6.6050 N.am   55  GLN55      -0.0878
     48  N         33.0550  189.8230   10.3860 N.3    68  TYR68      -0.1241
     49  CA        33.5230  189.3400   11.6780 C.3    68  TYR68       0.1605
     50  C         34.4520  190.3570   12.3370 C.2    68  TYR68       0.2264
     51  O         35.6420  190.0850   12.5410 O.2    68  TYR68      -0.2867
     52  CB        34.2280  187.9970   11.4960 C.3    68  TYR68       0.0534
     53  CG        33.6100  187.0940   10.4220 C.ar   68  TYR68      -0.0201
     54  CD1       32.3400  186.5540   10.5870 C.ar   68  TYR68      -0.0009
     55  CD2       34.3140  186.7610    9.2700 C.ar   68  TYR68      -0.0009
     56  CE1       31.7780  185.7160    9.6320 C.ar   68  TYR68       0.0417
     57  CE2       33.7520  185.9200    8.2940 C.ar   68  TYR68       0.0417
     58  CZ        32.4990  185.3970    8.4980 C.ar   68  TYR68       0.1957
     59  OH        31.9420  184.5700    7.5690 O.3    68  TYR68      -0.2866
     60  N         29.7710  181.2470   17.1510 N.3    91  THR91      -0.1218
     61  CA        30.4850  180.3280   16.2810 C.3    91  THR91       0.1862
     62  C         31.9320  180.1910   16.7260 C.2    91  THR91       0.2287
     63  O         32.6260  181.1980   16.9090 O.2    91  THR91      -0.2866
     64  CB        30.4410  180.8260   14.8340 C.3    91  THR91       0.1770
     65  OG1       29.0900  180.8760   14.3970 O.3    91  THR91      -0.2211
     66  CG2       31.2530  179.9110   13.9100 C.3    91  THR91       0.0375
     67  N         27.8170  177.3230   18.1720 N.3   120  ASN120     -0.1240
     68  CA        27.7180  176.8080   16.8050 C.3   120  ASN120      0.1653
     69  C         29.0750  176.2090   16.4490 C.2   120  ASN120      0.2266
     70  O         30.0300  176.9320   16.1810 O.2   120  ASN120     -0.2867
     71  CB        27.3210  177.9390   15.8440 C.3   120  ASN120      0.1155
     72  CG        27.3760  177.5130   14.3780 C.2   120  ASN120      0.2627
     73  OD1       27.6670  178.3120   13.4920 O.2   120  ASN120     -0.2716
     74  ND2       27.0870  176.2550   14.1270 N.am  120  ASN120     -0.0877
     75  N         31.6770  174.6510   14.2100 N.3   122  VAL122     -0.1245
     76  CA        31.8840  174.5520   12.7700 C.3   122  VAL122      0.1561
     77  C         33.2520  173.9230   12.5020 C.2   122  VAL122      0.2260
     78  O         34.0870  173.7960   13.3920 O.2   122  VAL122     -0.2867
     79  CB        31.7610  175.9200   12.0570 C.3   122  VAL122      0.0252
     80  CG1       30.3600  176.5290   12.2780 C.3   122  VAL122      0.0019
     81  CG2       32.8490  176.8880   12.5130 C.3   122  VAL122      0.0019
     82  N         25.5460  173.5130   11.5990 N.3   210  ALA210     -0.1231
     83  CA        25.1600  173.9930   10.2800 C.3   210  ALA210      0.1697
     84  C         26.0070  173.3050    9.2090 C.2   210  ALA210      0.2632
     85  O         27.1800  173.5560    9.0950 O.2   210  ALA210     -0.2714
     86  CB        25.3610  175.4890   10.2050 C.3   210  ALA210      0.0304
     87  N         25.4040  172.4660    8.4090 N.am  211  GLY211     -0.1718
     88  CA        26.1000  171.7910    7.3240 C.2   211  GLY211      0.1480
     89  C         25.3510  170.6690    6.6560 C.2   211  GLY211      0.2821
     90  O         25.1070  169.6710    7.2790 O.2   211  GLY211     -0.2669
     91  N         25.0180  170.8190    5.3860 N.am  212  GLY212     -0.1920
     92  CA        24.1670  169.8680    4.6980 C.3   212  GLY212      0.1872
     93  C         24.8380  168.6040    4.2000 C.2   212  GLY212      0.2310
     94  O         24.1340  167.6940    3.7460 O.2   212  GLY212     -0.2863
     95  N         20.8580  174.7290   11.7250 N.3   228  TYR228     -0.1227
     96  CA        20.4870  175.7400   10.7420 C.3   228  TYR228      0.1736
     97  C         20.3400  175.0970    9.3770 C.2   228  TYR228      0.2595
     98  O         21.1240  174.2240    9.0070 O.2   228  TYR228     -0.2718
     99  CB        21.5390  176.8340   10.6500 C.3   228  TYR228      0.0548
    100  CG        21.6970  177.6410   11.8970 C.ar  228  TYR228     -0.0200
    101  CD1       20.7910  177.5210   12.9520 C.ar  228  TYR228     -0.0009
    102  CD2       22.7440  178.5410   12.0210 C.ar  228  TYR228     -0.0009
    103  CE1       20.9330  178.2830   14.0940 C.ar  228  TYR228      0.0417
    104  CE2       22.8890  179.3180   13.1530 C.ar  228  TYR228      0.0417
    105  CZ        21.9880  179.1900   14.1860 C.ar  228  TYR228      0.1957
    106  OH        22.1530  179.9540   15.3200 O.3   228  TYR228     -0.2866
    107  N         19.3320  175.5390    8.6250 N.am  229  ALA229     -0.1966
    108  CA        19.0240  174.9480    7.3350 C.3   229  ALA229      0.1728
    109  C         18.8370  176.0300    6.2840 C.2   229  ALA229      0.2616
    110  O         18.5840  177.2040    6.5820 O.2   229  ALA229     -0.2715
    111  CB        17.7640  174.0590    7.3910 C.3   229  ALA229      0.0334
    112  N         18.9720  175.6000    5.0410 N.am  230  PHE230     -0.1974
    113  CA        18.7260  176.4380    3.8850 C.3   230  PHE230      0.1639
    114  C         17.2200  176.5950    3.7010 C.2   230  PHE230      0.2290
    115  O         16.4450  175.6600    3.9240 O.2   230  PHE230     -0.2864
    116  CB        19.3730  175.8000    2.6530 C.3   230  PHE230      0.0560
    117  CG        19.1690  176.5620    1.3870 C.ar  230  PHE230     -0.0200
    118  CD1       19.7710  177.8020    1.2040 C.ar  230  PHE230     -0.0042
    119  CD2       18.4070  176.0220    0.3540 C.ar  230  PHE230     -0.0042
    120  CE1       19.5880  178.4970    0.0250 C.ar  230  PHE230     -0.0003
    121  CE2       18.2260  176.7110   -0.8240 C.ar  230  PHE230     -0.0003
    122  CZ        18.8120  177.9540   -0.9870 C.ar  230  PHE230     -0.0000
    123  N         15.0540  176.4540    1.2690 N.3   232  GLY232     -0.1225
    124  CA        14.8360  176.0180   -0.0980 C.3   232  GLY232      0.1811
    125  C         13.3590  175.7580   -0.2510 C.2   232  GLY232      0.2280
    126  O         12.5330  176.5890    0.1570 O.2   232  GLY232     -0.2866
    127  N         11.2950  169.9700    0.5590 N.3   236  ALA236     -0.1231
    128  CA        12.6300  169.6320    1.0190 C.3   236  ALA236      0.1694
    129  C         12.8610  170.1180    2.4510 C.2   236  ALA236      0.2592
    130  O         13.6930  169.5550    3.1620 O.2   236  ALA236     -0.2718
    131  CB        13.6700  170.2090    0.0620 C.3   236  ALA236      0.0304
    132  N         12.1280  171.1340    2.9010 N.am  237  GLY237     -0.1957
    133  CA        12.2160  171.5210    4.3010 C.3   237  GLY237      0.1869
    134  C         11.6690  170.4470    5.2230 C.2   237  GLY237      0.2309
    135  O         12.2850  170.1060    6.2340 O.2   237  GLY237     -0.2863
    136  N         13.9520  167.4750    5.3290 N.3   240  PHE240     -0.1241
    137  CA        15.1700  167.6910    6.1010 C.3   240  PHE240      0.1605
    138  C         14.8910  167.5820    7.5990 C.2   240  PHE240      0.2264
    139  O         15.6510  166.9370    8.3250 O.2   240  PHE240     -0.2867
    140  CB        15.7810  169.0430    5.7390 C.3   240  PHE240      0.0534
    141  CG        17.0560  169.3370    6.4530 C.ar  240  PHE240     -0.0203
    142  CD1       18.2720  168.8920    5.9410 C.ar  240  PHE240     -0.0042
    143  CD2       17.0500  170.0590    7.6360 C.ar  240  PHE240     -0.0042
    144  CE1       19.4660  169.1490    6.5990 C.ar  240  PHE240     -0.0003
    145  CE2       18.2460  170.3310    8.3080 C.ar  240  PHE240     -0.0003
    146  CZ        19.4610  169.8780    7.7820 C.ar  240  PHE240     -0.0000
    147  N         17.3130  179.4760    7.6750 N.3   263  SER263     -0.1217
    148  CA        17.8530  180.8170    7.7750 C.3   263  SER263      0.1889
    149  C         17.4410  181.5800    6.5310 C.2   263  SER263      0.2288
    150  O         17.4670  181.0290    5.4290 O.2   263  SER263     -0.2866
    151  CB        19.3890  180.7810    7.9120 C.3   263  SER263      0.2089
    152  OG        19.9330  182.0820    8.1020 O.3   263  SER263     -0.2183
    153  N         22.8460  170.2310   -6.9850 N.3   329  GLY329     -0.1210
    154  CA        21.9010  170.2940   -5.8830 C.3   329  GLY329      0.1956
    155  C         21.2930  171.6680   -5.6930 C.2   329  GLY329      0.2611
    156  O         20.1280  171.7860   -5.3080 O.2   329  GLY329     -0.2717
    157  N         22.0670  172.7250   -5.9430 N.am  330  ILE330     -0.1979
    158  CA        21.5040  174.0700   -5.9030 C.3   330  ILE330      0.1595
    159  C         20.4560  174.2270   -6.9990 C.2   330  ILE330      0.2287
    160  O         19.3360  174.6920   -6.7550 O.2   330  ILE330     -0.2864
    161  CB        22.6200  175.1240   -6.0470 C.3   330  ILE330      0.0276
    162  CG1       23.7860  174.8490   -5.0840 C.3   330  ILE330      0.0022
    163  CG2       22.0490  176.5460   -5.9430 C.3   330  ILE330      0.0022
    164  CD1       23.3870  174.2960   -3.7470 C.3   330  ILE330      0.0001
    165  N         17.3130  172.4660   -6.2850 N.3   333  SER333     -0.1217
    166  CA        16.5560  173.1420   -5.2420 C.3   333  SER333      0.1889
    167  C         15.7480  174.2880   -5.8270 C.2   333  SER333      0.2288
    168  O         14.5880  174.5000   -5.4610 O.2   333  SER333     -0.2866
    169  CB        17.5000  173.6540   -4.1580 C.3   333  SER333      0.2089
    170  OG        16.7480  174.2330   -3.1160 O.3   333  SER333     -0.2183
@<TRIPOS>BOND
     1   159   160    2
     2   159   158    1
     3   153   154    1
     4   165   166    1
     5   161   163    1
     6   161   158    1
     7   161   162    1
     8   157   158    1
     9   157   155   am
    10   154   155    1
    11   167   168    2
    12   167   166    1
    13   155   156    2
    14   166   169    1
    15   162   164    1
    16   169   170    1
    17   122   121   ar
    18   122   120   ar
    19   121   119   ar
    20   125   124    1
    21   125   126    2
    22   124   123    1
    23   120   118   ar
    24   131   128    1
    25   119   117   ar
    26   127   128    1
    27   128   129    1
    28   118   117   ar
    29   117   116    1
    30   129   132   am
    31   129   130    2
    32   116   113    1
    33   132   133    1
    34   114   113    1
    35   114   115    2
    36    94    93    2
    37   113   112    1
    38    93    92    1
    39   133   134    1
    40    92    91    1
    41   112   109   am
    42   134   135    2
    43   136   137    1
    44    91    89   am
    45   150   149    2
    46   140   137    1
    47   140   141    1
    48   142   141   ar
    49   142   144   ar
    50   137   138    1
    51   109   110    2
    52   109   108    1
    53   141   143   ar
    54   149   148    1
    55    46    45    2
    56   144   146   ar
    57    47    45   am
    58    89    90    2
    59    89    88    1
    60    45    44    1
    61    88    87    2
    62   108   111    1
    63   108   107    1
    64    59    58    1
    65   138   139    2
    66   143   145   ar
    67   147   148    1
    68   148   151    1
    69   146   145   ar
    70   151   152    1
    71    57    58   ar
    72    57    55   ar
    73    87    84    1
    74    58    56   ar
    75   107    97   am
    76    44    43    1
    77    14    12   ar
    78    14    13   ar
    79    98    97    2
    80    12    10   ar
    81    85    84    2
    82    13    11   ar
    83    43    40    1
    84    84    83    1
    85    55    53   ar
    86    97    96    1
    87    56    54   ar
    88    10     9   ar
    89    10     8   ar
    90    11     8   ar
    91    86    83    1
    92     9     7   ar
    93     8     6   ar
    94    83    82    1
    95    48    49    1
    96    53    54   ar
    97    53    52    1
    98    99    96    1
    99    99   100    1
   100    40    41    1
   101    40    39    1
   102    96    95    1
   103     7     6   ar
   104     6     5    1
   105    42    41    2
   106    30    27    1
   107    39    33   am
   108    52    49    1
   109    34    33    2
   110     5     2    1
   111    49    50    1
   112    33    32    1
   113   100   102   ar
   114   100   101   ar
   115   102   104   ar
   116    79    80    1
   117    79    81    1
   118    79    76    1
   119    50    51    2
   120    77    76    1
   121    77    78    2
   122    31    32    1
   123    31    28   am
   124    24    25   ar
   125    24    22   ar
   126    32    35    1
   127    27    28    1
   128    27    26    1
   129    76    75    1
   130   101   103   ar
   131    28    29    2
   132     2     1    1
   133     2     3    1
   134   104   105   ar
   135    25    23   ar
   136     4     3    2
   137    22    20   ar
   138    73    72    2
   139    66    64    1
   140    37    36   ar
   141   103   105   ar
   142    74    72   am
   143    35    36    1
   144   105   106    1
   145    36    38   ar
   146    72    71    1
   147    65    64    1
   148    23    21   ar
   149    20    21   ar
   150    20    19    1
   151    64    61    1
   152    18    17    2
   153    19    16    1
   154    71    68    1
   155    17    16    1
   156    70    69    2
   157    61    62    1
   158    61    60    1
   159    69    68    1
   160    16    15    1
   161    62    63    2
   162    68    67    1
