@<TRIPOS>MOLECULE
tmp/5dqqA01.pdb
 134 134 0 0 0
SMALL
GASTEIGER

@<TRIPOS>ATOM
      1  N        -18.6520  -12.3900  -13.7950 N.3   183  MET183     -0.1230
      2  CA       -17.5020  -13.0680  -14.3780 C.3   183  MET183      0.1702
      3  C        -17.3780  -12.7900  -15.8670 C.2   183  MET183      0.2592
      4  O        -16.2580  -12.7330  -16.3860 O.2   183  MET183     -0.2718
      5  CB       -17.5870  -14.5710  -14.1280 C.3   183  MET183      0.0401
      6  CG       -16.4220  -15.3450  -14.7150 C.3   183  MET183      0.0596
      7  SD       -14.8310  -14.5980  -14.3000 S.3   183  MET183     -0.1393
      8  CE       -14.7160  -14.9630  -12.5500 C.3   183  MET183      0.0692
      9  N        -18.4970  -12.6130  -16.5740 N.am  184  LEU184     -0.1980
     10  CA       -18.3720  -12.2100  -17.9710 C.3   184  LEU184      0.1596
     11  C        -17.8350  -10.7910  -18.0890 C.2   184  LEU184      0.2287
     12  O        -17.0730  -10.4950  -19.0180 O.2   184  LEU184     -0.2864
     13  CB       -19.7060  -12.3320  -18.7040 C.3   184  LEU184      0.0297
     14  CG       -19.5530  -12.2200  -20.2250 C.3   184  LEU184      0.0022
     15  CD1      -18.5210  -13.2210  -20.7290 C.3   184  LEU184      0.0001
     16  CD2      -20.8840  -12.4240  -20.9290 C.3   184  LEU184      0.0001
     17  N        -14.0250  -11.2850  -17.5280 N.3   187  LEU187     -0.1231
     18  CA       -13.3900  -11.8940  -18.6900 C.3   187  LEU187      0.1693
     19  C        -13.3000  -10.9000  -19.8440 C.2   187  LEU187      0.2592
     20  O        -12.2140  -10.6350  -20.3710 O.2   187  LEU187     -0.2718
     21  CB       -14.1540  -13.1550  -19.1060 C.3   187  LEU187      0.0284
     22  CG       -13.6650  -14.4740  -18.4930 C.3   187  LEU187      0.0019
     23  CD1      -13.2130  -14.2740  -17.0580 C.3   187  LEU187      0.0001
     24  CD2      -14.7370  -15.5530  -18.5610 C.3   187  LEU187      0.0001
     25  N        -14.4350  -10.3320  -20.2480 N.am  188  PHE188     -0.1976
     26  CA       -14.4330   -9.4150  -21.3820 C.3   188  PHE188      0.1639
     27  C        -13.4940   -8.2360  -21.1310 C.2   188  PHE188      0.2290
     28  O        -12.6440   -7.9120  -21.9710 O.2   188  PHE188     -0.2864
     29  CB       -15.8590   -8.9410  -21.6570 C.3   188  PHE188      0.0560
     30  CG       -15.9740   -8.0420  -22.8460 C.ar  188  PHE188     -0.0200
     31  CD1      -16.1120   -8.5630  -24.1210 C.ar  188  PHE188     -0.0042
     32  CD2      -15.9510   -6.6680  -22.6880 C.ar  188  PHE188     -0.0042
     33  CE1      -16.2200   -7.7310  -25.2110 C.ar  188  PHE188     -0.0003
     34  CE2      -16.0580   -5.8330  -23.7690 C.ar  188  PHE188     -0.0003
     35  CZ       -16.1930   -6.3620  -25.0330 C.ar  188  PHE188     -0.0000
     36  N         -9.9360   -9.0780  -21.3590 N.3   191  TRP191     -0.1241
     37  CA        -9.5600   -9.2580  -22.7560 C.3   191  TRP191      0.1605
     38  C         -9.2540   -7.9260  -23.4150 C.2   191  TRP191      0.2264
     39  O         -8.1570   -7.7210  -23.9440 O.2   191  TRP191     -0.2867
     40  CB       -10.6610   -9.9860  -23.5240 C.3   191  TRP191      0.0550
     41  CG       -10.3960  -10.0040  -24.9980 C.ar  191  TRP191      0.0003
     42  CD1       -9.3360  -10.5850  -25.6310 C.ar  191  TRP191      0.0946
     43  CD2      -11.1950   -9.4070  -26.0230 C.ar  191  TRP191      0.0152
     44  NE1       -9.4300  -10.3940  -26.9860 N.ar  191  TRP191     -0.2442
     45  CE2      -10.5620   -9.6720  -27.2530 C.ar  191  TRP191      0.0810
     46  CE3      -12.3860   -8.6760  -26.0220 C.ar  191  TRP191      0.0012
     47  CZ2      -11.0790   -9.2330  -28.4670 C.ar  191  TRP191      0.0191
     48  CZ3      -12.8970   -8.2420  -27.2290 C.ar  191  TRP191      0.0001
     49  CH2      -12.2440   -8.5210  -28.4340 C.ar  191  TRP191      0.0015
     50  N         -6.1350   -6.1800  -22.1270 N.3   194  PHE194     -0.1241
     51  CA        -4.9230   -6.8870  -22.5270 C.3   194  PHE194      0.1605
     52  C         -4.5980   -6.6380  -23.9970 C.2   194  PHE194      0.2264
     53  O         -3.4680   -6.2700  -24.3360 O.2   194  PHE194     -0.2867
     54  CB        -5.0760   -8.3810  -22.2350 C.3   194  PHE194      0.0534
     55  CG        -4.2390   -9.2610  -23.1120 C.ar  194  PHE194     -0.0203
     56  CD1       -2.8810   -9.0490  -23.2390 C.ar  194  PHE194     -0.0042
     57  CD2       -4.8140  -10.3140  -23.7930 C.ar  194  PHE194     -0.0042
     58  CE1       -2.1140   -9.8560  -24.0440 C.ar  194  PHE194     -0.0003
     59  CE2       -4.0530  -11.1330  -24.5980 C.ar  194  PHE194     -0.0003
     60  CZ        -2.7000  -10.9000  -24.7320 C.ar  194  PHE194     -0.0000
     61  N         -3.6050  -12.6480  -20.6380 N.3   210  TYR210     -0.1227
     62  CA        -4.9690  -12.8280  -20.1710 C.3   210  TYR210      0.1736
     63  C         -5.0110  -13.5740  -18.8500 C.2   210  TYR210      0.2596
     64  O         -5.8070  -13.2360  -17.9640 O.2   210  TYR210     -0.2718
     65  CB        -5.7960  -13.5570  -21.2170 C.3   210  TYR210      0.0548
     66  CG        -7.2520  -13.2810  -21.0130 C.ar  210  TYR210     -0.0200
     67  CD1       -7.8850  -12.2850  -21.7290 C.ar  210  TYR210     -0.0009
     68  CD2       -7.9810  -13.9690  -20.0550 C.ar  210  TYR210     -0.0009
     69  CE1       -9.2080  -12.0070  -21.5310 C.ar  210  TYR210      0.0417
     70  CE2       -9.3120  -13.6930  -19.8440 C.ar  210  TYR210      0.0417
     71  CZ        -9.9170  -12.7020  -20.5870 C.ar  210  TYR210      0.1957
     72  OH       -11.2380  -12.4120  -20.4120 O.3   210  TYR210     -0.2866
     73  N         -4.1930  -14.6130  -18.7070 N.am  211  GLY211     -0.1957
     74  CA        -4.0970  -15.2740  -17.4180 C.3   211  GLY211      0.1869
     75  C         -3.7660  -14.3060  -16.3020 C.2   211  GLY211      0.2309
     76  O         -4.3070  -14.4050  -15.1990 O.2   211  GLY211     -0.2863
     77  N         -6.2760  -10.7220  -16.5950 N.3   214  LEU214     -0.1245
     78  CA        -7.5230  -10.9920  -15.8850 C.3   214  LEU214      0.1561
     79  C         -7.3360  -10.8360  -14.3820 C.2   214  LEU214      0.2260
     80  O         -8.2070  -10.3000  -13.6890 O.2   214  LEU214     -0.2867
     81  CB        -8.0100  -12.3980  -16.2260 C.3   214  LEU214      0.0270
     82  CG        -9.1630  -12.9870  -15.4150 C.3   214  LEU214      0.0019
     83  CD1      -10.3250  -13.3020  -16.3330 C.3   214  LEU214      0.0001
     84  CD2       -8.7080  -14.2350  -14.6770 C.3   214  LEU214      0.0001
     85  N         -0.5930  -20.5630   -9.2420 N.3   592  TRP592     -0.1227
     86  CA        -1.7280  -19.6490   -9.2380 C.3   592  TRP592      0.1737
     87  C         -2.9280  -20.2260   -8.5060 C.2   592  TRP592      0.2595
     88  O         -3.7720  -19.4650   -8.0230 O.2   592  TRP592     -0.2718
     89  CB        -2.1160  -19.2910  -10.6720 C.3   592  TRP592      0.0564
     90  CG        -1.0800  -18.4730  -11.3590 C.ar  592  TRP592      0.0003
     91  CD1       -0.1560  -18.9070  -12.2620 C.ar  592  TRP592      0.0946
     92  CD2       -0.8450  -17.0730  -11.1830 C.ar  592  TRP592      0.0152
     93  NE1        0.6360  -17.8600  -12.6670 N.ar  592  TRP592     -0.2442
     94  CE2        0.2340  -16.7230  -12.0180 C.ar  592  TRP592      0.0810
     95  CE3       -1.4440  -16.0790  -10.4020 C.ar  592  TRP592      0.0012
     96  CZ2        0.7250  -15.4220  -12.0950 C.ar  592  TRP592      0.0191
     97  CZ3       -0.9560  -14.7890  -10.4830 C.ar  592  TRP592      0.0001
     98  CH2        0.1190  -14.4720  -11.3210 C.ar  592  TRP592      0.0015
     99  N         -3.0220  -21.5520   -8.4060 N.am  593  TRP593     -0.1976
    100  CA        -4.1850  -22.1580   -7.7720 C.3   593  TRP593      0.1640
    101  C         -4.3300  -21.7210   -6.3210 C.2   593  TRP593      0.2290
    102  O         -5.4510  -21.6670   -5.8020 O.2   593  TRP593     -0.2864
    103  CB        -4.0940  -23.6780   -7.8980 C.3   593  TRP593      0.0576
    104  CG        -4.0570  -24.0970   -9.3350 C.ar  593  TRP593      0.0006
    105  CD1       -2.9750  -24.5410  -10.0400 C.ar  593  TRP593      0.0946
    106  CD2       -5.1500  -24.0630  -10.2590 C.ar  593  TRP593      0.0152
    107  NE1       -3.3340  -24.8040  -11.3410 N.ar  593  TRP593     -0.2442
    108  CE2       -4.6650  -24.5180  -11.5000 C.ar  593  TRP593      0.0810
    109  CE3       -6.4970  -23.7000  -10.1540 C.ar  593  TRP593      0.0012
    110  CZ2       -5.4780  -24.6210  -12.6280 C.ar  593  TRP593      0.0191
    111  CZ3       -7.3020  -23.8030  -11.2720 C.ar  593  TRP593      0.0001
    112  CH2       -6.7900  -24.2590  -12.4930 C.ar  593  TRP593      0.0015
    113  N         -4.2020  -18.7770   -5.2280 N.3   595  ILE595     -0.1231
    114  CA        -4.9860  -17.5430   -5.2320 C.3   595  ILE595      0.1692
    115  C         -6.4700  -17.8760   -5.1380 C.2   595  ILE595      0.2592
    116  O         -7.2760  -17.0290   -4.7390 O.2   595  ILE595     -0.2718
    117  CB        -4.7050  -16.6920   -6.4870 C.3   595  ILE595      0.0266
    118  CG1       -5.4680  -17.2440   -7.6920 C.3   595  ILE595      0.0019
    119  CG2       -3.2140  -16.6170   -6.7620 C.3   595  ILE595      0.0020
    120  CD1       -5.6240  -16.2550   -8.8300 C.3   595  ILE595      0.0001
    121  N         -6.8480  -19.1050   -5.5140 N.am  596  THR596     -0.1953
    122  CA        -8.2610  -19.4630   -5.4600 C.3   596  THR596      0.1897
    123  C         -8.8160  -19.2590   -4.0590 C.2   596  THR596      0.2313
    124  O         -9.8780  -18.6490   -3.8920 O.2   596  THR596     -0.2863
    125  CB        -8.4740  -20.9030   -5.9210 C.3   596  THR596      0.1794
    126  OG1       -8.0260  -21.8160   -4.9080 O.3   596  THR596     -0.2208
    127  CG2       -7.7260  -21.1650   -7.2220 C.3   596  THR596      0.0378
    128  N         -9.6240  -15.7450   -3.9020 N.3   599  VAL599     -0.1245
    129  CA       -10.7900  -15.4300   -4.7200 C.3   599  VAL599      0.1561
    130  C        -12.0120  -16.2140   -4.2680 C.2   599  VAL599      0.2260
    131  O        -13.1440  -15.7940   -4.5350 O.2   599  VAL599     -0.2867
    132  CB       -10.5300  -15.6840   -6.2110 C.3   599  VAL599      0.0252
    133  CG1      -11.7830  -15.3810   -7.0140 C.3   599  VAL599      0.0019
    134  CG2       -9.3850  -14.8230   -6.6870 C.3   599  VAL599      0.0019
@<TRIPOS>BOND
     1    47    49   ar
     2    47    45   ar
     3    49    48   ar
     4    45    44   ar
     5    45    43   ar
     6    48    46   ar
     7    44    42   ar
     8    43    46   ar
     9    43    41   ar
    10    42    41   ar
    11    33    35   ar
    12    33    31   ar
    13    35    34   ar
    14    41    40    1
    15    60    59   ar
    16    60    58   ar
    17    59    57   ar
    18    53    52    2
    19    31    30   ar
    20    58    56   ar
    21    52    51    1
    22    39    38    2
    23    57    55   ar
    24    34    32   ar
    25    40    37    1
    26    38    37    1
    27    56    55   ar
    28    55    54    1
    29    30    32   ar
    30    30    29    1
    31    37    36    1
    32    51    54    1
    33    51    50    1
    34    28    27    2
    35    67    69   ar
    36    67    66   ar
    37    29    26    1
    38    69    71   ar
    39    26    27    1
    40    26    25    1
    41    65    66    1
    42    65    62    1
    43    66    68   ar
    44    16    14    1
    45    15    14    1
    46    61    62    1
    47    71    72    1
    48    71    70   ar
    49    20    19    2
    50    25    19   am
    51    14    13    1
    52    62    63    1
    53    68    70   ar
    54    19    18    1
    55    21    18    1
    56    21    22    1
    57    12    11    2
    58    63    73   am
    59    63    64    2
    60    73    74    1
    61    13    10    1
    62    18    17    1
    63    24    22    1
    64    22    23    1
    65    11    10    1
    66    10     9    1
    67    74    75    1
    68    77    78    1
    69     9     3   am
    70     4     3    2
    71    83    82    1
    72    75    76    2
    73    81    78    1
    74    81    82    1
    75    78    79    1
    76     3     2    1
    77    82    84    1
    78     6     7    1
    79     6     5    1
    80    79    80    2
    81     2     5    1
    82     2     1    1
    83     7     8    1
    84    93    91   ar
    85    93    94   ar
    86   110   112   ar
    87   110   108   ar
    88   112   111   ar
    89    91    90   ar
    90    96    94   ar
    91    96    98   ar
    92    94    92   ar
    93   108   107   ar
    94   108   106   ar
    95    90    92   ar
    96    90    89    1
    97   107   105   ar
    98    98    97   ar
    99   111   109   ar
   100    92    95   ar
   101    89    86    1
   102    97    95   ar
   103   106   109   ar
   104   106   104   ar
   105   105   104   ar
   106   104   103    1
   107    85    86    1
   108    86    87    1
   109   120   118    1
   110    87    99   am
   111    87    88    2
   112    99   100    1
   113   103   100    1
   114   100   101    1
   115   118   117    1
   116   127   125    1
   117   133   132    1
   118   119   117    1
   119   134   132    1
   120   117   114    1
   121   101   102    2
   122   132   129    1
   123   125   122    1
   124   125   126    1
   125   121   122    1
   126   121   115   am
   127   122   123    1
   128   114   113    1
   129   114   115    1
   130   115   116    2
   131   129   130    1
   132   129   128    1
   133   131   130    2
   134   123   124    2
