@<TRIPOS>MOLECULE
tmp/5dqqA00.pdb
 92 89 0 0 0
SMALL
GASTEIGER

@<TRIPOS>ATOM
      1  N        -10.2140   -7.0010  -23.3870 N.3   192  ILE192     -0.1245
      2  CA       -10.0530   -5.7740  -24.1580 C.3   192  ILE192      0.1561
      3  C         -8.8710   -4.9570  -23.6410 C.2   192  ILE192      0.2260
      4  O         -8.1100   -4.3780  -24.4270 O.2   192  ILE192     -0.2867
      5  CB       -11.3620   -4.9660  -24.1460 C.3   192  ILE192      0.0252
      6  CG1      -11.1350   -3.5750  -24.7360 C.3   192  ILE192      0.0019
      7  CG2      -11.9480   -4.9130  -22.7410 C.3   192  ILE192      0.0019
      8  CD1      -12.4150   -2.8500  -25.0740 C.3   192  ILE192      0.0001
      9  N         -5.4580   -4.2150  -25.6650 N.3   196  MET196     -0.1230
     10  CA        -5.1030   -2.8070  -25.7930 C.3   196  MET196      0.1702
     11  C         -3.6350   -2.5630  -25.4690 C.2   196  MET196      0.2592
     12  O         -3.0030   -1.7010  -26.0880 O.2   196  MET196     -0.2718
     13  CB        -5.9970   -1.9540  -24.8920 C.3   196  MET196      0.0401
     14  CG        -5.8770   -0.4560  -25.1410 C.3   196  MET196      0.0596
     15  SD        -7.0570    0.5150  -24.1840 S.3   196  MET196     -0.1393
     16  CE        -6.9390    2.0980  -25.0050 C.3   196  MET196      0.0692
     17  N         -3.0680   -3.3010  -24.5110 N.am  197  PHE197     -0.1976
     18  CA        -1.7090   -3.0180  -24.0590 C.3   197  PHE197      0.1639
     19  C         -0.7340   -4.1590  -24.3390 C.2   197  PHE197      0.2290
     20  O          0.1880   -4.3900  -23.5540 O.2   197  PHE197     -0.2864
     21  CB        -1.7020   -2.6750  -22.5710 C.3   197  PHE197      0.0560
     22  CG        -2.4200   -1.4000  -22.2350 C.ar  197  PHE197     -0.0200
     23  CD1       -1.9110   -0.1760  -22.6370 C.ar  197  PHE197     -0.0042
     24  CD2       -3.5990   -1.4240  -21.5120 C.ar  197  PHE197     -0.0042
     25  CE1       -2.5720    1.0020  -22.3270 C.ar  197  PHE197     -0.0003
     26  CE2       -4.2630   -0.2500  -21.1980 C.ar  197  PHE197     -0.0003
     27  CZ        -3.7480    0.9640  -21.6070 C.ar  197  PHE197     -0.0000
     28  N          2.5630   -2.5790  -25.9940 N.3   200  THR200     -0.1218
     29  CA         2.9100   -1.3760  -25.2530 C.3   200  THR200      0.1862
     30  C          3.8340   -1.7330  -24.0940 C.2   200  THR200      0.2287
     31  O          4.1930   -2.8940  -23.8830 O.2   200  THR200     -0.2866
     32  CB         1.6560   -0.6640  -24.7370 C.3   200  THR200      0.1770
     33  OG1        2.0100    0.6370  -24.2510 O.3   200  THR200     -0.2211
     34  CG2        1.0300   -1.4620  -23.6080 C.3   200  THR200      0.0375
     35  N          3.4900    5.7380  -19.6540 N.3   236  SER236     -0.1202
     36  CA         3.6360    5.6870  -21.1070 C.3   236  SER236      0.2020
     37  C          2.7590    6.7340  -21.7860 C.2   236  SER236      0.2619
     38  O          3.2090    7.4480  -22.6900 O.2   236  SER236     -0.2717
     39  CB         3.2970    4.2860  -21.6200 C.3   236  SER236      0.2103
     40  OG         3.7700    4.0910  -22.9440 O.3   236  SER236     -0.2182
     41  N          1.4980    6.8350  -21.3700 N.am  237  SER237     -0.1951
     42  CA         0.5690    7.7870  -21.9650 C.3   237  SER237      0.1924
     43  C         -0.3880    8.2920  -20.8970 C.2   237  SER237      0.2314
     44  O         -0.9220    7.5010  -20.1130 O.2   237  SER237     -0.2863
     45  CB        -0.2170    7.1500  -23.1180 C.3   237  SER237      0.2116
     46  OG        -0.9150    8.1290  -23.8680 O.3   237  SER237     -0.2180
     47  N         -3.2380    9.4250  -21.5720 N.3   239  TRP239     -0.1227
     48  CA        -4.5600    9.0140  -22.0180 C.3   239  TRP239      0.1737
     49  C         -4.8730    7.5680  -21.6650 C.2   239  TRP239      0.2596
     50  O         -6.0470    7.1850  -21.6790 O.2   239  TRP239     -0.2718
     51  CB        -4.6860    9.2280  -23.5270 C.3   239  TRP239      0.0564
     52  CG        -4.5120   10.6680  -23.9320 C.ar  239  TRP239      0.0003
     53  CD1       -3.3490   11.3850  -23.9360 C.ar  239  TRP239      0.0946
     54  CD2       -5.5350   11.5640  -24.3880 C.ar  239  TRP239      0.0152
     55  NE1       -3.5850   12.6690  -24.3630 N.ar  239  TRP239     -0.2442
     56  CE2       -4.9180   12.8040  -24.6480 C.ar  239  TRP239      0.0810
     57  CE3       -6.9100   11.4360  -24.6020 C.ar  239  TRP239      0.0012
     58  CZ2       -5.6300   13.9090  -25.1110 C.ar  239  TRP239      0.0191
     59  CZ3       -7.6140   12.5350  -25.0610 C.ar  239  TRP239      0.0001
     60  CH2       -6.9730   13.7540  -25.3110 C.ar  239  TRP239      0.0015
     61  N         -3.8570    6.7590  -21.3550 N.am  240  SER240     -0.1952
     62  CA        -4.1180    5.4050  -20.8810 C.3   240  SER240      0.1924
     63  C         -5.1310    5.4130  -19.7420 C.2   240  SER240      0.2314
     64  O         -6.0550    4.5910  -19.7140 O.2   240  SER240     -0.2863
     65  CB        -2.8110    4.7460  -20.4390 C.3   240  SER240      0.2116
     66  OG        -1.6910    5.4890  -20.8890 O.3   240  SER240     -0.2180
     67  N         -7.6330    7.1280  -19.2640 N.3   242  VAL242     -0.1231
     68  CA        -9.0070    7.2430  -19.7450 C.3   242  VAL242      0.1692
     69  C         -9.6920    5.8870  -19.7580 C.2   242  VAL242      0.2592
     70  O        -10.8960    5.7830  -19.4970 O.2   242  VAL242     -0.2718
     71  CB        -9.0300    7.8990  -21.1390 C.3   242  VAL242      0.0266
     72  CG1      -10.4220    7.8110  -21.7370 C.3   242  VAL242      0.0020
     73  CG2       -8.5820    9.3450  -21.0420 C.3   242  VAL242      0.0020
     74  N         -8.9420    4.8270  -20.0490 N.am  243  PHE243     -0.1976
     75  CA        -9.5000    3.4840  -19.9790 C.3   243  PHE243      0.1639
     76  C         -9.8620    3.1220  -18.5410 C.2   243  PHE243      0.2290
     77  O        -11.0260    2.8570  -18.2260 O.2   243  PHE243     -0.2864
     78  CB        -8.4960    2.4940  -20.5800 C.3   243  PHE243      0.0560
     79  CG        -8.8800    1.0550  -20.4240 C.ar  243  PHE243     -0.0200
     80  CD1       -9.8530    0.4870  -21.2260 C.ar  243  PHE243     -0.0042
     81  CD2       -8.2380    0.2610  -19.4940 C.ar  243  PHE243     -0.0042
     82  CE1      -10.1920   -0.8430  -21.0850 C.ar  243  PHE243     -0.0003
     83  CE2       -8.5710   -1.0690  -19.3490 C.ar  243  PHE243     -0.0003
     84  CZ        -9.5500   -1.6220  -20.1460 C.ar  243  PHE243     -0.0000
     85  N        -12.7150    4.8690  -16.9670 N.3   246  LEU246     -0.1245
     86  CA       -13.8660    4.2580  -17.6210 C.3   246  LEU246      0.1561
     87  C        -14.1180    2.8580  -17.0800 C.2   246  LEU246      0.2260
     88  O        -15.2600    2.4960  -16.7740 O.2   246  LEU246     -0.2867
     89  CB       -13.6500    4.2060  -19.1380 C.3   246  LEU246      0.0270
     90  CG       -14.8000    4.0140  -20.1200 C.3   246  LEU246      0.0019
     91  CD1      -14.2670    3.3200  -21.3640 C.3   246  LEU246      0.0001
     92  CD2      -15.9390    3.2200  -19.5140 C.3   246  LEU246      0.0001
@<TRIPOS>BOND
     1    12    11    2
     2    28    29    1
     3    10     9    1
     4    10    11    1
     5    10    13    1
     6    11    17   am
     7    60    58   ar
     8    60    59   ar
     9    29    32    1
    10    29    30    1
    11    14    13    1
    12    14    15    1
    13    58    56   ar
    14     8     6    1
    15    59    57   ar
    16    16    15    1
    17    32    33    1
    18    32    34    1
    19     6     5    1
    20    56    54   ar
    21    56    55   ar
    22    57    54   ar
    23    17    18    1
    24     4     3    2
    25    54    52   ar
    26    55    53   ar
    27    19    18    1
    28    19    20    2
    29     2     5    1
    30     2     3    1
    31     2     1    1
    32     5     7    1
    33    30    31    2
    34    18    21    1
    35    53    52   ar
    36    52    51    1
    37    46    45    1
    38    51    48    1
    39    45    42    1
    40    40    39    1
    41    38    37    2
    42    23    25   ar
    43    23    22   ar
    44    21    22    1
    45    25    27   ar
    46    22    24   ar
    47    48    49    1
    48    48    47    1
    49    42    41    1
    50    42    43    1
    51    37    41   am
    52    37    36    1
    53    72    71    1
    54    50    49    2
    55    49    61   am
    56    39    36    1
    57    27    26   ar
    58    24    26   ar
    59    91    90    1
    60    61    62    1
    61    80    82   ar
    62    80    79   ar
    63    71    73    1
    64    71    68    1
    65    36    35    1
    66    82    84   ar
    67    43    44    2
    68    66    65    1
    69    62    65    1
    70    62    63    1
    71    78    79    1
    72    78    75    1
    73    79    81   ar
    74    84    83   ar
    75    90    92    1
    76    90    89    1
    77    74    75    1
    78    74    69   am
    79    75    76    1
    80    69    68    1
    81    69    70    2
    82    68    67    1
    83    63    64    2
    84    81    83   ar
    85    89    86    1
    86    76    77    2
    87    86    87    1
    88    86    85    1
    89    87    88    2
