@<TRIPOS>MOLECULE
tmp/5dqwA00.pdb
 155 146 0 0 0
SMALL
GASTEIGER

@<TRIPOS>ATOM
      1  N          7.9730  -17.2940   14.2380 N.3    20  GLY20      -0.1210
      2  CA         8.0650  -15.9060   14.7150 C.3    20  GLY20       0.1956
      3  C          7.0570  -14.9740   14.0650 C.2    20  GLY20       0.2611
      4  O          7.4170  -13.9080   13.5510 O.2    20  GLY20      -0.2717
      5  N          5.7940  -15.3790   14.1100 N.am   21  HIS21      -0.1975
      6  CA         4.6770  -14.6710   13.4610 C.3    21  HIS21       0.1656
      7  C          3.5050  -14.5150   14.4470 C.2    21  HIS21       0.2291
      8  O          2.3430  -14.5280   14.0550 O.2    21  HIS21      -0.2864
      9  CB         4.1740  -15.4940   12.2610 C.3    21  HIS21       0.0771
     10  CG         5.2180  -15.7540   11.2250 C.ar   21  HIS21       0.0820
     11  ND1        5.8160  -16.9900   11.0790 N.ar   21  HIS21      -0.2267
     12  CD2        5.7820  -14.9450   10.2950 C.ar   21  HIS21       0.1154
     13  CE1        6.7050  -16.9330   10.1030 C.ar   21  HIS21       0.1986
     14  NE2        6.7160  -15.7020    9.6200 N.ar   21  HIS21      -0.2212
     15  N          4.7530   -9.9590   17.6570 N.3    25  HIS25      -0.1241
     16  CA         5.4540   -9.4770   16.4620 C.3    25  HIS25       0.1621
     17  C          4.5580   -8.5580   15.6060 C.2    25  HIS25       0.2264
     18  O          4.9700   -7.4870   15.2400 O.2    25  HIS25      -0.2867
     19  CB         6.0030  -10.6560   15.6260 C.3    25  HIS25       0.0745
     20  CG         6.3300  -10.3050   14.2020 C.ar   25  HIS25       0.0817
     21  ND1        7.4740   -9.6180   13.8440 N.ar   25  HIS25      -0.2268
     22  CD2        5.6820  -10.5780   13.0450 C.ar   25  HIS25       0.1154
     23  CE1        7.4930   -9.4630   12.5270 C.ar   25  HIS25       0.1986
     24  NE2        6.4230  -10.0470   12.0170 N.ar   25  HIS25      -0.2212
     25  N          0.8150  -10.9110    7.7410 N.3    55  ASP55      -0.1239
     26  CA         1.1530  -12.2990    8.0170 C.3    55  ASP55       0.1674
     27  C          0.0370  -13.2950    7.9500 C.2    55  ASP55       0.2266
     28  O          0.3110  -14.4990    7.9770 O.2    55  ASP55      -0.2867
     29  CB         1.8080  -12.4170    9.3900 C.3    55  ASP55       0.1410
     30  CG         3.2260  -11.8850    9.3870 C.2    55  ASP55       0.3668
     31  OD1        3.4970  -10.9570    8.5970 O.co2  55  ASP55      -0.2456
     32  OD2        4.0640  -12.3660   10.1680 O.co2  55  ASP55      -0.2456
     33  N          0.5830  -15.6370    5.1630 N.3    58  ASP58      -0.1239
     34  CA         1.9770  -16.0260    4.8910 C.3    58  ASP58       0.1674
     35  C          2.1190  -17.5290    4.9490 C.2    58  ASP58       0.2266
     36  O          1.5750  -18.1860    5.8520 O.2    58  ASP58      -0.2867
     37  CB         2.9690  -15.3450    5.8390 C.3    58  ASP58       0.1410
     38  CG         4.4280  -15.4750    5.3560 C.2    58  ASP58       0.3668
     39  OD1        4.8990  -16.6140    5.1280 O.co2  58  ASP58      -0.2456
     40  OD2        5.1010  -14.4420    5.2060 O.co2  58  ASP58      -0.2456
     41  N          4.2570  -19.3090    5.9970 N.3    60  LYS60      -0.1245
     42  CA         4.8750  -19.8220    7.2240 C.3    60  LYS60       0.1561
     43  C          3.8670  -20.2000    8.3000 C.2    60  LYS60       0.2260
     44  O          4.1650  -21.0400    9.1460 O.2    60  LYS60      -0.2867
     45  CB         5.8900  -18.8180    7.7840 C.3    60  LYS60       0.0271
     46  CG         7.0230  -18.5360    6.8370 C.3    60  LYS60       0.0035
     47  CD         7.7540  -19.8110    6.4840 C.3    60  LYS60       0.0206
     48  CE         8.8030  -19.5490    5.4430 C.3    60  LYS60       0.1093
     49  NZ         9.8230  -20.5890    5.5590 N.3    60  LYS60      -0.1314
     50  N          8.5780   -4.3540    9.2230 N.3   110  ASP110     -0.1239
     51  CA         8.7760   -5.7840    9.3380 C.3   110  ASP110      0.1674
     52  C         10.2490   -6.1650    9.4100 C.2   110  ASP110      0.2266
     53  O         10.6470   -7.0000   10.2240 O.2   110  ASP110     -0.2867
     54  CB         8.1480   -6.4440    8.1230 C.3   110  ASP110      0.1410
     55  CG         7.6990   -7.8350    8.3920 C.2   110  ASP110      0.3668
     56  OD1        7.3590   -8.1550    9.5410 O.co2 110  ASP110     -0.2456
     57  OD2        7.7560   -8.6230    7.4460 O.co2 110  ASP110     -0.2456
     58  N         13.1780   -7.5420   12.6600 N.3   114  ALA114     -0.1245
     59  CA        14.1230   -8.6540   12.4080 C.3   114  ALA114      0.1562
     60  C         15.6010   -8.3070   12.7260 C.2   114  ALA114      0.2260
     61  O         16.5270   -9.1630   12.6030 O.2   114  ALA114     -0.2867
     62  CB        13.9830   -9.1840   10.9690 C.3   114  ALA114      0.0290
     63  N         15.5230   -8.4830   16.9510 N.3   119  GLY119     -0.1225
     64  CA        15.8580   -9.3740   15.8610 C.3   119  GLY119      0.1811
     65  C         16.7840  -10.4880   16.2680 C.2   119  GLY119      0.2280
     66  O         16.6330  -11.6250   15.7890 O.2   119  GLY119     -0.2866
     67  N         14.6720  -12.9860   18.1680 N.3   122  ARG122     -0.1231
     68  CA        13.8230  -13.7350   17.2280 C.3   122  ARG122      0.1694
     69  C         14.6440  -14.7540   16.4340 C.2   122  ARG122      0.2591
     70  O         14.2010  -15.9030   16.2410 O.2   122  ARG122     -0.2718
     71  CB        13.0290  -12.7890   16.3200 C.3   122  ARG122      0.0321
     72  CG        11.9590  -11.9730   17.0460 C.3   122  ARG122      0.0489
     73  CD        11.3450  -10.9610   16.0750 C.3   122  ARG122      0.2205
     74  NE        10.4820  -11.6820   15.1470 N.pl3 122  ARG122     -0.0865
     75  CZ        10.3200  -11.4400   13.8570 C.cat 122  ARG122      0.5346
     76  NH1       10.8870  -10.4060   13.2620 N.pl3 122  ARG122      0.1354
     77  NH2        9.5410  -12.2450   13.1600 N.pl3 122  ARG122      0.1354
     78  N         15.8610  -14.3810   16.0560 N.am  123  ALA123     -0.1980
     79  CA        16.7610  -15.2990   15.3310 C.3   123  ALA123      0.1597
     80  C         17.1370  -16.5350   16.1480 C.2   123  ALA123      0.2287
     81  O         17.0830  -17.6800   15.6580 O.2   123  ALA123     -0.2864
     82  CB        18.0510  -14.5660   14.8640 C.3   123  ALA123      0.0319
     83  N         13.9950  -18.8290   16.6630 N.3   126  PHE126     -0.1227
     84  CA        13.8200  -19.6000   15.4270 C.3   126  PHE126      0.1736
     85  C         14.7710  -20.8020   15.3720 C.2   126  PHE126      0.2595
     86  O         14.3430  -21.9570   15.1240 O.2   126  PHE126     -0.2718
     87  CB        14.0310  -18.6600   14.2140 C.3   126  PHE126      0.0547
     88  CG        13.8030  -19.3120   12.8700 C.ar  126  PHE126     -0.0202
     89  CD1       14.8190  -20.0670   12.2530 C.ar  126  PHE126     -0.0042
     90  CD2       12.5810  -19.1940   12.2240 C.ar  126  PHE126     -0.0042
     91  CE1       14.6160  -20.6850   11.0030 C.ar  126  PHE126     -0.0003
     92  CE2       12.3560  -19.8280   10.9790 C.ar  126  PHE126     -0.0003
     93  CZ        13.3880  -20.5620   10.3680 C.ar  126  PHE126     -0.0000
     94  N         16.0660  -20.5450   15.6150 N.am  127  ALA127     -0.1980
     95  CA        17.0680  -21.6000   15.6140 C.3   127  ALA127      0.1597
     96  C         16.6870  -22.6830   16.6200 C.2   127  ALA127      0.2287
     97  O         16.7590  -23.8920   16.3150 O.2   127  ALA127     -0.2864
     98  CB        18.4400  -21.0370   15.9280 C.3   127  ALA127      0.0319
     99  N         18.3370  -25.8040   15.0440 N.3   132  HIS132     -0.1241
    100  CA        19.6100  -25.3810   14.4410 C.3   132  HIS132      0.1621
    101  C         20.6160  -24.9460   15.4990 C.2   132  HIS132      0.2264
    102  O         20.2340  -24.4450   16.5550 O.2   132  HIS132     -0.2867
    103  CB        19.4040  -24.2300   13.4640 C.3   132  HIS132      0.0745
    104  CG        18.4880  -24.5490   12.3170 C.ar  132  HIS132      0.0817
    105  ND1       17.7040  -23.5930   11.7060 N.ar  132  HIS132     -0.2268
    106  CD2       18.2360  -25.7100   11.6650 C.ar  132  HIS132      0.1154
    107  CE1       17.0120  -24.1480   10.7270 C.ar  132  HIS132      0.1986
    108  NE2       17.3180  -25.4320   10.6810 N.ar  132  HIS132     -0.2212
    109  N         23.2590  -23.5190    8.4340 N.3   139  GLN139     -0.1231
    110  CA        21.8500  -23.4800    8.8760 C.3   139  GLN139      0.1698
    111  C         21.7120  -22.7990   10.2640 C.2   139  GLN139      0.2593
    112  O         20.6040  -22.6780   10.8080 O.2   139  GLN139     -0.2718
    113  CB        21.2820  -24.8960    8.9360 C.3   139  GLN139      0.0381
    114  CG        21.1790  -25.6120    7.5830 C.3   139  GLN139      0.0905
    115  CD        22.5240  -25.9710    7.0260 C.2   139  GLN139      0.2608
    116  OE1       22.8330  -25.6800    5.8570 O.2   139  GLN139     -0.2717
    117  NE2       23.3500  -26.6100    7.8550 N.am  139  GLN139     -0.0878
    118  N         22.8460  -22.3450   10.8040 N.am  140  SER140     -0.1938
    119  CA        22.9470  -21.8750   12.1800 C.3   140  SER140      0.2055
    120  C         22.4780  -20.4630   12.3530 C.2   140  SER140      0.2642
    121  O         22.4160  -19.6800   11.4130 O.2   140  SER140     -0.2714
    122  CB        24.3970  -21.9660   12.6580 C.3   140  SER140      0.2130
    123  OG        25.1360  -20.8430   12.1960 O.3   140  SER140     -0.2179
    124  N         22.1830  -20.1100   13.5910 N.am  141  ALA141     -0.1977
    125  CA        21.6860  -18.7800   13.8820 C.3   141  ALA141      0.1597
    126  C         22.7490  -17.7400   13.5160 C.2   141  ALA141      0.2287
    127  O         22.4370  -16.6960   12.9490 O.2   141  ALA141     -0.2864
    128  CB        21.3070  -18.6570   15.3510 C.3   141  ALA141      0.0319
    129  N         22.9430  -17.0070    9.8370 N.3   144  HIS144     -0.1241
    130  CA        21.8190  -16.2290    9.3920 C.3   144  HIS144      0.1621
    131  C         22.0660  -14.7160    9.6120 C.2   144  HIS144      0.2264
    132  O         21.5890  -13.9140    8.8500 O.2   144  HIS144     -0.2867
    133  CB        20.5430  -16.7280   10.0960 C.3   144  HIS144      0.0745
    134  CG        19.2900  -16.0290    9.6800 C.ar  144  HIS144      0.0817
    135  ND1       18.6980  -16.2170    8.4440 N.ar  144  HIS144     -0.2268
    136  CD2       18.4940  -15.1680   10.3540 C.ar  144  HIS144      0.1154
    137  CE1       17.6050  -15.4710    8.3710 C.ar  144  HIS144      0.1986
    138  NE2       17.4650  -14.8220    9.5150 N.ar  144  HIS144     -0.2212
    139  N         21.7970  -12.7630    6.0510 N.3   148  LYS148     -0.1231
    140  CA        20.5600  -11.9950    5.9470 C.3   148  LYS148      0.1693
    141  C         20.4860  -10.7960    6.8710 C.2   148  LYS148      0.2591
    142  O         20.3660   -9.6570    6.4130 O.2   148  LYS148     -0.2718
    143  CB        19.3590  -12.9190    6.1730 C.3   148  LYS148      0.0285
    144  CG        17.9980  -12.2440    5.9880 C.3   148  LYS148      0.0035
    145  CD        16.8950  -13.3230    5.8820 C.3   148  LYS148      0.0206
    146  CE        15.6590  -12.8860    5.1160 C.3   148  LYS148      0.1093
    147  NZ        14.9740  -11.7500    5.8110 N.3   148  LYS148     -0.1314
    148  N         20.5440  -11.0310    8.1800 N.am  149  LEU149     -0.1980
    149  CA        20.1480   -9.9730    9.0980 C.3   149  LEU149      0.1596
    150  C         21.0350   -8.7300    8.9560 C.2   149  LEU149      0.2287
    151  O         20.5260   -7.6250    8.9780 O.2   149  LEU149     -0.2864
    152  CB        20.0850  -10.4730   10.5400 C.3   149  LEU149      0.0297
    153  CG        19.1650  -11.6680   10.8180 C.3   149  LEU149      0.0022
    154  CD1       19.1260  -11.9290   12.2930 C.3   149  LEU149      0.0001
    155  CD2       17.7400  -11.4140   10.2740 C.3   149  LEU149      0.0001
@<TRIPOS>BOND
     1    34    35    1
     2    34    33    1
     3    34    37    1
     4    35    36    2
     5   146   147    1
     6   146   145    1
     7    39    38   ar
     8    40    38   ar
     9    38    37    1
    10    48    49    1
    11    48    47    1
    12   116   115    2
    13   145   144    1
    14   140   139    1
    15   140   143    1
    16   140   141    1
    17   144   143    1
    18    41    42    1
    19   142   141    2
    20    47    46    1
    21    46    45    1
    22   141   148   am
    23   115   114    1
    24   115   117   am
    25    42    45    1
    26    42    43    1
    27    57    55   ar
    28   114   113    1
    29    25    26    1
    30    27    28    2
    31    27    26    1
    32    26    29    1
    33    54    55    1
    34    54    51    1
    35   148   149    1
    36    43    44    2
    37   137   135   ar
    38   137   138   ar
    39    55    56   ar
    40   109   110    1
    41   135   134   ar
    42    31    30   ar
    43   132   131    2
    44   110   113    1
    45   110   111    1
    46   150   151    2
    47   150   149    1
    48   149   152    1
    49    50    51    1
    50    51    52    1
    51    30    29    1
    52    30    32   ar
    53   130   131    1
    54   130   129    1
    55   130   133    1
    56    52    53    2
    57   138   136   ar
    58    14    13   ar
    59    14    12   ar
    60   134   133    1
    61   134   136   ar
    62    13    11   ar
    63   111   118   am
    64   111   112    2
    65   155   153    1
    66    12    10   ar
    67    93    92   ar
    68    93    91   ar
    69   152   153    1
    70   108   107   ar
    71   108   106   ar
    72   107   105   ar
    73   118   119    1
    74   153   154    1
    75    62    59    1
    76    92    90   ar
    77    91    89   ar
    78    11    10   ar
    79    10     9    1
    80   121   120    2
    81   106   104   ar
    82   105   104   ar
    83    24    23   ar
    84    24    22   ar
    85   119   120    1
    86   119   122    1
    87   123   122    1
    88    90    88   ar
    89    89    88   ar
    90     9     6    1
    91   104   103    1
    92   120   124   am
    93    59    58    1
    94    59    60    1
    95    23    21   ar
    96    61    60    2
    97    88    87    1
    98   127   126    2
    99    22    20   ar
   100    77    75    1
   101    76    75    1
   102     6     5    1
   103     6     7    1
   104   103   100    1
   105   126   125    1
   106     4     3    2
   107   124   125    1
   108    21    20   ar
   109    75    74    2
   110   125   128    1
   111     8     7    2
   112     3     5   am
   113     3     2    1
   114    20    19    1
   115    87    84    1
   116     1     2    1
   117   100    99    1
   118   100   101    1
   119    82    79    1
   120    86    85    2
   121    74    73    1
   122    18    17    2
   123    79    78    1
   124    79    80    1
   125    85    84    1
   126    85    94   am
   127    84    83    1
   128   101   102    2
   129    17    16    1
   130    95    94    1
   131    95    98    1
   132    95    96    1
   133    19    16    1
   134    81    80    2
   135    66    65    2
   136    64    65    1
   137    64    63    1
   138    78    69   am
   139    73    72    1
   140    70    69    2
   141    97    96    2
   142    71    72    1
   143    71    68    1
   144    69    68    1
   145    16    15    1
   146    68    67    1
