@<TRIPOS>MOLECULE
tmp/5dqxB00.pdb
 80 79 0 0 0
SMALL
GASTEIGER

@<TRIPOS>ATOM
      1  N         -5.0450   32.5200   48.4680 N.3   196  GLN196     -0.1231
      2  CA        -5.3640   33.6650   49.2810 C.3   196  GLN196      0.1698
      3  C         -6.2550   33.2090   50.4040 C.2   196  GLN196      0.2592
      4  O         -7.0080   32.2490   50.2710 O.2   196  GLN196     -0.2718
      5  CB        -6.1190   34.7220   48.4890 C.3   196  GLN196      0.0381
      6  CG        -7.1210   34.1450   47.5180 C.3   196  GLN196      0.0905
      7  CD        -6.5570   34.0650   46.1360 C.2   196  GLN196      0.2608
      8  OE1       -6.0450   35.0660   45.6170 O.2   196  GLN196     -0.2717
      9  NE2       -6.6430   32.8840   45.5190 N.am  196  GLN196     -0.0878
     10  N         -6.1800   33.9540   51.4940 N.am  197  TYR197     -0.1976
     11  CA        -7.0440   33.7780   52.6330 C.3   197  TYR197      0.1639
     12  C         -7.3080   35.1760   53.1680 C.2   197  TYR197      0.2290
     13  O         -6.3840   35.9460   53.3600 O.2   197  TYR197     -0.2864
     14  CB        -6.3740   32.8860   53.6880 C.3   197  TYR197      0.0560
     15  CG        -7.2540   32.6460   54.8750 C.ar  197  TYR197     -0.0198
     16  CD1       -8.6040   32.3900   54.7030 C.ar  197  TYR197     -0.0009
     17  CD2       -6.7620   32.7090   56.1690 C.ar  197  TYR197     -0.0009
     18  CE1       -9.4440   32.1980   55.7820 C.ar  197  TYR197      0.0417
     19  CE2       -7.6000   32.5230   57.2610 C.ar  197  TYR197      0.0417
     20  CZ        -8.9450   32.2630   57.0570 C.ar  197  TYR197      0.1957
     21  OH        -9.8320   32.0640   58.0920 O.3   197  TYR197     -0.2866
     22  N        -12.9680   35.1010   56.3960 N.3   202  GLY202     -0.1210
     23  CA       -12.9500   33.6480   56.5560 C.3   202  GLY202      0.1956
     24  C        -12.9730   32.8750   55.2470 C.2   202  GLY202      0.2612
     25  O        -12.8300   31.6510   55.2430 O.2   202  GLY202     -0.2717
     26  N        -13.1510   33.5960   54.1430 N.am  203  TYR203     -0.1962
     27  CA       -13.1170   33.0090   52.8240 C.3   203  TYR203      0.1771
     28  C        -11.6660   32.9710   52.3240 C.2   203  TYR203      0.2620
     29  O        -10.8260   33.7880   52.7230 O.2   203  TYR203     -0.2715
     30  CB       -14.0120   33.8010   51.8800 C.3   203  TYR203      0.0574
     31  CG       -15.4550   33.8390   52.3290 C.ar  203  TYR203     -0.0198
     32  CD1      -16.3560   32.8840   51.8910 C.ar  203  TYR203     -0.0009
     33  CD2      -15.9250   34.8400   53.1720 C.ar  203  TYR203     -0.0009
     34  CE1      -17.6890   32.9060   52.2810 C.ar  203  TYR203      0.0417
     35  CE2      -17.2540   34.8770   53.5720 C.ar  203  TYR203      0.0417
     36  CZ       -18.1370   33.9010   53.1240 C.ar  203  TYR203      0.1957
     37  OH       -19.4590   33.9080   53.5070 O.3   203  TYR203     -0.2866
     38  N        -11.3870   31.9950   51.4590 N.am  204  GLY204     -0.1940
     39  CA       -10.0410   31.7450   50.9270 C.3   204  GLY204      0.2014
     40  C        -10.0650   30.6330   49.8860 C.2   204  GLY204      0.2639
     41  O        -11.1230   30.0360   49.6160 O.2   204  GLY204     -0.2714
     42  N         -8.9090   30.3590   49.2870 N.am  205  GLY205     -0.1939
     43  CA        -8.8280   29.4020   48.1820 C.3   205  GLY205      0.2014
     44  C         -7.4280   28.9090   47.9180 C.2   205  GLY205      0.2638
     45  O         -6.5180   29.6800   47.6160 O.2   205  GLY205     -0.2714
     46  N         -7.2600   27.5990   48.0420 N.am  206  ALA206     -0.1977
     47  CA        -5.9700   26.9600   47.8310 C.3   206  ALA206      0.1597
     48  C         -5.9510   26.1750   46.5250 C.2   206  ALA206      0.2287
     49  O         -6.9260   25.5130   46.1640 O.2   206  ALA206     -0.2864
     50  CB        -5.6490   26.0450   49.0020 C.3   206  ALA206      0.0319
     51  N         -9.1460   23.9520   45.8380 N.3   226  SER226     -0.1202
     52  CA       -10.2510   23.9280   46.7930 C.3   226  SER226      0.2020
     53  C        -10.5110   25.3040   47.3440 C.2   226  SER226      0.2619
     54  O         -9.5740   26.0120   47.6980 O.2   226  SER226     -0.2717
     55  CB        -9.9850   22.9850   47.9610 C.3   226  SER226      0.2103
     56  OG       -11.1960   22.7050   48.6410 O.3   226  SER226     -0.2182
     57  N        -11.7830   25.6710   47.3960 N.am  227  GLY227     -0.1942
     58  CA       -12.1850   26.9030   48.0120 C.3   227  GLY227      0.2014
     59  C        -12.8320   27.8370   47.0230 C.2   227  GLY227      0.2638
     60  O        -13.3140   27.4190   45.9660 O.2   227  GLY227     -0.2714
     61  N        -12.8770   29.1090   47.3980 N.am  228  TYR228     -0.1973
     62  CA       -13.4950   30.1330   46.5710 C.3   228  TYR228      0.1639
     63  C        -12.4670   30.6870   45.6260 C.2   228  TYR228      0.2290
     64  O        -11.2630   30.6470   45.9110 O.2   228  TYR228     -0.2864
     65  CB       -14.0270   31.2880   47.4260 C.3   228  TYR228      0.0560
     66  CG       -15.1780   30.9090   48.3040 C.ar  228  TYR228     -0.0198
     67  CD1      -14.9590   30.3050   49.5320 C.ar  228  TYR228     -0.0009
     68  CD2      -16.4870   31.1470   47.9040 C.ar  228  TYR228     -0.0009
     69  CE1      -16.0140   29.9330   50.3360 C.ar  228  TYR228      0.0417
     70  CE2      -17.5440   30.7810   48.7050 C.ar  228  TYR228      0.0417
     71  CZ       -17.2930   30.1840   49.9220 C.ar  228  TYR228      0.1957
     72  OH       -18.3260   29.8140   50.7230 O.3   228  TYR228     -0.2866
     73  N        -17.9690   28.1240   46.2460 N.3   238  ASN238     -0.1240
     74  CA       -16.9490   27.2220   46.7600 C.3   238  ASN238      0.1653
     75  C        -17.0180   25.8700   46.0540 C.2   238  ASN238      0.2266
     76  O        -18.1130   25.3810   45.7420 O.2   238  ASN238     -0.2867
     77  CB       -17.1140   27.0410   48.2580 C.3   238  ASN238      0.1155
     78  CG       -16.1140   26.0820   48.8300 C.2   238  ASN238      0.2627
     79  OD1      -15.0470   25.9110   48.2820 O.2   238  ASN238     -0.2716
     80  ND2      -16.4640   25.4420   49.9360 N.am  238  ASN238     -0.0877
@<TRIPOS>BOND
     1     9     7   am
     2     8     7    2
     3    63    64    2
     4    63    62    1
     5    76    75    2
     6    51    52    1
     7    60    59    2
     8    75    74    1
     9     7     6    1
    10    49    48    2
    11    73    74    1
    12    48    47    1
    13    62    61    1
    14    62    65    1
    15    74    77    1
    16    52    53    1
    17    52    55    1
    18    59    61   am
    19    59    58    1
    20    53    57   am
    21    53    54    2
    22    57    58    1
    23    65    66    1
    24     6     5    1
    25    45    44    2
    26    47    46    1
    27    47    50    1
    28    68    66   ar
    29    68    70   ar
    30    44    46   am
    31    44    43    1
    32    55    56    1
    33    43    42    1
    34    77    78    1
    35    79    78    2
    36    66    67   ar
    37     1     2    1
    38     5     2    1
    39    70    71   ar
    40    78    80   am
    41     2     3    1
    42    42    40   am
    43    67    69   ar
    44    41    40    2
    45    40    39    1
    46    71    69   ar
    47    71    72    1
    48     4     3    2
    49     3    10   am
    50    39    38    1
    51    38    28   am
    52    10    11    1
    53    30    31    1
    54    30    27    1
    55    32    34   ar
    56    32    31   ar
    57    34    36   ar
    58    28    29    2
    59    28    27    1
    60    31    33   ar
    61    11    12    1
    62    11    14    1
    63    27    26    1
    64    36    37    1
    65    36    35   ar
    66    12    13    2
    67    33    35   ar
    68    14    15    1
    69    26    24   am
    70    16    15   ar
    71    16    18   ar
    72    15    17   ar
    73    25    24    2
    74    24    23    1
    75    18    20   ar
    76    17    19   ar
    77    22    23    1
    78    20    19   ar
    79    20    21    1
