@<TRIPOS>MOLECULE
tmp/5dqyA00.pdb
 105 102 0 0 0
SMALL
GASTEIGER

@<TRIPOS>ATOM
      1  N          4.7440   10.3960   10.1940 N.3     5  ILE5       -0.1231
      2  CA         4.4040   11.3130    9.1270 C.3     5  ILE5        0.1692
      3  C          3.8740   10.4580    7.9700 C.2     5  ILE5        0.2592
      4  O          4.6190    9.6020    7.4170 O.2     5  ILE5       -0.2718
      5  CB         5.7070   12.0710    8.6910 C.3     5  ILE5        0.0266
      6  CG1        6.2480   12.9550    9.8310 C.3     5  ILE5        0.0019
      7  CG2        5.4730   12.8230    7.3780 C.3     5  ILE5        0.0020
      8  CD1        5.2190   14.0340   10.1340 C.3     5  ILE5        0.0001
      9  N          2.5980   10.6970    7.5910 N.am    6  GLU6       -0.1966
     10  CA         1.8650    9.8330    6.6810 C.3     6  GLU6        0.1733
     11  C          1.5760   10.5160    5.3270 C.2     6  GLU6        0.2617
     12  O          0.8520    9.9240    4.4610 O.2     6  GLU6       -0.2715
     13  CB         0.5920    9.3260    7.3920 C.3     6  GLU6        0.0429
     14  CG         0.9390    8.2980    8.4630 C.3     6  GLU6        0.1163
     15  CD        -0.2190    7.8380    9.3330 C.2     6  GLU6        0.3649
     16  OE1       -0.4710    8.4880   10.3600 O.co2   6  GLU6       -0.2457
     17  OE2       -0.8180    6.7740    9.0400 O.co2   6  GLU6       -0.2457
     18  N          1.9930   11.7840    5.1710 N.am    7  SER7       -0.1936
     19  CA         1.8100   12.4380    3.8820 C.3     7  SER7        0.2055
     20  C          2.8480   13.4330    3.6030 C.2     7  SER7        0.2642
     21  O          3.5950   13.9170    4.5570 O.2     7  SER7       -0.2714
     22  CB         0.4770   13.2010    3.8580 C.3     7  SER7        0.2130
     23  OG         0.4010   14.2720    4.7840 O.3     7  SER7       -0.2179
     24  N          2.9760   13.8400    2.3360 N.am    8  LYS8       -0.1977
     25  CA         3.9930   14.8440    1.9870 C.3     8  LYS8        0.1596
     26  C          3.6880   16.1940    2.6520 C.2     8  LYS8        0.2287
     27  O          4.6300   16.9140    3.0790 O.2     8  LYS8       -0.2864
     28  CB         4.0370   15.0260    0.4640 C.3     8  LYS8        0.0298
     29  CG         5.0860   16.0620    0.0670 C.3     8  LYS8        0.0038
     30  CD         5.0950   16.1040   -1.4820 C.3     8  LYS8        0.0206
     31  CE         5.8100   17.3490   -1.9090 C.3     8  LYS8        0.1093
     32  NZ         5.6500   17.4750   -3.4280 N.3     8  LYS8       -0.1314
     33  N          4.8120   16.1290    6.0900 N.3    11  PHE11      -0.1241
     34  CA         6.2750   16.1590    6.1330 C.3    11  PHE11       0.1605
     35  C          6.8080   17.6150    6.0350 C.2    11  PHE11       0.2264
     36  O          7.6600   18.0830    6.8410 O.2    11  PHE11      -0.2867
     37  CB         6.8320   15.2730    5.0010 C.3    11  PHE11       0.0534
     38  CG         8.3640   15.1600    4.9550 C.ar   11  PHE11      -0.0203
     39  CD1        9.0830   14.3010    5.7810 C.ar   11  PHE11      -0.0042
     40  CD2        9.0580   15.9140    4.0660 C.ar   11  PHE11      -0.0042
     41  CE1       10.5120   14.2310    5.6860 C.ar   11  PHE11      -0.0003
     42  CE2       10.4920   15.8610    3.9660 C.ar   11  PHE11      -0.0003
     43  CZ        11.1920   15.0110    4.7750 C.ar   11  PHE11      -0.0000
     44  N         13.3090    6.7850    7.5540 N.3    27  PHE27      -0.1241
     45  CA        12.5000    6.1490    6.4650 C.3    27  PHE27       0.1605
     46  C         12.7260    4.6460    6.5660 C.2    27  PHE27       0.2264
     47  O         13.8520    4.1350    6.4870 O.2    27  PHE27      -0.2867
     48  CB        13.0580    6.5820    5.0850 C.3    27  PHE27       0.0534
     49  CG        12.8000    8.0740    4.7630 C.ar   27  PHE27      -0.0203
     50  CD1       11.6000    8.4600    4.1400 C.ar   27  PHE27      -0.0042
     51  CD2       13.6990    9.0220    5.2080 C.ar   27  PHE27      -0.0042
     52  CE1       11.3550    9.8080    3.8060 C.ar   27  PHE27      -0.0003
     53  CE2       13.5350   10.3470    4.9160 C.ar   27  PHE27      -0.0003
     54  CZ        12.3400   10.7470    4.2160 C.ar   27  PHE27      -0.0000
     55  N          8.7760    7.7910    8.7430 N.3    57  VAL57      -0.1245
     56  CA         8.0030    7.6770    7.5040 C.3    57  VAL57       0.1561
     57  C          8.0540    6.2020    7.1030 C.2    57  VAL57       0.2260
     58  O          9.1200    5.5970    7.0000 O.2    57  VAL57      -0.2867
     59  CB         8.6780    8.5120    6.3960 C.3    57  VAL57       0.0252
     60  CG1        7.9760    8.2200    5.0440 C.3    57  VAL57       0.0019
     61  CG2        8.5940   10.0020    6.7540 C.3    57  VAL57       0.0019
     62  N          3.9780    4.7700    2.2830 N.3    61  ASP61      -0.1225
     63  CA         3.2020    6.0100    2.2060 C.3    61  ASP61       0.1805
     64  C          3.7670    7.0660    1.2570 C.2    61  ASP61       0.2598
     65  O          2.9950    8.0780    0.9570 O.2    61  ASP61      -0.2718
     66  CB         2.9760    6.6670    3.5760 C.3    61  ASP61       0.1424
     67  CG         2.2070    5.8140    4.5250 C.2    61  ASP61       0.3668
     68  OD1        1.3090    5.0340    4.0980 O.co2  61  ASP61      -0.2456
     69  OD2        2.4320    5.9760    5.7390 O.co2  61  ASP61      -0.2456
     70  N          4.9830    6.8930    0.7150 N.am   62  CYS62      -0.1956
     71  CA         5.5940    7.8810   -0.2190 C.3    62  CYS62       0.1843
     72  C          4.7780    8.0020   -1.4790 C.2    62  CYS62       0.2625
     73  O          4.2250    7.0020   -1.9950 O.2    62  CYS62      -0.2714
     74  CB         6.9650    7.4110   -0.6630 C.3    62  CYS62       0.0997
     75  SG         8.0680    7.3870    0.7860 S.3    62  CYS62      -0.0798
     76  N          4.5770    9.2490   -1.9660 N.am   63  GLN63      -0.1977
     77  CA         3.8780    9.4450   -3.2900 C.3    63  GLN63       0.1601
     78  C          4.7130    8.9320   -4.4080 C.2    63  GLN63       0.2287
     79  O          5.9860    8.9380   -4.3200 O.2    63  GLN63      -0.2864
     80  CB         3.8460   10.9660   -3.6090 C.3    63  GLN63       0.0394
     81  CG         3.0660   11.6830   -2.6320 C.3    63  GLN63       0.0908
     82  CD         2.7910   13.1610   -2.9140 C.2    63  GLN63       0.2608
     83  OE1        3.0990   13.8350   -3.9830 O.2    63  GLN63      -0.2717
     84  NE2        2.1880   13.6940   -1.9490 N.am   63  GLN63      -0.0878
     85  N          7.5630   13.2010   -4.9370 N.3    67  SER67      -0.1202
     86  CA         7.7650   12.7750   -3.5290 C.3    67  SER67       0.2020
     87  C          9.0130   13.3790   -2.9300 C.2    67  SER67       0.2619
     88  O         10.0340   13.5960   -3.6230 O.2    67  SER67      -0.2717
     89  CB         7.9260   11.2720   -3.5540 C.3    67  SER67       0.2103
     90  OG         8.0520   10.8440   -2.2090 O.3    67  SER67      -0.2182
     91  N          8.9380   13.6520   -1.6310 N.am   68  GLU68      -0.1965
     92  CA        10.1910   13.9400   -0.8710 C.3    68  GLU68       0.1733
     93  C         10.9470   12.6330   -0.4480 C.2    68  GLU68       0.2613
     94  O         12.0170   12.6910    0.1980 O.2    68  GLU68      -0.2715
     95  CB         9.8410   14.7210    0.3800 C.3    68  GLU68       0.0429
     96  CG         9.0700   16.0050    0.1640 C.3    68  GLU68       0.1163
     97  CD         9.8850   17.1110   -0.4710 C.2    68  GLU68       0.3649
     98  OE1       11.1120   16.8700   -0.6940 O.co2  68  GLU68      -0.2457
     99  OE2        9.3170   18.2290   -0.6920 O.co2  68  GLU68      -0.2457
    100  N         10.4420   11.4580   -0.7610 N.am   69  CYS69      -0.2021
    101  CA        11.0930   10.1870   -0.3700 C.3    69  CYS69       0.1398
    102  C         12.2670    9.8130   -1.2900 C.3    69  CYS69       0.2045
    103  O         12.2590    8.7840   -2.0700 O.3    69  CYS69      -0.2185
    104  CB        10.1160    9.0750   -0.4770 C.3    69  CYS69       0.0930
    105  SG         8.8590    9.2170    0.8440 S.3    69  CYS69      -0.0802
@<TRIPOS>BOND
     1    85    86    1
     2    78    79    2
     3    78    77    1
     4    83    82    2
     5    88    87    2
     6    80    77    1
     7    80    81    1
     8    89    86    1
     9    89    90    1
    10    86    87    1
    11    32    31    1
    12    77    76    1
    13    87    91   am
    14    82    81    1
    15    82    84   am
    16   103   102    1
    17    73    72    2
    18    76    72   am
    19    31    30    1
    20    91    92    1
    21    30    29    1
    22    72    71    1
    23   102   101    1
    24    92    93    1
    25    92    95    1
    26   100    93   am
    27   100   101    1
    28    98    97   ar
    29    99    97   ar
    30    74    71    1
    31    74    75    1
    32   104   101    1
    33   104   105    1
    34    97    96    1
    35    93    94    2
    36    71    70    1
    37    29    28    1
    38    96    95    1
    39    28    25    1
    40    70    64   am
    41    75   105    1
    42    65    64    2
    43    64    63    1
    44    25    24    1
    45    25    26    1
    46    63    62    1
    47    63    66    1
    48    24    20   am
    49    26    27    2
    50    66    67    1
    51    20    19    1
    52    20    21    2
    53    52    50   ar
    54    52    54   ar
    55    22    19    1
    56    22    23    1
    57    19    18    1
    58    42    40   ar
    59    42    43   ar
    60    40    38   ar
    61    68    67   ar
    62    50    49   ar
    63    54    53   ar
    64    12    11    2
    65    67    69   ar
    66    49    48    1
    67    49    51   ar
    68    43    41   ar
    69    53    51   ar
    70    38    37    1
    71    38    39   ar
    72    37    34    1
    73    60    59    1
    74    48    45    1
    75    18    11   am
    76    11    10    1
    77    41    39   ar
    78    35    34    1
    79    35    36    2
    80    33    34    1
    81    59    61    1
    82    59    56    1
    83    45    46    1
    84    45    44    1
    85    47    46    2
    86    10    13    1
    87    10     9    1
    88    58    57    2
    89    57    56    1
    90     7     5    1
    91    13    14    1
    92     4     3    2
    93    56    55    1
    94     9     3   am
    95     3     2    1
    96    14    15    1
    97     5     2    1
    98     5     6    1
    99    17    15   ar
   100     2     1    1
   101    15    16   ar
   102     6     8    1
