@<TRIPOS>MOLECULE
tmp/5dr0A00.pdb
 79 76 0 0 0
SMALL
GASTEIGER

@<TRIPOS>ATOM
      1  N         -7.7590   -6.5610   -1.7620 N.3    13  LEU13      -0.1245
      2  CA        -7.3560   -5.2140   -2.1770 C.3    13  LEU13       0.1561
      3  C         -5.9340   -4.8290   -1.7520 C.2    13  LEU13       0.2260
      4  O         -5.4850   -3.7200   -2.0520 O.2    13  LEU13      -0.2867
      5  CB        -8.3240   -4.1710   -1.6040 C.3    13  LEU13       0.0270
      6  CG        -9.8070   -4.3080   -1.9820 C.3    13  LEU13       0.0019
      7  CD1      -10.6530   -3.2980   -1.2290 C.3    13  LEU13       0.0001
      8  CD2      -10.0110   -4.1560   -3.4740 C.3    13  LEU13       0.0001
      9  N         -5.1040   -4.2090    1.3430 N.3    15  ASP15      -0.1239
     10  CA        -5.2710   -3.0980    2.2800 C.3    15  ASP15       0.1674
     11  C         -4.1110   -2.9880    3.2690 C.2    15  ASP15       0.2266
     12  O         -3.7530   -1.8950    3.7120 O.2    15  ASP15      -0.2867
     13  CB        -6.6010   -3.2170    3.0120 C.3    15  ASP15       0.1410
     14  CG        -7.7650   -2.6950    2.1880 C.2    15  ASP15       0.3668
     15  OD1       -7.6370   -1.5920    1.6090 O.co2  15  ASP15      -0.2456
     16  OD2       -8.8030   -3.3910    2.1040 O.co2  15  ASP15      -0.2456
     17  N         -1.7480    2.1820    3.0860 N.3   223  THR223     -0.1203
     18  CA        -2.1960    1.4390    1.9170 C.3   223  THR223      0.1994
     19  C         -1.9090    2.1490    0.5970 C.2   223  THR223      0.2617
     20  O         -1.4220    1.5440   -0.3700 O.2   223  THR223     -0.2717
     21  CB        -3.7210    1.1910    1.9900 C.3   223  THR223      0.1784
     22  OG1       -4.0770    0.6970    3.2860 O.3   223  THR223     -0.2211
     23  CG2       -4.1700    0.1750    0.9410 C.3   223  THR223      0.0376
     24  N         -2.2200    3.4390    0.5610 N.am  224  LEU224     -0.1979
     25  CA        -2.2600    4.1880   -0.6920 C.3   224  LEU224      0.1596
     26  C         -1.0550    5.1030   -0.8830 C.2   224  LEU224      0.2287
     27  O         -0.1860    5.2180   -0.0150 O.2   224  LEU224     -0.2864
     28  CB        -3.5530    4.9960   -0.7440 C.3   224  LEU224      0.0297
     29  CG        -4.8430    4.1780   -0.5840 C.3   224  LEU224      0.0022
     30  CD1       -6.0650    5.0670   -0.8070 C.3   224  LEU224      0.0001
     31  CD2       -4.8910    2.9410   -1.5260 C.3   224  LEU224      0.0001
     32  N        -17.2170   10.6800   -0.3770 N.3   248  VAL248     -0.1245
     33  CA       -16.5270    9.4000   -0.3050 C.3   248  VAL248      0.1561
     34  C        -15.1920    9.5530    0.4200 C.2   248  VAL248      0.2260
     35  O        -14.7730    8.6460    1.1430 O.2   248  VAL248     -0.2867
     36  CB       -16.3470    8.7960   -1.7070 C.3   248  VAL248      0.0252
     37  CG1      -15.5060    7.5290   -1.6460 C.3   248  VAL248      0.0019
     38  CG2      -17.7240    8.5030   -2.3130 C.3   248  VAL248      0.0019
     39  N         -8.7390    0.3580   -6.3190 N.3   280  PHE280     -0.1227
     40  CA        -9.1340   -0.1520   -5.0090 C.3   280  PHE280      0.1736
     41  C        -10.6080   -0.5490   -4.9470 C.2   280  PHE280      0.2596
     42  O        -11.1740   -0.7690   -3.8800 O.2   280  PHE280     -0.2718
     43  CB        -8.6690    0.7800   -3.8900 C.3   280  PHE280      0.0547
     44  CG        -7.2470    0.5170   -3.5490 C.ar  280  PHE280     -0.0202
     45  CD1       -6.2390    0.9500   -4.3840 C.ar  280  PHE280     -0.0042
     46  CD2       -6.9140   -0.2870   -2.4700 C.ar  280  PHE280     -0.0042
     47  CE1       -4.9220    0.6260   -4.1450 C.ar  280  PHE280     -0.0003
     48  CE2       -5.6050   -0.6090   -2.2320 C.ar  280  PHE280     -0.0003
     49  CZ        -4.6020   -0.1380   -3.0620 C.ar  280  PHE280     -0.0000
     50  N        -11.1780   -0.7470   -6.1300 N.am  281  GLY281     -0.1943
     51  CA       -12.4610   -1.4150   -6.2640 C.3   281  GLY281      0.1998
     52  C        -13.6390   -0.5680   -5.8510 C.2   281  GLY281      0.2481
     53  O        -13.4950    0.5980   -5.4900 O.2   281  GLY281     -0.2729
     54  N        -14.8300   -1.1630   -5.9130 N.am  282  PRO282     -0.2715
     55  CA       -16.0690   -0.4270   -5.6460 C.3   282  PRO282      0.1536
     56  C        -16.0560    0.2390   -4.2870 C.2   282  PRO282      0.2598
     57  O        -15.5810   -0.3460   -3.3140 O.2   282  PRO282     -0.2715
     58  CB       -17.1430   -1.5100   -5.7480 C.3   282  PRO282      0.0310
     59  CG       -16.5760   -2.4620   -6.7630 C.3   282  PRO282      0.0237
     60  CD       -15.0960   -2.5090   -6.4490 C.3   282  PRO282      0.0939
     61  N        -16.6090    1.4430   -4.2210 N.am  283  ILE283     -0.1978
     62  CA       -16.5890    2.1980   -2.9750 C.3   283  ILE283      0.1596
     63  C        -17.4290    1.4940   -1.9180 C.2   283  ILE283      0.2287
     64  O        -17.1200    1.5730   -0.7250 O.2   283  ILE283     -0.2864
     65  CB       -17.0500    3.6550   -3.1800 C.3   283  ILE283      0.0276
     66  CG1      -18.4490    3.7110   -3.7950 C.3   283  ILE283      0.0022
     67  CG2      -16.0300    4.4210   -4.0550 C.3   283  ILE283      0.0022
     68  CD1      -19.0260    5.1130   -3.8130 C.3   283  ILE283      0.0001
     69  N        -12.7180    3.2680   -5.9860 N.3   291  PHE291     -0.1241
     70  CA       -11.8570    4.1550   -5.2220 C.3   291  PHE291      0.1605
     71  C        -10.4330    4.1480   -5.7490 C.2   291  PHE291      0.2264
     72  O         -9.8620    3.1030   -6.0250 O.2   291  PHE291     -0.2867
     73  CB       -11.8460    3.7570   -3.7490 C.3   291  PHE291      0.0534
     74  CG       -11.3300    4.8390   -2.8400 C.ar  291  PHE291     -0.0203
     75  CD1      -12.0260    6.0240   -2.6930 C.ar  291  PHE291     -0.0042
     76  CD2      -10.1470    4.6880   -2.1520 C.ar  291  PHE291     -0.0042
     77  CE1      -11.5590    7.0240   -1.8650 C.ar  291  PHE291     -0.0003
     78  CE2       -9.6870    5.6840   -1.3280 C.ar  291  PHE291     -0.0003
     79  CZ       -10.3920    6.8500   -1.1900 C.ar  291  PHE291     -0.0000
@<TRIPOS>BOND
     1    59    60    1
     2    59    58    1
     3    60    54    1
     4    39    40    1
     5    51    50    1
     6    51    52    1
     7    50    41   am
     8    72    71    2
     9    69    70    1
    10    54    52   am
    11    54    55    1
    12    52    53    2
    13    71    70    1
    14    58    55    1
    15    55    56    1
    16    70    73    1
    17    40    41    1
    18    40    43    1
    19    41    42    2
    20    45    47   ar
    21    45    44   ar
    22    56    61   am
    23    56    57    2
    24    61    62    1
    25    47    49   ar
    26    67    65    1
    27    43    44    1
    28    68    66    1
    29    66    65    1
    30    73    74    1
    31    44    46   ar
    32     8     6    1
    33    65    62    1
    34    49    48   ar
    35    62    63    1
    36    74    75   ar
    37    74    76   ar
    38    75    77   ar
    39    46    48   ar
    40    38    36    1
    41     2     1    1
    42     2     3    1
    43     2     5    1
    44    76    78   ar
    45     4     3    2
    46     6     5    1
    47     6     7    1
    48    63    64    2
    49    77    79   ar
    50    36    37    1
    51    36    33    1
    52    31    29    1
    53    78    79   ar
    54    26    25    1
    55    26    27    2
    56    30    29    1
    57    28    25    1
    58    28    29    1
    59    25    24    1
    60    32    33    1
    61    20    19    2
    62    33    34    1
    63    34    35    2
    64    24    19   am
    65    19    18    1
    66    23    21    1
    67     9    10    1
    68    15    14   ar
    69    18    21    1
    70    18    17    1
    71    21    22    1
    72    16    14   ar
    73    14    13    1
    74    10    13    1
    75    10    11    1
    76    11    12    2
