@<TRIPOS>MOLECULE
tmp/5dr1A00.pdb
 123 112 0 0 0
SMALL
GASTEIGER

@<TRIPOS>ATOM
      1  N         -3.8460   -8.9300    3.4230 N.3    10  ILE10      -0.1231
      2  CA        -4.9410   -9.3390    4.3140 C.3    10  ILE10       0.1692
      3  C         -6.2390   -9.5750    3.5730 C.2    10  ILE10       0.2592
      4  O         -7.1430  -10.2250    4.0930 O.2    10  ILE10      -0.2718
      5  CB        -5.1830   -8.3360    5.4620 C.3    10  ILE10       0.0266
      6  CG1       -5.6800   -6.9790    4.9310 C.3    10  ILE10       0.0019
      7  CG2       -3.9020   -8.1870    6.2940 C.3    10  ILE10       0.0020
      8  CD1       -6.1840   -6.0830    6.0530 C.3    10  ILE10       0.0001
      9  N         -6.3280   -9.0660    2.3500 N.am   11  ASP11      -0.1974
     10  CA        -7.5440   -9.1640    1.5800 C.3    11  ASP11       0.1709
     11  C         -7.2470   -8.9900    0.1030 C.2    11  ASP11       0.2293
     12  O         -6.0790   -8.8040   -0.2820 O.2    11  ASP11      -0.2864
     13  CB        -8.6070   -8.1700    2.0820 C.3    11  ASP11       0.1436
     14  CG        -8.2030   -6.7200    1.9380 C.2    11  ASP11       0.3671
     15  OD1       -8.7690   -5.8950    2.7040 O.co2  11  ASP11      -0.2456
     16  OD2       -7.3590   -6.3860    1.0780 O.co2  11  ASP11      -0.2456
     17  N         -5.1170   -4.2680    1.2110 N.3    15  ASP15      -0.1225
     18  CA        -5.3370   -3.1610    2.1410 C.3    15  ASP15       0.1805
     19  C         -4.2280   -3.0330    3.1840 C.2    15  ASP15       0.2597
     20  O         -3.9300   -1.9440    3.6760 O.2    15  ASP15      -0.2718
     21  CB        -6.7100   -3.3110    2.8010 C.3    15  ASP15       0.1424
     22  CG        -7.8420   -2.8190    1.9090 C.2    15  ASP15       0.3668
     23  OD1       -7.6970   -1.7280    1.3130 O.co2  15  ASP15      -0.2456
     24  OD2       -8.8770   -3.5150    1.7900 O.co2  15  ASP15      -0.2456
     25  N         -3.5990   -4.1540    3.4970 N.am   16  ALA16      -0.1979
     26  CA        -2.4330   -4.2090    4.3630 C.3    16  ALA16       0.1597
     27  C         -1.8040   -5.5660    4.1690 C.2    16  ALA16       0.2287
     28  O         -2.3810   -6.4170    3.4900 O.2    16  ALA16      -0.2864
     29  CB        -2.8040   -4.0010    5.8290 C.3    16  ALA16       0.0319
     30  N          1.4030   -6.3750   11.3260 N.3    33  ASP33      -0.1239
     31  CA         1.5040   -5.4350   10.2200 C.3    33  ASP33       0.1674
     32  C          2.8250   -4.6780   10.3830 C.2    33  ASP33       0.2266
     33  O          2.9760   -3.8470   11.2890 O.2    33  ASP33      -0.2867
     34  CB         0.3010   -4.4990   10.2970 C.3    33  ASP33       0.1410
     35  CG         0.2110   -3.5190    9.1610 C.2    33  ASP33       0.3668
     36  OD1        1.1680   -3.3670    8.3820 O.co2  33  ASP33      -0.2456
     37  OD2       -0.8700   -2.8540    9.0760 O.co2  33  ASP33      -0.2456
     38  N          5.3150   -1.9710    9.8180 N.3    35  ASP35      -0.1239
     39  CA         4.9820   -0.5850    9.5450 C.3    35  ASP35       0.1674
     40  C          6.2320    0.2950    9.6040 C.2    35  ASP35       0.2266
     41  O          6.6700    0.6670   10.6900 O.2    35  ASP35      -0.2867
     42  CB         3.9480   -0.1040   10.5730 C.3    35  ASP35       0.1410
     43  CG         3.5470    1.3380   10.3730 C.2    35  ASP35       0.3668
     44  OD1        3.8490    1.9020    9.3030 O.co2  35  ASP35      -0.2456
     45  OD2        2.9110    1.9220   11.2930 O.co2  35  ASP35      -0.2456
     46  N         -2.4810    6.7620   14.9520 N.3    79  TYR79      -0.1241
     47  CA        -1.9810    6.6440   13.5880 C.3    79  TYR79       0.1605
     48  C         -2.6070    7.6790   12.6680 C.2    79  TYR79       0.2264
     49  O         -3.5290    8.3990   13.0630 O.2    79  TYR79      -0.2867
     50  CB        -2.2150    5.2230   13.0690 C.3    79  TYR79       0.0534
     51  CG        -1.4380    4.1910   13.8560 C.ar   79  TYR79      -0.0201
     52  CD1       -2.0600    3.3850   14.8130 C.ar   79  TYR79      -0.0009
     53  CD2       -0.0590    4.0470   13.6770 C.ar   79  TYR79      -0.0009
     54  CE1       -1.3370    2.4440   15.5450 C.ar   79  TYR79       0.0417
     55  CE2        0.6730    3.1170   14.4140 C.ar   79  TYR79       0.0417
     56  CZ         0.0290    2.3120   15.3430 C.ar   79  TYR79       0.1957
     57  OH         0.7180    1.3730   16.0910 O.3    79  TYR79      -0.2866
     58  N         -4.5760    7.5460   10.2580 N.3    81  ASP81      -0.1239
     59  CA        -5.9830    7.3730    9.9130 C.3    81  ASP81       0.1674
     60  C         -6.9060    7.5670   11.1200 C.2    81  ASP81       0.2266
     61  O         -8.1200    7.3990   11.0150 O.2    81  ASP81      -0.2867
     62  CB        -6.2010    5.9920    9.3020 C.3    81  ASP81       0.1410
     63  CG        -5.9170    4.8730   10.2790 C.2    81  ASP81       0.3668
     64  OD1       -5.3360    5.1360   11.3520 O.co2  81  ASP81      -0.2456
     65  OD2       -6.2730    3.7210    9.9710 O.co2  81  ASP81      -0.2456
     66  N         -6.7650    5.8630   13.9700 N.3    83  SER83      -0.1217
     67  CA        -6.8380    4.6780   14.8160 C.3    83  SER83       0.1889
     68  C         -5.7820    4.7710   15.9040 C.2    83  SER83       0.2288
     69  O         -4.7730    5.4640   15.7520 O.2    83  SER83      -0.2866
     70  CB        -6.6470    3.4050   14.0030 C.3    83  SER83       0.2089
     71  OG        -5.2990    3.2620   13.6170 O.3    83  SER83      -0.2183
     72  N        -11.3570    0.3680   14.7380 N.3   115  SER115     -0.1202
     73  CA       -10.7930    0.0020   13.4450 C.3   115  SER115      0.2020
     74  C         -9.8900   -1.2250   13.5550 C.2   115  SER115      0.2618
     75  O         -9.7900   -2.0160   12.6180 O.2   115  SER115     -0.2717
     76  CB       -10.0050    1.1790   12.8730 C.3   115  SER115      0.2103
     77  OG       -10.1420    1.2480   11.4670 O.3   115  SER115     -0.2182
     78  N         -9.2270   -1.3710   14.6980 N.am  116  PHE116     -0.1975
     79  CA        -8.3850   -2.5380   14.9570 C.3   116  PHE116      0.1639
     80  C         -9.2510   -3.7460   15.3400 C.2   116  PHE116      0.2290
     81  O         -9.0710   -4.8560   14.8240 O.2   116  PHE116     -0.2864
     82  CB        -7.3260   -2.2320   16.0280 C.3   116  PHE116      0.0560
     83  CG        -6.1890   -1.3810   15.5290 C.ar  116  PHE116     -0.0200
     84  CD1       -5.3640   -1.8410   14.5140 C.ar  116  PHE116     -0.0042
     85  CD2       -5.9370   -0.1310   16.0730 C.ar  116  PHE116     -0.0042
     86  CE1       -4.3200   -1.0820   14.0480 C.ar  116  PHE116     -0.0003
     87  CE2       -4.8700    0.6400   15.6060 C.ar  116  PHE116     -0.0003
     88  CZ        -4.0750    0.1590   14.5830 C.ar  116  PHE116     -0.0000
     89  N        -10.7870   -5.4490   12.3430 N.3   119  ASP119     -0.1239
     90  CA        -9.9050   -6.1820   11.4410 C.3   119  ASP119      0.1674
     91  C         -9.3380   -7.4240   12.1180 C.2   119  ASP119      0.2266
     92  O         -8.3270   -7.3530   12.8030 O.2   119  ASP119     -0.2867
     93  CB        -8.7580   -5.3090   10.9720 C.3   119  ASP119      0.1410
     94  CG        -7.9700   -5.9640    9.8680 C.2   119  ASP119      0.3668
     95  OD1       -8.2340   -7.1520    9.6030 O.co2 119  ASP119     -0.2456
     96  OD2       -7.1080   -5.3010    9.2540 O.co2 119  ASP119     -0.2456
     97  N         -5.3400   -8.6800   11.6130 N.3   122  ILE122     -0.1245
     98  CA        -4.1400   -8.0210   12.1240 C.3   122  ILE122      0.1561
     99  C         -4.0610   -8.1550   13.6400 C.2   122  ILE122      0.2260
    100  O         -4.9440   -7.6760   14.3650 O.2   122  ILE122     -0.2867
    101  CB        -4.1200   -6.5430   11.6560 C.3   122  ILE122      0.0252
    102  CG1       -3.8920   -6.4900   10.1450 C.3   122  ILE122      0.0019
    103  CG2       -3.0570   -5.7270   12.4240 C.3   122  ILE122      0.0019
    104  CD1       -3.9230   -5.0800    9.5780 C.3   122  ILE122      0.0001
    105  N          1.0020   -4.5120   15.3850 N.3   125  LEU125     -0.1245
    106  CA         1.9420   -3.8200   14.4990 C.3   125  LEU125      0.1561
    107  C          3.3740   -4.0580   14.9380 C.2   125  LEU125      0.2260
    108  O          3.6480   -4.2220   16.1200 O.2   125  LEU125     -0.2867
    109  CB         1.6490   -2.3090   14.4700 C.3   125  LEU125      0.0270
    110  CG         0.7520   -1.8730   13.2950 C.3   125  LEU125      0.0019
    111  CD1       -0.6680   -2.4240   13.4740 C.3   125  LEU125      0.0001
    112  CD2        0.7200   -0.3630   13.1320 C.3   125  LEU125      0.0001
    113  N          3.1280    0.7450    6.1960 N.3   221  GLY221     -0.1225
    114  CA         1.9010    0.6590    6.9770 C.3   221  GLY221      0.1811
    115  C          0.7700    1.5250    6.4600 C.2   221  GLY221      0.2280
    116  O         -0.3010    1.5590    7.0760 O.2   221  GLY221     -0.2866
    117  N         -1.6830    2.1800    3.1280 N.3   223  THR223     -0.1218
    118  CA        -2.1140    1.4440    1.9420 C.3   223  THR223      0.1862
    119  C         -1.8220    2.1650    0.6350 C.2   223  THR223      0.2287
    120  O         -1.3590    1.5590   -0.3280 O.2   223  THR223     -0.2866
    121  CB        -3.6210    1.1810    2.0100 C.3   223  THR223      0.1770
    122  OG1       -3.9340    0.6530    3.2980 O.3   223  THR223     -0.2211
    123  CG2       -4.0650    0.1980    0.9530 C.3   223  THR223      0.0375
@<TRIPOS>BOND
     1   120   119    2
     2    12    11    2
     3    11    10    1
     4   119   118    1
     5   123   121    1
     6    16    14   ar
     7    17    18    1
     8    23    22   ar
     9    10    13    1
    10    10     9    1
    11    24    22   ar
    12    22    21    1
    13    14    13    1
    14    14    15   ar
    15   118   121    1
    16   118   117    1
    17   121   122    1
    18    18    21    1
    19    18    19    1
    20     9     3   am
    21    19    25   am
    22    19    20    2
    23     1     2    1
    24    28    27    2
    25    25    26    1
    26     3     4    2
    27     3     2    1
    28    27    26    1
    29     2     5    1
    30    26    29    1
    31     6     5    1
    32     6     8    1
    33     5     7    1
    34   113   114    1
    35   115   114    1
    36   115   116    2
    37    36    35   ar
    38    37    35   ar
    39    35    34    1
    40    96    94   ar
    41    62    59    1
    42    62    63    1
    43    44    43   ar
    44    39    40    1
    45    39    38    1
    46    39    42    1
    47   104   102    1
    48    95    94   ar
    49    40    41    2
    50    94    93    1
    51    59    58    1
    52    59    60    1
    53    65    63   ar
    54   102   101    1
    55    31    34    1
    56    31    32    1
    57    31    30    1
    58    63    64   ar
    59    43    42    1
    60    43    45   ar
    61    32    33    2
    62    93    90    1
    63    61    60    2
    64    90    91    1
    65    90    89    1
    66    77    76    1
    67    97    98    1
    68   101    98    1
    69   101   103    1
    70    91    92    2
    71    98    99    1
    72    75    74    2
    73    48    49    2
    74    48    47    1
    75    76    73    1
    76    50    47    1
    77    50    51    1
    78   112   110    1
    79   110   111    1
    80   110   109    1
    81    73    74    1
    82    73    72    1
    83    74    78   am
    84    47    46    1
    85    71    70    1
    86    99   100    2
    87    53    51   ar
    88    53    55   ar
    89    51    52   ar
    90    66    67    1
    91    70    67    1
    92    86    84   ar
    93    86    88   ar
    94    55    56   ar
    95   109   106    1
    96   106   107    1
    97   106   105    1
    98    84    83   ar
    99    88    87   ar
   100    78    79    1
   101    52    54   ar
   102    67    68    1
   103    81    80    2
   104   107   108    2
   105    79    80    1
   106    79    82    1
   107    56    54   ar
   108    56    57    1
   109    83    82    1
   110    83    85   ar
   111    87    85   ar
   112    69    68    2
