@<TRIPOS>MOLECULE
tmp/5dr2A01.pdb
 213 202 0 0 0
SMALL
GASTEIGER

@<TRIPOS>ATOM
      1  N          0.7430  -28.7030    2.8230 N.3    13  LEU13      -0.1231
      2  CA        -0.0040  -29.9040    3.0410 C.3    13  LEU13       0.1696
      3  C         -1.2990  -29.8030    2.3200 C.2    13  LEU13       0.2632
      4  O         -1.7930  -30.7910    1.8760 O.2    13  LEU13      -0.2714
      5  CB        -0.2520  -30.1320    4.5410 C.3    13  LEU13       0.0284
      6  CG         0.9910  -30.5060    5.3510 C.3    13  LEU13       0.0019
      7  CD1        0.7490  -30.3900    6.8440 C.3    13  LEU13       0.0001
      8  CD2        1.4770  -31.9170    5.0230 C.3    13  LEU13       0.0001
      9  N         -1.8590  -28.5970    2.2210 N.am   14  GLY14      -0.1718
     10  CA        -3.0590  -28.3940    1.4460 C.2    14  GLY14       0.1480
     11  C         -3.5360  -26.9520    1.3510 C.2    14  GLY14       0.2820
     12  O         -2.9660  -26.0290    1.9180 O.2    14  GLY14      -0.2669
     13  N         -4.6160  -26.7670    0.6340 N.am   15  LYS15      -0.1929
     14  CA        -5.1640  -25.4730    0.4410 C.3    15  LYS15       0.1731
     15  C         -6.6810  -25.5570    0.5490 C.2    15  LYS15       0.2617
     16  O         -7.3210  -26.5210    0.1090 O.2    15  LYS15      -0.2715
     17  CB        -4.7130  -24.9430   -0.9210 C.3    15  LYS15       0.0312
     18  CG        -4.5240  -23.4460   -0.9740 C.3    15  LYS15       0.0038
     19  CD        -5.6600  -22.7090   -1.6750 C.3    15  LYS15       0.0206
     20  CE        -5.4780  -21.1970   -1.5570 C.3    15  LYS15       0.1093
     21  NZ        -5.9060  -20.6720   -0.2180 N.3    15  LYS15      -0.1314
     22  N         -7.2430  -24.5470    1.1920 N.am   16  GLY16      -0.1940
     23  CA        -8.6750  -24.2710    1.1290 C.3    16  GLY16       0.2014
     24  C         -8.8800  -22.7630    1.0000 C.2    16  GLY16       0.2639
     25  O         -7.9020  -21.9900    0.9910 O.2    16  GLY16      -0.2714
     26  N        -10.1520  -22.3660    0.9610 N.am   17  LYS17      -0.1963
     27  CA       -10.5760  -21.0190    0.5650 C.3    17  LYS17       0.1728
     28  C         -9.6750  -19.8410    0.9730 C.2    17  LYS17       0.2616
     29  O         -9.4370  -18.9710    0.1540 O.2    17  LYS17      -0.2715
     30  CB       -12.0190  -20.7530    0.9890 C.3    17  LYS17       0.0311
     31  CG       -12.9990  -21.4230    0.0280 C.3    17  LYS17       0.0038
     32  CD       -14.4470  -21.4150    0.5040 C.3    17  LYS17       0.0206
     33  CE       -15.1290  -22.7660    0.1870 C.3    17  LYS17       0.1093
     34  NZ       -16.5020  -22.8490    0.7640 N.3    17  LYS17      -0.1314
     35  N         -9.1490  -19.7980    2.1920 N.am   18  PHE18      -0.1960
     36  CA        -8.5600  -18.5310    2.6610 C.3    18  PHE18       0.1771
     37  C         -7.0500  -18.5130    2.8820 C.2    18  PHE18       0.2620
     38  O         -6.4960  -17.4540    3.1670 O.2    18  PHE18      -0.2715
     39  CB        -9.3060  -18.0630    3.9030 C.3    18  PHE18       0.0574
     40  CG       -10.7890  -17.9190    3.6850 C.ar   18  PHE18      -0.0200
     41  CD1      -11.3050  -16.7710    3.0660 C.ar   18  PHE18      -0.0042
     42  CD2      -11.6720  -18.9330    4.0790 C.ar   18  PHE18      -0.0042
     43  CE1      -12.6700  -16.6170    2.8720 C.ar   18  PHE18      -0.0003
     44  CE2      -13.0370  -18.7890    3.8770 C.ar   18  PHE18      -0.0003
     45  CZ       -13.5370  -17.6240    3.2680 C.ar   18  PHE18      -0.0000
     46  N         -6.3990  -19.6640    2.7210 N.am   19  GLY19      -0.1954
     47  CA        -4.9460  -19.7500    2.7820 C.3    19  GLY19       0.1869
     48  C         -4.4600  -21.1710    2.9700 C.2    19  GLY19       0.2309
     49  O         -5.2120  -22.1010    3.3510 O.2    19  GLY19      -0.2863
     50  N         -2.2540  -24.5360    4.2550 N.3    21  VAL21      -0.1245
     51  CA        -1.8970  -25.2960    5.4660 C.3    21  VAL21       0.1561
     52  C         -0.4780  -25.8810    5.1940 C.2    21  VAL21       0.2260
     53  O         -0.1730  -26.3520    4.0700 O.2    21  VAL21      -0.2867
     54  CB        -2.9970  -26.3480    5.7480 C.3    21  VAL21       0.0252
     55  CG1       -2.7230  -27.1180    6.9860 C.3    21  VAL21       0.0019
     56  CG2       -4.3710  -25.6670    5.8460 C.3    21  VAL21       0.0019
     57  N          0.8610  -29.0160   11.8520 N.3    34  ALA34      -0.1245
     58  CA         0.3610  -28.3880   10.7110 C.3    34  ALA34       0.1562
     59  C         -0.0280  -26.9550   11.0930 C.2    34  ALA34       0.2260
     60  O         -0.6850  -26.7450   12.1090 O.2    34  ALA34      -0.2867
     61  CB        -0.8450  -29.1870   10.2040 C.3    34  ALA34       0.0290
     62  N         -2.0290  -23.6300    9.9180 N.3    36  LYS36      -0.1245
     63  CA        -3.0950  -23.1930    8.9620 C.3    36  LYS36       0.1561
     64  C         -3.0070  -21.6640    8.9180 C.2    36  LYS36       0.2260
     65  O         -3.2710  -21.0030    9.9230 O.2    36  LYS36      -0.2867
     66  CB        -4.4780  -23.7200    9.3940 C.3    36  LYS36       0.0271
     67  CG        -5.6690  -23.1350    8.6430 C.3    36  LYS36       0.0035
     68  CD        -6.9260  -23.9130    8.9260 C.3    36  LYS36       0.0206
     69  CE        -8.1780  -23.2610    8.3890 C.3    36  LYS36       0.1093
     70  NZ        -9.4020  -24.0210    8.8060 N.3    36  LYS36      -0.1314
     71  N         -4.0830  -18.0220    7.4270 N.3    38  LEU38      -0.1245
     72  CA        -5.1990  -17.2860    6.7870 C.3    38  LEU38       0.1561
     73  C         -4.8690  -15.8020    6.6180 C.2    38  LEU38       0.2260
     74  O         -4.2940  -15.1890    7.5200 O.2    38  LEU38      -0.2867
     75  CB        -6.4600  -17.4610    7.6210 C.3    38  LEU38       0.0270
     76  CG        -6.7900  -18.9440    7.8730 C.3    38  LEU38       0.0019
     77  CD1       -6.4720  -19.3890    9.3060 C.3    38  LEU38       0.0001
     78  CD2       -8.2220  -19.2200    7.4930 C.3    38  LEU38       0.0001
     79  N        -16.2870  -16.7400   12.0040 N.3    51  GLN51      -0.1245
     80  CA       -16.1660  -18.1900   11.7830 C.3    51  GLN51       0.1566
     81  C        -14.8300  -18.6790   12.3300 C.2    51  GLN51       0.2260
     82  O        -14.7650  -19.6700   13.0500 O.2    51  GLN51      -0.2867
     83  CB       -16.3280  -18.5450   10.3120 C.3    51  GLN51       0.0367
     84  CG       -17.7640  -18.6460    9.8570 C.3    51  GLN51       0.0905
     85  CD       -17.8560  -19.0550    8.4010 C.2    51  GLN51       0.2608
     86  OE1      -16.8390  -19.3470    7.7900 O.2    51  GLN51      -0.2717
     87  NE2      -19.0710  -19.0780    7.8260 N.am   51  GLN51      -0.0878
     88  N        -14.0790  -21.2100   15.2690 N.3    55  GLU55      -0.1245
     89  CA       -13.2970  -22.3750   14.9000 C.3    55  GLU55       0.1567
     90  C        -12.3490  -22.6880   16.0410 C.2    55  GLU55       0.2260
     91  O        -12.3310  -23.7900   16.5920 O.2    55  GLU55      -0.2867
     92  CB       -12.5430  -22.1170   13.5750 C.3    55  GLU55       0.0388
     93  CG       -11.4470  -23.1260   13.2600 C.3    55  GLU55       0.1160
     94  CD       -11.1700  -23.2970   11.7540 C.2    55  GLU55       0.3649
     95  OE1      -11.6330  -22.4980   10.8810 O.co2  55  GLU55      -0.2457
     96  OE2      -10.4740  -24.2870   11.4280 O.co2  55  GLU55      -0.2457
     97  N         -9.5140  -33.6080   15.2750 N.3    68  LEU68      -0.1245
     98  CA        -8.1970  -32.9950   15.1320 C.3    68  LEU68       0.1561
     99  C         -8.0230  -31.9820   16.2510 C.2    68  LEU68       0.2260
    100  O         -8.8940  -31.1170   16.4740 O.2    68  LEU68      -0.2867
    101  CB        -8.0390  -32.3110   13.7280 C.3    68  LEU68       0.0270
    102  CG        -6.6070  -32.0710   13.2450 C.3    68  LEU68       0.0019
    103  CD1       -5.9600  -33.3320   12.7210 C.3    68  LEU68       0.0001
    104  CD2       -6.4540  -30.8960   12.2550 C.3    68  LEU68       0.0001
    105  N         -2.1750  -26.6500   14.4240 N.3    84  LEU84      -0.1231
    106  CA        -2.9540  -27.8950   14.3980 C.3    84  LEU84       0.1693
    107  C         -2.1180  -29.1320   14.5370 C.2    84  LEU84       0.2595
    108  O         -0.9570  -29.1400   14.2090 O.2    84  LEU84      -0.2718
    109  CB        -3.7490  -27.9670   13.1420 C.3    84  LEU84       0.0284
    110  CG        -4.8170  -26.8580   12.8860 C.3    84  LEU84       0.0019
    111  CD1       -5.2660  -26.9490   11.4510 C.3    84  LEU84       0.0001
    112  CD2       -6.0220  -26.9200   13.7950 C.3    84  LEU84       0.0001
    113  N         -2.7600  -30.1820   15.0360 N.am   85  GLU85      -0.1920
    114  CA        -2.2720  -31.5280   14.9720 C.3    85  GLU85       0.1949
    115  C         -2.1100  -31.8710   13.4980 C.2    85  GLU85       0.2659
    116  O         -2.9690  -31.5300   12.7040 O.2    85  GLU85      -0.2711
    117  CB        -3.2680  -32.4770   15.6870 C.2    85  GLU85       0.0111
    118  CG        -3.0360  -33.9870   15.4730 C.2    85  GLU85       0.0838
    119  CD        -4.2320  -34.9150   15.8750 C.2    85  GLU85       0.3877
    120  OE1       -5.2620  -34.4640   16.4580 O.co2  85  GLU85      -0.2406
    121  OE2       -4.1300  -36.1510   15.6200 O.co2  85  GLU85      -0.2406
    122  N         -1.0520  -32.6050   13.1480 N.am   86  TYR86      -0.1957
    123  CA        -0.7640  -32.9210   11.7750 C.3    86  TYR86       0.1771
    124  C         -1.2310  -34.3480   11.4440 C.2    86  TYR86       0.2619
    125  O         -0.8290  -35.2530   12.1550 O.2    86  TYR86      -0.2715
    126  CB         0.7550  -32.7970   11.5390 C.3    86  TYR86       0.0574
    127  CG         1.3850  -33.6770   10.4160 C.ar   86  TYR86      -0.0198
    128  CD1        1.0050  -33.5280    9.0730 C.ar   86  TYR86      -0.0009
    129  CD2        2.4040  -34.5580   10.7020 C.ar   86  TYR86      -0.0009
    130  CE1        1.5840  -34.2690    8.0770 C.ar   86  TYR86       0.0417
    131  CE2        3.0110  -35.2970    9.7010 C.ar   86  TYR86       0.0417
    132  CZ         2.5950  -35.1390    8.3880 C.ar   86  TYR86       0.1957
    133  OH         3.1680  -35.8640    7.3990 O.3    86  TYR86      -0.2866
    134  N         -2.0090  -34.5270   10.3560 N.am   87  ALA87      -0.1977
    135  CA        -2.5580  -35.8190    9.9530 C.3    87  ALA87       0.1597
    136  C         -1.7010  -36.3420    8.8200 C.2    87  ALA87       0.2287
    137  O         -1.8040  -35.8370    7.7100 O.2    87  ALA87      -0.2864
    138  CB        -4.0110  -35.6590    9.5130 C.3    87  ALA87       0.0319
    139  N         -2.9830  -37.7240    5.1350 N.3    90  GLY90      -0.1210
    140  CA        -3.7330  -36.8190    4.2440 C.3    90  GLY90       0.1956
    141  C         -5.2400  -36.8490    4.4540 C.2    90  GLY90       0.2612
    142  O         -5.7030  -36.9400    5.5910 O.2    90  GLY90      -0.2717
    143  N         -6.0030  -36.8000    3.3680 N.am   91  THR91      -0.1952
    144  CA        -7.4300  -36.5400    3.4710 C.3    91  THR91       0.1897
    145  C         -8.1870  -37.7140    2.9250 C.2    91  THR91       0.2313
    146  O         -7.6520  -38.4920    2.1610 O.2    91  THR91      -0.2863
    147  CB        -7.8730  -35.3180    2.6290 C.3    91  THR91       0.1794
    148  OG1       -7.6230  -35.6110    1.2640 O.3    91  THR91      -0.2208
    149  CG2       -7.1350  -34.0140    3.0280 C.3    91  THR91       0.0378
    150  N        -20.1800  -28.9550    8.1500 N.3   130  ASP130     -0.1239
    151  CA       -19.2960  -28.9150    7.0110 C.3   130  ASP130      0.1674
    152  C        -18.5080  -30.2200    6.9650 C.2   130  ASP130      0.2266
    153  O        -17.3320  -30.2260    6.8560 O.2   130  ASP130     -0.2867
    154  CB       -18.4140  -27.6920    7.1390 C.3   130  ASP130      0.1410
    155  CG       -17.6370  -27.3740    5.8920 C.2   130  ASP130      0.3668
    156  OD1      -18.0100  -27.7960    4.7780 O.co2 130  ASP130     -0.2456
    157  OD2      -16.6130  -26.6840    6.0410 O.co2 130  ASP130     -0.2456
    158  N        -12.9540  -33.4880    2.1930 N.3   134  GLU134     -0.1231
    159  CA       -11.7850  -32.6100    2.1890 C.3   134  GLU134      0.1699
    160  C        -11.3450  -32.2520    3.6200 C.2   134  GLU134      0.2592
    161  O        -10.1810  -31.9380    3.8070 O.2   134  GLU134     -0.2718
    162  CB       -12.0470  -31.3580    1.3000 C.3   134  GLU134      0.0402
    163  CG       -11.4450  -30.0360    1.7600 C.3   134  GLU134      0.1161
    164  CD       -12.0060  -28.7980    1.0340 C.2   134  GLU134      0.3649
    165  OE1      -13.2230  -28.8380    0.6410 O.co2 134  GLU134     -0.2457
    166  OE2      -11.2180  -27.7900    0.8860 O.co2 134  GLU134     -0.2457
    167  N        -12.2760  -32.3490    4.5880 N.am  135  ASN135     -0.1974
    168  CA       -12.0880  -32.0410    5.9880 C.3   135  ASN135      0.1688
    169  C        -12.0400  -33.2940    6.8900 C.2   135  ASN135      0.2292
    170  O        -12.2400  -33.1780    8.1040 O.2   135  ASN135     -0.2864
    171  CB       -13.3320  -31.2460    6.4590 C.3   135  ASN135      0.1181
    172  CG       -13.4750  -29.8830    5.7880 C.2   135  ASN135      0.2629
    173  OD1      -12.5180  -29.2880    5.3370 O.2   135  ASN135     -0.2716
    174  ND2      -14.7070  -29.3680    5.7710 N.am  135  ASN135     -0.0877
    175  N         -9.5810  -36.1760    7.8520 N.3   137  LEU137     -0.1245
    176  CA        -8.1480  -36.3450    7.7500 C.3   137  LEU137      0.1561
    177  C         -7.7920  -37.7130    8.3000 C.2   137  LEU137      0.2260
    178  O         -8.5550  -38.3320    9.0270 O.2   137  LEU137     -0.2867
    179  CB        -7.4430  -35.2250    8.5010 C.3   137  LEU137      0.0270
    180  CG        -7.7280  -33.7970    8.0870 C.3   137  LEU137      0.0019
    181  CD1       -6.8790  -32.7500    8.8620 C.3   137  LEU137      0.0001
    182  CD2       -7.5430  -33.6880    6.6070 C.3   137  LEU137      0.0001
    183  N        -11.7340  -32.4790   10.7300 N.3   147  ALA147     -0.1231
    184  CA       -11.1370  -31.1470   10.7180 C.3   147  ALA147      0.1694
    185  C        -12.1190  -30.0320   10.3730 C.2   147  ALA147      0.2592
    186  O        -13.3290  -30.2860   10.2780 O.2   147  ALA147     -0.2718
    187  CB        -9.9420  -31.1490    9.7870 C.3   147  ALA147      0.0304
    188  N        -11.5930  -28.8030   10.3180 N.am  148  ASP148     -0.1974
    189  CA       -12.2830  -27.6190    9.8240 C.3   148  ASP148      0.1709
    190  C        -13.5630  -27.2740   10.5690 C.2   148  ASP148      0.2293
    191  O        -14.6830  -27.6370   10.1710 O.2   148  ASP148     -0.2864
    192  CB       -12.5410  -27.7870    8.3330 C.3   148  ASP148      0.1436
    193  CG       -12.7870  -26.4920    7.6280 C.2   148  ASP148      0.3671
    194  OD1      -13.2270  -25.5330    8.2690 O.co2 148  ASP148     -0.2456
    195  OD2      -12.6390  -26.5110    6.3950 O.co2 148  ASP148     -0.2456
    196  N        -14.7320  -24.2380   11.0250 N.3   150  GLY150     -0.1210
    197  CA       -15.0780  -22.8860   10.6210 C.3   150  GLY150      0.1956
    198  C        -16.5870  -22.6540   10.6250 C.2   150  GLY150      0.2611
    199  O        -17.0650  -21.5920   11.0370 O.2   150  GLY150     -0.2717
    200  N        -17.3120  -23.6660   10.1680 N.am  151  TRP151     -0.1976
    201  CA       -18.7470  -23.6380   10.0520 C.3   151  TRP151      0.1640
    202  C        -19.4440  -24.1610   11.2800 C.2   151  TRP151      0.2290
    203  O        -20.6230  -23.9650   11.3700 O.2   151  TRP151     -0.2864
    204  CB       -19.1590  -24.4800    8.8470 C.3   151  TRP151      0.0576
    205  CG       -19.1890  -23.7090    7.5980 C.ar  151  TRP151      0.0006
    206  CD1      -18.3080  -23.7520    6.5960 C.ar  151  TRP151      0.0946
    207  CD2      -20.1610  -22.7370    7.2470 C.ar  151  TRP151      0.0152
    208  NE1      -18.6640  -22.8890    5.6050 N.ar  151  TRP151     -0.2442
    209  CE2      -19.8140  -22.2520    5.9730 C.ar  151  TRP151      0.0810
    210  CE3      -21.3000  -22.2310    7.8840 C.ar  151  TRP151      0.0012
    211  CZ2      -20.5600  -21.2660    5.3140 C.ar  151  TRP151      0.0191
    212  CZ3      -22.0440  -21.2450    7.2360 C.ar  151  TRP151      0.0001
    213  CH2      -21.6690  -20.7820    5.9520 C.ar  151  TRP151      0.0015
@<TRIPOS>BOND
     1    19    20    1
     2    19    18    1
     3    20    21    1
     4    18    17    1
     5    17    14    1
     6    31    32    1
     7    31    30    1
     8    16    15    2
     9    29    28    2
    10    33    32    1
    11    33    34    1
    12    14    15    1
    13    14    13    1
    14    15    22   am
    15    27    26    1
    16    27    28    1
    17    27    30    1
    18    13    11   am
    19   165   164   ar
    20   166   164   ar
    21    26    24   am
    22    28    35   am
    23    25    24    2
    24    24    23    1
    25   164   163    1
    26    23    22    1
    27   148   147    1
    28   162   163    1
    29   162   159    1
    30    11    10    1
    31    11    12    2
    32    10     9    2
    33     4     3    2
    34   146   145    2
    35   159   158    1
    36   159   160    1
    37    35    36    1
    38     9     3    1
    39     3     2    1
    40   147   149    1
    41   147   144    1
    42    36    37    1
    43    36    39    1
    44    46    47    1
    45    46    37   am
    46    47    48    1
    47     1     2    1
    48    43    41   ar
    49    43    45   ar
    50    37    38    2
    51   145   144    1
    52    48    49    2
    53     2     5    1
    54    41    40   ar
    55    45    44   ar
    56   143   144    1
    57   143   141   am
    58   160   161    2
    59   160   167   am
    60    40    39    1
    61    40    42   ar
    62    44    42   ar
    63    53    52    2
    64   140   141    1
    65   140   139    1
    66    50    51    1
    67   141   142    2
    68     5     6    1
    69   167   168    1
    70   156   155   ar
    71     8     6    1
    72    52    51    1
    73   211   213   ar
    74   211   209   ar
    75   173   172    2
    76     6     7    1
    77    51    54    1
    78   208   209   ar
    79   208   206   ar
    80    54    56    1
    81    54    55    1
    82   174   172   am
    83   172   171    1
    84   155   157   ar
    85   155   154    1
    86   213   212   ar
    87   209   207   ar
    88   168   171    1
    89   168   169    1
    90   195   193   ar
    91   206   205   ar
    92   182   180    1
    93    73    72    1
    94    73    74    2
    95    72    71    1
    96    72    75    1
    97   153   152    2
    98   169   170    2
    99   152   151    1
   100   151   154    1
   101   151   150    1
   102   212   210   ar
   103   207   205   ar
   104   207   210   ar
   105   133   132    1
   106    78    76    1
   107   205   204    1
   108    75    76    1
   109   193   194   ar
   110   193   192    1
   111   137   136    2
   112   176   175    1
   113   176   177    1
   114   176   179    1
   115    86    85    2
   116    87    85   am
   117    76    77    1
   118   130   132   ar
   119   130   128   ar
   120   180   179    1
   121   180   181    1
   122   177   178    2
   123   192   189    1
   124   132   131   ar
   125    69    70    1
   126    69    68    1
   127    85    84    1
   128    67    68    1
   129    67    66    1
   130   136   135    1
   131   204   201    1
   132    64    63    1
   133    64    65    2
   134    63    66    1
   135    63    62    1
   136   128   127   ar
   137   138   135    1
   138   131   129   ar
   139   187   184    1
   140   189   188    1
   141   189   190    1
   142    84    83    1
   143   135   134    1
   144   201   200    1
   145   201   202    1
   146   200   198   am
   147   191   190    2
   148    61    58    1
   149   186   185    2
   150    83    80    1
   151   188   185   am
   152   134   124   am
   153   185   184    1
   154   127   129   ar
   155   127   126    1
   156   197   198    1
   157   197   196    1
   158   198   199    2
   159    58    59    1
   160    58    57    1
   161   184   183    1
   162    95    94   ar
   163    59    60    2
   164   202   203    2
   165    96    94   ar
   166   124   123    1
   167   124   125    2
   168   111   110    1
   169   126   123    1
   170    94    93    1
   171   123   122    1
   172    80    79    1
   173    80    81    1
   174   104   102    1
   175    81    82    2
   176   116   115    2
   177   103   102    1
   178   110   109    1
   179   110   112    1
   180   109   106    1
   181   122   115   am
   182   102   101    1
   183    93    92    1
   184   115   114    1
   185    92    89    1
   186   101    98    1
   187   108   107    2
   188   106   105    1
   189   106   107    1
   190   107   113   am
   191    89    88    1
   192    89    90    1
   193   114   113    1
   194   114   117    1
   195    98    97    1
   196    98    99    1
   197   118   117    2
   198   118   119    1
   199   121   119   ar
   200   119   120   ar
   201    90    91    2
   202    99   100    2
