@<TRIPOS>MOLECULE
tmp/5dr3A00.pdb
 89 83 0 0 0
SMALL
GASTEIGER

@<TRIPOS>ATOM
      1  N         -7.6750   -6.6600   -1.9260 N.3    13  LEU13      -0.1245
      2  CA        -7.3020   -5.3160   -2.3530 C.3    13  LEU13       0.1561
      3  C         -5.8970   -4.9130   -1.9350 C.2    13  LEU13       0.2260
      4  O         -5.4660   -3.8090   -2.2500 O.2    13  LEU13      -0.2867
      5  CB        -8.2660   -4.2940   -1.7580 C.3    13  LEU13       0.0270
      6  CG        -9.7380   -4.4260   -2.1370 C.3    13  LEU13       0.0019
      7  CD1      -10.5570   -3.3970   -1.3870 C.3    13  LEU13       0.0001
      8  CD2       -9.9110   -4.3000   -3.6410 C.3    13  LEU13       0.0001
      9  N         -5.1180   -4.2540    1.1780 N.3    15  ASP15      -0.1239
     10  CA        -5.3220   -3.1490    2.1180 C.3    15  ASP15       0.1674
     11  C         -4.1820   -3.0260    3.1400 C.2    15  ASP15       0.2266
     12  O         -3.8540   -1.9290    3.6080 O.2    15  ASP15      -0.2867
     13  CB        -6.6710   -3.2910    2.8120 C.3    15  ASP15       0.1410
     14  CG        -7.8160   -2.8190    1.9400 C.2    15  ASP15       0.3668
     15  OD1       -7.6740   -1.7590    1.2930 O.co2  15  ASP15      -0.2456
     16  OD2       -8.8630   -3.4970    1.9040 O.co2  15  ASP15      -0.2456
     17  N         -1.6910    2.1520    3.0760 N.3   223  THR223     -0.1203
     18  CA        -2.1170    1.4210    1.8990 C.3   223  THR223      0.1994
     19  C         -1.8210    2.1570    0.5960 C.2   223  THR223      0.2617
     20  O         -1.3430    1.5660   -0.3820 O.2   223  THR223     -0.2717
     21  CB        -3.6380    1.1680    1.9540 C.3   223  THR223      0.1784
     22  OG1       -4.0190    0.6940    3.2440 O.3   223  THR223     -0.2211
     23  CG2       -4.0680    0.1730    0.8810 C.3   223  THR223      0.0376
     24  N         -2.1690    3.4350    0.5660 N.am  224  LEU224     -0.1979
     25  CA        -2.2290    4.2100   -0.6710 C.3   224  LEU224      0.1596
     26  C         -1.0180    5.1300   -0.8580 C.2   224  LEU224      0.2287
     27  O         -0.1330    5.2230    0.0070 O.2   224  LEU224     -0.2864
     28  CB        -3.5260    5.0360   -0.7200 C.3   224  LEU224      0.0297
     29  CG        -4.8120    4.2260   -0.5300 C.3   224  LEU224      0.0022
     30  CD1       -6.0430    5.1160   -0.7200 C.3   224  LEU224      0.0001
     31  CD2       -4.8610    3.0210   -1.4660 C.3   224  LEU224      0.0001
     32  N        -17.1160   10.6250   -0.2500 N.3   248  VAL248     -0.1231
     33  CA       -16.3600    9.3860   -0.1600 C.3   248  VAL248      0.1692
     34  C        -15.0130    9.6210    0.5410 C.2   248  VAL248      0.2593
     35  O        -14.5150    8.7440    1.2370 O.2   248  VAL248     -0.2718
     36  CB       -16.1810    8.7490   -1.5570 C.3   248  VAL248      0.0266
     37  CG1      -15.2970    7.5190   -1.4830 C.3   248  VAL248      0.0020
     38  CG2      -17.5500    8.3840   -2.1450 C.3   248  VAL248      0.0020
     39  N        -14.4420   10.8110    0.3700 N.am  249  GLY249     -0.1942
     40  CA       -13.2000   11.1850    1.0350 C.3   249  GLY249      0.2014
     41  C        -11.9600   11.1160    0.1490 C.2   249  GLY249      0.2639
     42  O        -10.8420   10.9730    0.6490 O.2   249  GLY249     -0.2714
     43  N        -12.1400   11.2290   -1.1620 N.am  250  GLY250     -0.1954
     44  CA       -11.0160   11.2410   -2.0710 C.3   250  GLY250      0.1869
     45  C        -11.4700   10.9810   -3.4890 C.2   250  GLY250      0.2309
     46  O        -12.6700   11.0220   -3.8080 O.2   250  GLY250     -0.2863
     47  N         -8.6640    0.3190   -6.2360 N.3   280  PHE280     -0.1241
     48  CA        -9.0520   -0.2070   -4.9230 C.3   280  PHE280      0.1605
     49  C        -10.5090   -0.6170   -4.8510 C.2   280  PHE280      0.2264
     50  O        -11.0500   -0.8370   -3.7710 O.2   280  PHE280     -0.2867
     51  CB        -8.5860    0.7120   -3.7930 C.3   280  PHE280      0.0534
     52  CG        -7.1450    0.4770   -3.5020 C.ar  280  PHE280     -0.0203
     53  CD1       -6.1690    0.9630   -4.3670 C.ar  280  PHE280     -0.0042
     54  CD2       -6.7580   -0.3780   -2.4830 C.ar  280  PHE280     -0.0042
     55  CE1       -4.8430    0.6410   -4.1850 C.ar  280  PHE280     -0.0003
     56  CE2       -5.4320   -0.6880   -2.2980 C.ar  280  PHE280     -0.0003
     57  CZ        -4.4840   -0.1700   -3.1460 C.ar  280  PHE280     -0.0000
     58  N        -16.5940    1.4060   -4.1650 N.3   283  ILE283     -0.1245
     59  CA       -16.6360    2.1610   -2.9200 C.3   283  ILE283      0.1561
     60  C        -17.5200    1.4830   -1.8710 C.2   283  ILE283      0.2260
     61  O        -17.3040    1.6430   -0.6770 O.2   283  ILE283     -0.2867
     62  CB       -17.0680    3.6260   -3.1470 C.3   283  ILE283      0.0252
     63  CG1      -18.4730    3.7150   -3.7490 C.3   283  ILE283      0.0019
     64  CG2      -16.0330    4.3350   -4.0140 C.3   283  ILE283      0.0019
     65  CD1      -19.0080    5.1200   -3.8370 C.3   283  ILE283      0.0001
     66  N        -12.6960    3.1780   -5.7520 N.3   291  PHE291     -0.1227
     67  CA       -11.7100    3.8980   -4.9310 C.3   291  PHE291      0.1736
     68  C        -10.3800    4.0730   -5.6930 C.2   291  PHE291      0.2596
     69  O         -9.8300    3.0850   -6.1810 O.2   291  PHE291     -0.2718
     70  CB       -11.3570    3.0610   -3.6740 C.3   291  PHE291      0.0547
     71  CG       -12.4050    3.0290   -2.5600 C.ar  291  PHE291     -0.0202
     72  CD1      -12.9180    4.1870   -1.9960 C.ar  291  PHE291     -0.0042
     73  CD2      -12.7950    1.8040   -2.0220 C.ar  291  PHE291     -0.0042
     74  CE1      -13.8430    4.1190   -0.9560 C.ar  291  PHE291     -0.0003
     75  CE2      -13.7020    1.7410   -0.9890 C.ar  291  PHE291     -0.0003
     76  CZ       -14.2230    2.9000   -0.4550 C.ar  291  PHE291     -0.0000
     77  N         -9.8300    5.2890   -5.7670 N.am  292  GLY292     -0.1957
     78  CA        -8.4990    5.4670   -6.3310 C.3   292  GLY292      0.1869
     79  C         -7.3680    5.2000   -5.3520 C.2   292  GLY292      0.2309
     80  O         -7.4690    5.4620   -4.1540 O.2   292  GLY292     -0.2863
     81  N         -4.0090    9.4940   -3.9150 N.3   295  GLN295     -0.1245
     82  CA        -4.8500   10.4580   -3.2280 C.3   295  GLN295      0.1566
     83  C         -4.0120   11.6580   -2.8100 C.2   295  GLN295      0.2260
     84  O         -2.7850   11.5880   -2.7170 O.2   295  GLN295     -0.2867
     85  CB        -5.5070    9.8120   -2.0010 C.3   295  GLN295      0.0367
     86  CG        -6.4640    8.6670   -2.3230 C.3   295  GLN295      0.0905
     87  CD        -7.6930    9.0950   -3.1120 C.2   295  GLN295      0.2608
     88  OE1       -8.0190   10.2810   -3.1920 O.2   295  GLN295     -0.2717
     89  NE2       -8.4100    8.1170   -3.6700 N.am  295  GLN295     -0.0878
@<TRIPOS>BOND
     1    78    77    1
     2    78    79    1
     3    47    48    1
     4    69    68    2
     5    77    68   am
     6    66    67    1
     7    68    67    1
     8    79    80    2
     9    67    70    1
    10    48    49    1
    11    48    51    1
    12    49    50    2
    13    53    55   ar
    14    53    52   ar
    15    55    57   ar
    16    58    59    1
    17    64    62    1
    18    81    82    1
    19    65    63    1
    20    46    45    2
    21    51    52    1
    22    63    62    1
    23    70    71    1
    24    89    87   am
    25     8     6    1
    26    52    54   ar
    27    45    44    1
    28    82    83    1
    29    82    85    1
    30    88    87    2
    31    62    59    1
    32    57    56   ar
    33    87    86    1
    34    59    60    1
    35    83    84    2
    36    71    73   ar
    37    71    72   ar
    38    54    56   ar
    39     2     3    1
    40     2     1    1
    41     2     5    1
    42    86    85    1
    43     4     3    2
    44    38    36    1
    45     6     5    1
    46     6     7    1
    47    44    43    1
    48    73    75   ar
    49    72    74   ar
    50    60    61    2
    51    36    37    1
    52    36    33    1
    53    31    29    1
    54    43    41   am
    55    75    76   ar
    56    74    76   ar
    57    26    25    1
    58    26    27    2
    59    30    29    1
    60    28    25    1
    61    28    29    1
    62    25    24    1
    63    20    19    2
    64    32    33    1
    65    33    34    1
    66    41    42    2
    67    41    40    1
    68    39    34   am
    69    39    40    1
    70    34    35    2
    71    24    19   am
    72    19    18    1
    73    23    21    1
    74     9    10    1
    75    15    14   ar
    76    18    21    1
    77    18    17    1
    78    16    14   ar
    79    14    13    1
    80    21    22    1
    81    10    13    1
    82    10    11    1
    83    11    12    2
