@<TRIPOS>MOLECULE
tmp/5dr4A01.pdb
 96 88 0 0 0
SMALL
GASTEIGER

@<TRIPOS>ATOM
      1  N          1.3940   -6.4090   11.3050 N.3    33  ASP33      -0.1239
      2  CA         1.5280   -5.4640   10.2140 C.3    33  ASP33       0.1674
      3  C          2.8650   -4.7450   10.3870 C.2    33  ASP33       0.2266
      4  O          3.0040   -3.9040   11.2750 O.2    33  ASP33      -0.2867
      5  CB         0.3370   -4.4910   10.3300 C.3    33  ASP33       0.1410
      6  CG         0.2380   -3.5090    9.1920 C.2    33  ASP33       0.3668
      7  OD1        1.1780   -3.4150    8.3760 O.co2  33  ASP33      -0.2456
      8  OD2       -0.8120   -2.8090    9.1330 O.co2  33  ASP33      -0.2456
      9  N          5.3900   -2.0440    9.8030 N.3    35  ASP35      -0.1239
     10  CA         5.0150   -0.6550    9.5290 C.3    35  ASP35       0.1674
     11  C          6.2360    0.2590    9.5890 C.2    35  ASP35       0.2266
     12  O          6.6670    0.6490   10.6760 O.2    35  ASP35      -0.2867
     13  CB         3.9610   -0.2220   10.5510 C.3    35  ASP35       0.1410
     14  CG         3.5150    1.2140   10.3850 C.2    35  ASP35       0.3668
     15  OD1        3.8190    1.8130    9.3420 O.co2  35  ASP35      -0.2456
     16  OD2        2.8420    1.7310   11.3210 O.co2  35  ASP35      -0.2456
     17  N          6.3290    3.2370    8.9990 N.3    37  GLY37      -0.1225
     18  CA         5.8730    4.5450    9.4290 C.3    37  GLY37       0.1811
     19  C          5.5680    4.6990   10.9160 C.2    37  GLY37       0.2280
     20  O          4.9950    5.7130   11.3180 O.2    37  GLY37      -0.2866
     21  N         -2.5610    6.6090   14.8290 N.3    79  TYR79      -0.1227
     22  CA        -2.0540    6.5100   13.4610 C.3    79  TYR79       0.1736
     23  C         -2.7730    7.4700   12.5230 C.2    79  TYR79       0.2596
     24  O         -3.7490    8.1160   12.9050 O.2    79  TYR79      -0.2718
     25  CB        -2.2110    5.0830   12.9650 C.3    79  TYR79       0.0548
     26  CG        -1.4560    4.0790   13.7980 C.ar   79  TYR79      -0.0200
     27  CD1       -2.0880    3.3360   14.7790 C.ar   79  TYR79      -0.0009
     28  CD2       -0.1000    3.8830   13.6020 C.ar   79  TYR79      -0.0009
     29  CE1       -1.3800    2.4070   15.5510 C.ar   79  TYR79       0.0417
     30  CE2        0.6170    2.9630   14.3580 C.ar   79  TYR79       0.0417
     31  CZ        -0.0290    2.2240   15.3250 C.ar   79  TYR79       0.1957
     32  OH         0.6920    1.3150   16.0730 O.3    79  TYR79      -0.2866
     33  N         -2.2800    7.5400   11.2870 N.am   80  GLY80      -0.1942
     34  CA        -2.7410    8.5160   10.3120 C.3    80  GLY80       0.2014
     35  C         -4.2020    8.3880    9.9310 C.2    80  GLY80       0.2638
     36  O         -4.7850    9.3260    9.3830 O.2    80  GLY80      -0.2714
     37  N         -4.7950    7.2270   10.2000 N.am   81  ASP81      -0.1971
     38  CA        -6.2030    6.9950    9.8780 C.3    81  ASP81       0.1709
     39  C         -7.1020    7.3060   11.0730 C.2    81  ASP81       0.2293
     40  O         -8.3140    7.1140   11.0080 O.2    81  ASP81      -0.2864
     41  CB        -6.4220    5.5510    9.4070 C.3    81  ASP81       0.1436
     42  CG        -6.0450    4.5260   10.4620 C.2    81  ASP81       0.3671
     43  OD1       -5.4080    4.9130   11.4610 O.co2  81  ASP81      -0.2456
     44  OD2       -6.3730    3.3280   10.2870 O.co2  81  ASP81      -0.2456
     45  N         -6.8810    5.7780   13.9620 N.3    83  SER83      -0.1217
     46  CA        -6.9630    4.6230   14.8530 C.3    83  SER83       0.1889
     47  C         -5.9470    4.7800   15.9840 C.2    83  SER83       0.2288
     48  O         -5.0180    5.5720   15.8840 O.2    83  SER83      -0.2866
     49  CB        -6.7200    3.3220   14.0870 C.3    83  SER83       0.2089
     50  OG        -5.3840    3.2270   13.6300 O.3    83  SER83      -0.2183
     51  N         -9.2140   -1.4610   14.6760 N.3   116  PHE116     -0.1241
     52  CA        -8.4060   -2.6330   14.9850 C.3   116  PHE116      0.1605
     53  C         -9.2800   -3.8300   15.3530 C.2   116  PHE116      0.2264
     54  O         -9.0560   -4.9380   14.8770 O.2   116  PHE116     -0.2867
     55  CB        -7.3760   -2.3300   16.0720 C.3   116  PHE116      0.0534
     56  CG        -6.2450   -1.4640   15.5930 C.ar  116  PHE116     -0.0203
     57  CD1       -5.3640   -1.9350   14.6390 C.ar  116  PHE116     -0.0042
     58  CD2       -6.0820   -0.1670   16.0730 C.ar  116  PHE116     -0.0042
     59  CE1       -4.3280   -1.1510   14.1800 C.ar  116  PHE116     -0.0003
     60  CE2       -5.0400    0.6230   15.6220 C.ar  116  PHE116     -0.0003
     61  CZ        -4.1660    0.1330   14.6680 C.ar  116  PHE116     -0.0000
     62  N         -5.3210   -8.7350   11.6050 N.3   122  ILE122     -0.1245
     63  CA        -4.1130   -8.0620   12.0970 C.3   122  ILE122      0.1561
     64  C         -4.0650   -8.1950   13.6190 C.2   122  ILE122      0.2260
     65  O         -4.9540   -7.7120   14.3190 O.2   122  ILE122     -0.2867
     66  CB        -4.0670   -6.5930   11.6180 C.3   122  ILE122      0.0252
     67  CG1       -3.8100   -6.5430   10.1020 C.3   122  ILE122      0.0019
     68  CG2       -2.9900   -5.8020   12.3570 C.3   122  ILE122      0.0019
     69  CD1       -3.8100   -5.1390    9.5000 C.3   122  ILE122      0.0001
     70  N          1.0260   -4.5760   15.4270 N.3   125  LEU125     -0.1245
     71  CA         1.9420   -3.8650   14.5370 C.3   125  LEU125      0.1561
     72  C          3.3750   -4.1130   14.9560 C.2   125  LEU125      0.2260
     73  O          3.6540   -4.2760   16.1360 O.2   125  LEU125     -0.2867
     74  CB         1.6560   -2.3540   14.5430 C.3   125  LEU125      0.0270
     75  CG         0.7310   -1.9080   13.3850 C.3   125  LEU125      0.0019
     76  CD1       -0.7180   -2.4370   13.5890 C.3   125  LEU125      0.0001
     77  CD2        0.7520   -0.4200   13.1740 C.3   125  LEU125      0.0001
     78  N          6.4130    4.2540    3.6120 N.3   219  ASP219     -0.1239
     79  CA         5.5540    3.8040    4.7230 C.3   219  ASP219      0.1674
     80  C          4.7750    2.5410    4.3530 C.2   219  ASP219      0.2266
     81  O          3.7310    2.5960    3.6940 O.2   219  ASP219     -0.2867
     82  CB         4.6060    4.9250    5.1350 C.3   219  ASP219      0.1410
     83  CG         3.7600    4.5740    6.3160 C.2   219  ASP219      0.3668
     84  OD1        2.9410    5.4310    6.7120 O.co2 219  ASP219     -0.2456
     85  OD2        3.9080    3.4650    6.8570 O.co2 219  ASP219     -0.2456
     86  N          3.0570    0.8090    6.2230 N.3   221  GLY221     -0.1210
     87  CA         1.8400    0.7160    7.0090 C.3   221  GLY221      0.1956
     88  C          0.7040    1.5790    6.5020 C.2   221  GLY221      0.2612
     89  O         -0.3750    1.5950    7.1000 O.2   221  GLY221     -0.2717
     90  N          0.9350    2.2940    5.4040 N.am  222  THR222     -0.1952
     91  CA        -0.1160    3.0520    4.7310 C.3   222  THR222      0.1897
     92  C         -0.4260    2.3500    3.4100 C.2   222  THR222      0.2313
     93  O          0.4820    1.9640    2.6710 O.2   222  THR222     -0.2863
     94  CB         0.3320    4.5250    4.4890 C.3   222  THR222      0.1794
     95  OG1        0.4110    5.2110    5.7510 O.3   222  THR222     -0.2208
     96  CG2       -0.6490    5.2590    3.5860 C.3   222  THR222      0.0378
@<TRIPOS>BOND
     1    93    92    2
     2    92    91    1
     3    96    94    1
     4    78    79    1
     5    81    80    2
     6    80    79    1
     7    94    91    1
     8    94    95    1
     9    79    82    1
    10    91    90    1
    11    82    83    1
    12    90    88   am
    13    86    87    1
    14    83    84   ar
    15    83    85   ar
    16    88    87    1
    17    88    89    2
    18     7     6   ar
    19    17    18    1
    20     8     6   ar
    21     6     5    1
    22    15    14   ar
    23    36    35    2
    24    41    38    1
    25    41    42    1
    26    18    19    1
    27    69    67    1
    28    10    11    1
    29    10     9    1
    30    10    13    1
    31    11    12    2
    32    38    37    1
    33    38    39    1
    34    35    37   am
    35    35    34    1
    36    67    66    1
    37     2     5    1
    38     2     3    1
    39     2     1    1
    40    44    42   ar
    41    34    33    1
    42    14    13    1
    43    14    16   ar
    44     3     4    2
    45    42    43   ar
    46    19    20    2
    47    40    39    2
    48    33    23   am
    49    62    63    1
    50    66    63    1
    51    66    68    1
    52    63    64    1
    53    23    24    2
    54    23    22    1
    55    25    22    1
    56    25    26    1
    57    77    75    1
    58    75    76    1
    59    75    74    1
    60    22    21    1
    61    28    26   ar
    62    28    30   ar
    63    64    65    2
    64    50    49    1
    65    26    27   ar
    66    45    46    1
    67    49    46    1
    68    59    57   ar
    69    59    61   ar
    70    30    31   ar
    71    71    74    1
    72    71    72    1
    73    71    70    1
    74    57    56   ar
    75    61    60   ar
    76    51    52    1
    77    27    29   ar
    78    46    47    1
    79    54    53    2
    80    72    73    2
    81    52    53    1
    82    52    55    1
    83    31    29   ar
    84    31    32    1
    85    56    55    1
    86    56    58   ar
    87    60    58   ar
    88    48    47    2
