@<TRIPOS>MOLECULE
tmp/5dr7A00.pdb
 83 78 0 0 0
SMALL
GASTEIGER

@<TRIPOS>ATOM
      1  N         -6.3160   -9.0740    2.3310 N.3    11  ASP11      -0.1239
      2  CA        -7.5650   -9.1330    1.5880 C.3    11  ASP11       0.1674
      3  C         -7.2600   -8.9580    0.1020 C.2    11  ASP11       0.2266
      4  O         -6.0860   -8.7950   -0.2890 O.2    11  ASP11      -0.2867
      5  CB        -8.5830   -8.1100    2.1160 C.3    11  ASP11       0.1410
      6  CG        -8.1530   -6.6750    1.9650 C.2    11  ASP11       0.3668
      7  OD1       -7.3010   -6.3570    1.1140 O.co2  11  ASP11      -0.2456
      8  OD2       -8.6930   -5.8470    2.7320 O.co2  11  ASP11      -0.2456
      9  N         -7.7070   -6.6030   -1.8910 N.3    13  LEU13      -0.1245
     10  CA        -7.3260   -5.2610   -2.3300 C.3    13  LEU13       0.1561
     11  C         -5.9040   -4.8830   -1.9160 C.2    13  LEU13       0.2260
     12  O         -5.4560   -3.7730   -2.1980 O.2    13  LEU13      -0.2867
     13  CB        -8.2670   -4.2160   -1.7280 C.3    13  LEU13       0.0270
     14  CG        -9.7410   -4.2770   -2.1010 C.3    13  LEU13       0.0019
     15  CD1      -10.5190   -3.1870   -1.3490 C.3    13  LEU13       0.0001
     16  CD2       -9.9060   -4.1720   -3.6250 C.3    13  LEU13       0.0001
     17  N         -5.0700   -4.2660    1.1980 N.3    15  ASP15      -0.1239
     18  CA        -5.2490   -3.1580    2.1230 C.3    15  ASP15       0.1674
     19  C         -4.0990   -3.0450    3.1480 C.2    15  ASP15       0.2266
     20  O         -3.7710   -1.9540    3.6240 O.2    15  ASP15      -0.2867
     21  CB        -6.6010   -3.2790    2.8030 C.3    15  ASP15       0.1410
     22  CG        -7.7370   -2.7980    1.9170 C.2    15  ASP15       0.3668
     23  OD1       -7.5660   -1.7500    1.2530 O.co2  15  ASP15      -0.2456
     24  OD2       -8.8090   -3.4530    1.8810 O.co2  15  ASP15      -0.2456
     25  N         -1.7100    2.1510    3.1400 N.3   223  THR223     -0.1203
     26  CA        -2.1130    1.4380    1.9430 C.3   223  THR223      0.1994
     27  C         -1.8130    2.1860    0.6410 C.2   223  THR223      0.2617
     28  O         -1.3410    1.5960   -0.3330 O.2   223  THR223     -0.2717
     29  CB        -3.6430    1.1470    1.9820 C.3   223  THR223      0.1784
     30  OG1       -4.0220    0.6640    3.2730 O.3   223  THR223     -0.2211
     31  CG2       -4.0380    0.1500    0.9140 C.3   223  THR223      0.0376
     32  N         -2.1950    3.4590    0.6030 N.am  224  LEU224     -0.1979
     33  CA        -2.2310    4.2460   -0.6300 C.3   224  LEU224      0.1596
     34  C         -1.0290    5.1600   -0.8130 C.2   224  LEU224      0.2287
     35  O         -0.1360    5.2530    0.0370 O.2   224  LEU224     -0.2864
     36  CB        -3.5470    5.0320   -0.6970 C.3   224  LEU224      0.0297
     37  CG        -4.8310    4.2060   -0.5100 C.3   224  LEU224      0.0022
     38  CD1       -6.0670    5.0960   -0.7180 C.3   224  LEU224      0.0001
     39  CD2       -4.8610    3.0030   -1.4410 C.3   224  LEU224      0.0001
     40  N        -17.2570   10.7490   -0.3370 N.3   248  VAL248     -0.1245
     41  CA       -16.5540    9.4810   -0.2450 C.3   248  VAL248      0.1561
     42  C        -15.2100    9.6550    0.4700 C.2   248  VAL248      0.2260
     43  O        -14.7790    8.7540    1.1820 O.2   248  VAL248     -0.2867
     44  CB       -16.3970    8.8420   -1.6530 C.3   248  VAL248      0.0252
     45  CG1      -15.5670    7.5860   -1.5770 C.3   248  VAL248      0.0019
     46  CG2      -17.7770    8.5440   -2.2660 C.3   248  VAL248      0.0019
     47  N         -8.7170    0.4120   -6.1750 N.3   280  PHE280     -0.1241
     48  CA        -9.1330   -0.0940   -4.8600 C.3   280  PHE280      0.1605
     49  C        -10.6010   -0.4810   -4.8010 C.2   280  PHE280      0.2264
     50  O        -11.1330   -0.7070   -3.7290 O.2   280  PHE280     -0.2867
     51  CB        -8.6560    0.8280   -3.7310 C.3   280  PHE280      0.0534
     52  CG        -7.2280    0.5410   -3.4350 C.ar  280  PHE280     -0.0203
     53  CD1       -6.2330    0.9860   -4.3020 C.ar  280  PHE280     -0.0042
     54  CD2       -6.8630   -0.3100   -2.3860 C.ar  280  PHE280     -0.0042
     55  CE1       -4.9190    0.6380   -4.1230 C.ar  280  PHE280     -0.0003
     56  CE2       -5.5400   -0.6660   -2.2140 C.ar  280  PHE280     -0.0003
     57  CZ        -4.5850   -0.1990   -3.0860 C.ar  280  PHE280     -0.0000
     58  N        -14.8410   -1.1130   -5.7850 N.3   282  PRO282     -0.2102
     59  CA       -16.0820   -0.3690   -5.5370 C.3   282  PRO282      0.1504
     60  C        -16.0710    0.3290   -4.1810 C.2   282  PRO282      0.2575
     61  O        -15.6180   -0.2440   -3.1700 O.2   282  PRO282     -0.2718
     62  CB       -17.1500   -1.4510   -5.6190 C.3   282  PRO282      0.0282
     63  CG       -16.5700   -2.4550   -6.6040 C.3   282  PRO282      0.0208
     64  CD       -15.1050   -2.4830   -6.2610 C.3   282  PRO282      0.0893
     65  N        -16.6370    1.5290   -4.1340 N.am  283  ILE283     -0.1980
     66  CA       -16.6740    2.3080   -2.8990 C.3   283  ILE283      0.1595
     67  C        -17.5530    1.6600   -1.8610 C.2   283  ILE283      0.2287
     68  O        -17.3530    1.8840   -0.6830 O.2   283  ILE283     -0.2864
     69  CB       -17.1040    3.7790   -3.1610 C.3   283  ILE283      0.0276
     70  CG1      -18.4960    3.8780   -3.8030 C.3   283  ILE283      0.0022
     71  CG2      -16.0300    4.4830   -4.0120 C.3   283  ILE283      0.0022
     72  CD1      -19.0460    5.3030   -3.8570 C.3   283  ILE283      0.0001
     73  N        -12.7100    3.2980   -5.8870 N.3   291  PHE291     -0.1241
     74  CA       -11.8400    4.1820   -5.1070 C.3   291  PHE291      0.1605
     75  C        -10.4150    4.1980   -5.6460 C.2   291  PHE291      0.2264
     76  O         -9.8400    3.1540   -5.9060 O.2   291  PHE291     -0.2867
     77  CB       -11.8640    3.8220   -3.6250 C.3   291  PHE291      0.0534
     78  CG       -11.3460    4.9290   -2.7290 C.ar  291  PHE291     -0.0203
     79  CD1      -12.0330    6.1270   -2.6090 C.ar  291  PHE291     -0.0042
     80  CD2      -10.1500    4.7980   -2.0460 C.ar  291  PHE291     -0.0042
     81  CE1      -11.5650    7.1440   -1.7930 C.ar  291  PHE291     -0.0003
     82  CE2       -9.6870    5.8060   -1.2240 C.ar  291  PHE291     -0.0003
     83  CZ       -10.3910    6.9830   -1.1250 C.ar  291  PHE291     -0.0000
@<TRIPOS>BOND
     1    63    64    1
     2    63    62    1
     3    64    58    1
     4    47    48    1
     5    76    75    2
     6    73    74    1
     7    58    59    1
     8    75    74    1
     9    62    59    1
    10    59    60    1
    11    74    77    1
    12    48    49    1
    13    48    51    1
    14    49    50    2
    15    53    55   ar
    16    53    52   ar
    17    60    65   am
    18    60    61    2
    19    65    66    1
    20    55    57   ar
    21    71    69    1
    22    72    70    1
    23    70    69    1
    24    51    52    1
    25    16    14    1
    26    77    78    1
    27    52    54   ar
    28    69    66    1
    29    57    56   ar
    30    66    67    1
    31    78    79   ar
    32    78    80   ar
    33    79    81   ar
    34    54    56   ar
    35    10    11    1
    36    10     9    1
    37    10    13    1
    38    46    44    1
    39    12    11    2
    40    14    13    1
    41    14    15    1
    42    80    82   ar
    43    67    68    2
    44    81    83   ar
    45    44    45    1
    46    44    41    1
    47    39    37    1
    48    82    83   ar
    49    34    33    1
    50    34    35    2
    51    38    37    1
    52    36    33    1
    53    36    37    1
    54    33    32    1
    55    40    41    1
    56    28    27    2
    57     4     3    2
    58    41    42    1
    59     3     2    1
    60    42    43    2
    61    32    27   am
    62    27    26    1
    63    31    29    1
    64     7     6   ar
    65    17    18    1
    66    23    22   ar
    67     2     5    1
    68     2     1    1
    69    24    22   ar
    70    22    21    1
    71    26    29    1
    72    26    25    1
    73     6     5    1
    74     6     8   ar
    75    29    30    1
    76    18    21    1
    77    18    19    1
    78    19    20    2
