@<TRIPOS>MOLECULE
tmp/5dr8A00.pdb
 104 96 0 0 0
SMALL
GASTEIGER

@<TRIPOS>ATOM
      1  N          5.3080   -2.0120    9.8140 N.3    35  ASP35      -0.1239
      2  CA         4.9850   -0.6190    9.5240 C.3    35  ASP35       0.1674
      3  C          6.2300    0.2550    9.5720 C.2    35  ASP35       0.2266
      4  O          6.6610    0.6490   10.6430 O.2    35  ASP35      -0.2867
      5  CB         3.9520   -0.1180   10.5360 C.3    35  ASP35       0.1410
      6  CG         3.5420    1.3190   10.2900 C.2    35  ASP35       0.3668
      7  OD1        3.8460    1.8310    9.1890 O.co2  35  ASP35      -0.2456
      8  OD2        2.8820    1.9140   11.1820 O.co2  35  ASP35      -0.2456
      9  N          6.3560    3.2130    8.9720 N.3    37  GLY37      -0.1210
     10  CA         5.9190    4.5370    9.3800 C.3    37  GLY37       0.1956
     11  C          5.6440    4.7290   10.8700 C.2    37  GLY37       0.2612
     12  O          5.1460    5.7780   11.2700 O.2    37  GLY37      -0.2717
     13  N          5.9430    3.7250   11.6870 N.am   38  SER38      -0.1952
     14  CA         5.8210    3.8530   13.1360 C.3    38  SER38       0.1924
     15  C          6.8450    2.9720   13.8130 C.2    38  SER38       0.2314
     16  O          7.5690    2.2260   13.1450 O.2    38  SER38      -0.2863
     17  CB         4.3970    3.5280   13.6050 C.3    38  SER38       0.2116
     18  OG         4.1090    2.1500   13.4730 O.3    38  SER38      -0.2180
     19  N         -2.6300    6.8180   15.1330 N.3    79  TYR79      -0.1227
     20  CA        -2.1220    6.7530   13.7740 C.3    79  TYR79       0.1736
     21  C         -2.8080    7.7700   12.8670 C.2    79  TYR79       0.2596
     22  O         -3.8650    8.3130   13.1980 O.2    79  TYR79      -0.2718
     23  CB        -2.3010    5.3470   13.2260 C.3    79  TYR79       0.0548
     24  CG        -1.5100    4.2960   13.9760 C.ar   79  TYR79      -0.0200
     25  CD1       -0.1490    4.1310   13.7450 C.ar   79  TYR79      -0.0009
     26  CD2       -2.1170    3.4800   14.9160 C.ar   79  TYR79      -0.0009
     27  CE1        0.5840    3.1680   14.4190 C.ar   79  TYR79       0.0417
     28  CE2       -1.3880    2.4980   15.6050 C.ar   79  TYR79       0.0417
     29  CZ        -0.0400    2.3550   15.3530 C.ar   79  TYR79       0.1957
     30  OH         0.6850    1.3910   16.0330 O.3    79  TYR79      -0.2866
     31  N         -2.1940    8.0220   11.7170 N.am   80  GLY80      -0.1942
     32  CA        -2.6890    9.0220   10.7830 C.3    80  GLY80       0.2014
     33  C         -4.1050    8.7860   10.2990 C.2    80  GLY80       0.2638
     34  O         -4.7820    9.7310    9.8800 O.2    80  GLY80      -0.2714
     35  N         -4.5600    7.5360   10.3420 N.am   81  ASP81      -0.1971
     36  CA        -5.9150    7.2070    9.9040 C.3    81  ASP81       0.1709
     37  C         -6.9490    7.3580   11.0250 C.2    81  ASP81       0.2293
     38  O         -8.1260    7.0590   10.8280 O.2    81  ASP81      -0.2864
     39  CB        -5.9790    5.7930    9.3090 C.3    81  ASP81       0.1436
     40  CG        -5.6630    4.7050   10.3200 C.2    81  ASP81       0.3671
     41  OD1       -5.4620    5.0150   11.5150 O.co2  81  ASP81      -0.2456
     42  OD2       -5.6150    3.5240    9.9110 O.co2  81  ASP81      -0.2456
     43  N         11.0560    9.3060   10.4720 N.3   194  PHE194     -0.1241
     44  CA        10.5740    8.4810    9.3490 C.3   194  PHE194      0.1605
     45  C         11.6900    8.1760    8.3560 C.2   194  PHE194      0.2264
     46  O         12.7400    8.8090    8.3670 O.2   194  PHE194     -0.2867
     47  CB         9.4550    9.1830    8.5700 C.3   194  PHE194      0.0534
     48  CG         8.2450    9.5190    9.3910 C.ar  194  PHE194     -0.0203
     49  CD1        7.5060    8.5340   10.0250 C.ar  194  PHE194     -0.0042
     50  CD2        7.8200   10.8310    9.4850 C.ar  194  PHE194     -0.0042
     51  CE1        6.3980    8.8600   10.7650 C.ar  194  PHE194     -0.0003
     52  CE2        6.7010   11.1560   10.2210 C.ar  194  PHE194     -0.0003
     53  CZ         6.0000   10.1730   10.8660 C.ar  194  PHE194     -0.0000
     54  N          7.5030    9.9920    2.7960 N.3   217  ILE217     -0.1245
     55  CA         8.0010    8.8820    3.6070 C.3   217  ILE217      0.1561
     56  C          7.6960    7.5490    2.9500 C.2   217  ILE217      0.2260
     57  O          6.6580    7.3780    2.3170 O.2   217  ILE217     -0.2867
     58  CB         7.4760    8.9320    5.0540 C.3   217  ILE217      0.0252
     59  CG1        5.9510    8.7230    5.1300 C.3   217  ILE217      0.0019
     60  CG2        7.8910   10.2600    5.6780 C.3   217  ILE217      0.0019
     61  CD1        5.4440    8.5100    6.5520 C.3   217  ILE217      0.0001
     62  N          6.4140    4.2060    3.6050 N.3   219  ASP219     -0.1239
     63  CA         5.5270    3.7830    4.6960 C.3   219  ASP219      0.1674
     64  C          4.7620    2.5120    4.3420 C.2   219  ASP219      0.2266
     65  O          3.6980    2.5600    3.7180 O.2   219  ASP219     -0.2867
     66  CB         4.5300    4.8940    5.0300 C.3   219  ASP219      0.1410
     67  CG         3.7140    4.5990    6.2570 C.2   219  ASP219      0.3668
     68  OD1        3.8580    3.5010    6.8330 O.co2 219  ASP219     -0.2456
     69  OD2        2.8980    5.4760    6.6260 O.co2 219  ASP219     -0.2456
     70  N          3.0480    0.7300    6.2230 N.3   221  GLY221     -0.1210
     71  CA         1.8040    0.6480    6.9790 C.3   221  GLY221      0.1956
     72  C          0.6740    1.5080    6.4520 C.2   221  GLY221      0.2612
     73  O         -0.3970    1.5420    7.0540 O.2   221  GLY221     -0.2717
     74  N          0.9080    2.2120    5.3520 N.am  222  THR222     -0.1952
     75  CA        -0.1280    3.0080    4.7140 C.3   222  THR222      0.1897
     76  C         -0.4500    2.3460    3.3740 C.2   222  THR222      0.2313
     77  O          0.4500    1.9950    2.6220 O.2   222  THR222     -0.2863
     78  CB         0.3190    4.4780    4.5140 C.3   222  THR222      0.1794
     79  OG1        0.3580    5.1220    5.7930 O.3   222  THR222     -0.2208
     80  CG2       -0.6610    5.2290    3.6050 C.3   222  THR222      0.0378
     81  N         -2.8160   16.1390    5.2540 N.3   300  ILE300     -0.1245
     82  CA        -2.0610   15.1440    6.0380 C.3   300  ILE300      0.1561
     83  C         -0.8200   15.8090    6.6050 C.2   300  ILE300      0.2260
     84  O         -0.3740   15.4860    7.7090 O.2   300  ILE300     -0.2867
     85  CB        -1.5680   13.9240    5.2010 C.3   300  ILE300      0.0252
     86  CG1       -2.7430   13.1030    4.6820 C.3   300  ILE300      0.0019
     87  CG2       -0.6360   13.0120    6.0410 C.3   300  ILE300      0.0019
     88  CD1       -2.3340   11.9520    3.7960 C.3   300  ILE300      0.0001
     89  N          2.1160   15.6020    5.1100 N.3   302  ILE302     -0.1245
     90  CA         3.2770   14.8930    4.5960 C.3   302  ILE302      0.1561
     91  C          2.8600   14.0290    3.4060 C.2   302  ILE302      0.2260
     92  O          1.7490   13.5110    3.3650 O.2   302  ILE302     -0.2867
     93  CB         3.9630   14.0580    5.7290 C.3   302  ILE302      0.0252
     94  CG1        5.3930   13.6810    5.3460 C.3   302  ILE302      0.0019
     95  CG2        3.1450   12.8350    6.0870 C.3   302  ILE302      0.0019
     96  CD1        6.2800   13.3090    6.5340 C.3   302  ILE302      0.0001
     97  N          3.0890   10.5390    1.3690 N.3   304  ILE304     -0.1245
     98  CA         3.3020    9.1690    1.8500 C.3   304  ILE304      0.1561
     99  C          3.3930    8.2140    0.6810 C.2   304  ILE304      0.2260
    100  O          2.4140    8.0110   -0.0600 O.2   304  ILE304     -0.2867
    101  CB         2.1740    8.6950    2.7790 C.3   304  ILE304      0.0252
    102  CG1        1.9700    9.6520    3.9570 C.3   304  ILE304      0.0019
    103  CG2        2.4890    7.2850    3.2990 C.3   304  ILE304      0.0019
    104  CD1        0.8020    9.2910    4.8300 C.3   304  ILE304      0.0001
@<TRIPOS>BOND
     1   100    99    2
     2    99    98    1
     3    97    98    1
     4    98   101    1
     5    57    56    2
     6    77    76    2
     7   101   103    1
     8   101   102    1
     9    54    55    1
    10    56    55    1
    11    92    91    2
    12    76    75    1
    13    91    90    1
    14    80    78    1
    15    62    63    1
    16    55    58    1
    17    65    64    2
    18    88    86    1
    19   102   104    1
    20    64    63    1
    21    78    75    1
    22    78    79    1
    23    90    89    1
    24    90    93    1
    25    86    85    1
    26    63    66    1
    27    75    74    1
    28    66    67    1
    29    58    59    1
    30    58    60    1
    31    59    61    1
    32    85    82    1
    33    85    87    1
    34    81    82    1
    35    94    93    1
    36    94    96    1
    37    74    72   am
    38    93    95    1
    39    82    83    1
    40    70    71    1
    41    67    69   ar
    42    67    68   ar
    43    72    71    1
    44    72    73    2
    45    83    84    2
    46    45    46    2
    47    45    44    1
    48    47    44    1
    49    47    48    1
    50     9    10    1
    51     7     6   ar
    52    39    36    1
    53    39    40    1
    54    44    43    1
    55    10    11    1
    56    48    50   ar
    57    48    49   ar
    58    50    52   ar
    59     2     3    1
    60     2     1    1
    61     2     5    1
    62     3     4    2
    63    34    33    2
    64    36    35    1
    65    36    37    1
    66    42    40   ar
    67    49    51   ar
    68    52    53   ar
    69     6     5    1
    70     6     8   ar
    71    33    35   am
    72    33    32    1
    73    40    41   ar
    74    51    53   ar
    75    32    31    1
    76    38    37    2
    77    11    12    2
    78    11    13   am
    79    13    14    1
    80    31    21   am
    81    21    22    2
    82    21    20    1
    83    14    17    1
    84    14    15    1
    85    16    15    2
    86    23    20    1
    87    23    24    1
    88    18    17    1
    89    25    24   ar
    90    25    27   ar
    91    20    19    1
    92    24    26   ar
    93    27    29   ar
    94    26    28   ar
    95    29    28   ar
    96    29    30    1
