@<TRIPOS>MOLECULE
tmp/5dr9A01.pdb
 101 97 0 0 0
SMALL
GASTEIGER

@<TRIPOS>ATOM
      1  N         -3.9630  -11.3680    5.7950 N.3    40  LYS40      -0.1245
      2  CA        -4.9390  -10.4030    6.3880 C.3    40  LYS40       0.1561
      3  C         -5.8110   -9.7030    5.3670 C.2    40  LYS40       0.2260
      4  O         -6.9680   -9.3980    5.6630 O.2    40  LYS40      -0.2867
      5  CB        -4.2110   -9.3590    7.2460 C.3    40  LYS40       0.0271
      6  CG        -3.8990   -9.8980    8.6290 C.3    40  LYS40       0.0035
      7  CD        -3.0100   -8.9650    9.4120 C.3    40  LYS40       0.0206
      8  CE        -2.5460   -9.6370   10.7080 C.3    40  LYS40       0.1093
      9  NZ        -1.8670   -8.6700   11.6120 N.3    40  LYS40      -0.1314
     10  N         -8.7320  -12.0270    4.1060 N.3    43  LEU43      -0.1231
     11  CA        -9.6410  -12.1800    5.2280 C.3    43  LEU43       0.1693
     12  C        -10.5040  -10.9390    5.3700 C.2    43  LEU43       0.2591
     13  O        -11.7130  -11.0490    5.5500 O.2    43  LEU43      -0.2718
     14  CB        -8.8720  -12.4510    6.5210 C.3    43  LEU43       0.0284
     15  CG        -8.0250  -13.7360    6.5510 C.3    43  LEU43       0.0019
     16  CD1       -6.9320  -13.6380    7.6110 C.3    43  LEU43       0.0001
     17  CD2       -8.8690  -14.9880    6.7360 C.3    43  LEU43       0.0001
     18  N         -9.8740   -9.7690    5.2440 N.am   44  GLU44      -0.1979
     19  CA       -10.5750   -8.4760    5.2860 C.3    44  GLU44       0.1602
     20  C        -11.5310   -8.3090    4.0850 C.2    44  GLU44       0.2287
     21  O        -12.7090   -7.9960    4.2690 O.2    44  GLU44      -0.2864
     22  CB        -9.5660   -7.3210    5.3520 C.3    44  GLU44       0.0415
     23  CG       -10.1750   -5.9680    5.7120 C.3    44  GLU44       0.1163
     24  CD        -9.1560   -4.9720    6.2480 C.2    44  GLU44       0.3649
     25  OE1       -8.1400   -4.7300    5.5850 O.co2  44  GLU44      -0.2457
     26  OE2       -9.3630   -4.4170    7.3410 O.co2  44  GLU44      -0.2457
     27  N        -12.7980  -12.2820    9.2530 N.3    49  GLU49      -0.1245
     28  CA       -11.9640  -12.1570   10.4820 C.3    49  GLU49       0.1567
     29  C        -12.7480  -12.5210   11.7580 C.2    49  GLU49       0.2260
     30  O        -12.1950  -12.9500   12.7580 O.2    49  GLU49      -0.2867
     31  CB       -11.3840  -10.7290   10.5940 C.3    49  GLU49       0.0388
     32  CG       -10.4510  -10.4820   11.7870 C.3    49  GLU49       0.1160
     33  CD       -10.0060   -9.0470   11.9430 C.2    49  GLU49       0.3649
     34  OE1      -10.1140   -8.2560   10.9630 O.co2  49  GLU49      -0.2457
     35  OE2       -9.5220   -8.7370   13.0620 O.co2  49  GLU49      -0.2457
     36  N        -13.2760  -16.4910   11.6800 N.3    52  LEU52      -0.1231
     37  CA       -11.9790  -17.0880   11.9320 C.3    52  LEU52       0.1693
     38  C        -11.6930  -17.0620   13.4130 C.2    52  LEU52       0.2591
     39  O        -11.2700  -18.0680   13.9750 O.2    52  LEU52      -0.2718
     40  CB       -10.8910  -16.3260   11.2030 C.3    52  LEU52       0.0284
     41  CG        -9.5260  -16.9780   11.3030 C.3    52  LEU52       0.0019
     42  CD1       -9.5540  -18.3590   10.6750 C.3    52  LEU52       0.0001
     43  CD2       -8.4890  -16.0780   10.6460 C.3    52  LEU52       0.0001
     44  N        -11.9490  -15.9150   14.0410 N.am   53  ARG53      -0.1980
     45  CA       -11.7490  -15.7700   15.4810 C.3    53  ARG53       0.1597
     46  C        -12.6960  -16.7140   16.2220 C.2    53  ARG53       0.2287
     47  O        -12.3560  -17.2280   17.2830 O.2    53  ARG53      -0.2864
     48  CB       -11.9310  -14.3150   15.9160 C.3    53  ARG53       0.0334
     49  CG       -10.9100  -13.3580   15.2980 C.3    53  ARG53       0.0492
     50  CD       -10.9720  -11.9920   15.9520 C.3    53  ARG53       0.2205
     51  NE        -9.7490  -11.7180   16.6920 N.pl3  53  ARG53      -0.0865
     52  CZ        -8.7900  -10.8710   16.3250 C.cat  53  ARG53       0.5346
     53  NH1       -7.7300  -10.7230   17.1100 N.pl3  53  ARG53       0.1354
     54  NH2       -8.8610  -10.1700   15.1900 N.pl3  53  ARG53       0.1354
     55  N        -11.2790  -20.5270   15.5980 N.3    56  VAL56      -0.1245
     56  CA       -10.0740  -20.6300   16.4430 C.3    56  VAL56       0.1561
     57  C        -10.4120  -20.7960   17.9200 C.2    56  VAL56       0.2260
     58  O         -9.8090  -21.6330   18.6070 O.2    56  VAL56      -0.2867
     59  CB        -9.1050  -19.4300   16.1790 C.3    56  VAL56       0.0252
     60  CG1       -8.1170  -19.1920   17.3120 C.3    56  VAL56       0.0019
     61  CG2       -8.3350  -19.6420   14.8710 C.3    56  VAL56       0.0019
     62  N         -1.8660  -19.7450   17.8500 N.3    73  TYR73      -0.1227
     63  CA        -1.9260  -18.8040   16.7180 C.3    73  TYR73       0.1736
     64  C         -1.0590  -17.5770   17.0050 C.2    73  TYR73       0.2595
     65  O         -0.5000  -17.4530   18.0800 O.2    73  TYR73      -0.2718
     66  CB        -3.3740  -18.3530   16.4220 C.3    73  TYR73       0.0548
     67  CG        -4.0930  -17.7610   17.6310 C.ar   73  TYR73      -0.0200
     68  CD1       -4.0060  -16.3890   17.9290 C.ar   73  TYR73      -0.0009
     69  CD2       -4.8250  -18.5830   18.4990 C.ar   73  TYR73      -0.0009
     70  CE1       -4.6350  -15.8530   19.0430 C.ar   73  TYR73       0.0417
     71  CE2       -5.4560  -18.0630   19.6120 C.ar   73  TYR73       0.0417
     72  CZ        -5.3590  -16.7020   19.8850 C.ar   73  TYR73       0.1957
     73  OH        -6.0080  -16.2090   20.9960 O.3    73  TYR73      -0.2866
     74  N         -0.9090  -16.7410   15.9810 N.am   74  PHE74      -0.1962
     75  CA        -0.1740  -15.4750   16.0030 C.3    74  PHE74       0.1771
     76  C         -0.4440  -14.7310   14.7050 C.2    74  PHE74       0.2619
     77  O         -1.1530  -15.2450   13.8290 O.2    74  PHE74      -0.2715
     78  CB         1.3490  -15.6030   16.3210 C.3    74  PHE74       0.0574
     79  CG         2.1370  -16.4900   15.3920 C.ar   74  PHE74      -0.0200
     80  CD1        2.0330  -17.8780   15.4610 C.ar   74  PHE74      -0.0042
     81  CD2        3.0560  -15.9390   14.5010 C.ar   74  PHE74      -0.0042
     82  CE1        2.7550  -18.6760   14.6060 C.ar   74  PHE74      -0.0003
     83  CE2        3.8050  -16.7480   13.6630 C.ar   74  PHE74      -0.0003
     84  CZ         3.6490  -18.1130   13.7230 C.ar   74  PHE74      -0.0000
     85  N          0.0490  -13.4970   14.6220 N.am   75  HIS75      -0.1973
     86  CA        -0.1140  -12.7170   13.4230 C.3    75  HIS75       0.1656
     87  C          0.9680  -11.6990   13.2610 C.2    75  HIS75       0.2291
     88  O          1.5930  -11.2910   14.2160 O.2    75  HIS75      -0.2864
     89  CB        -1.5000  -12.0950   13.3240 C.3    75  HIS75       0.0771
     90  CG        -1.8240  -11.1500   14.4280 C.ar   75  HIS75       0.0820
     91  ND1       -2.3360   -9.8970   14.1910 N.ar   75  HIS75      -0.2267
     92  CD2       -1.7480  -11.2810   15.7740 C.ar   75  HIS75       0.1154
     93  CE1       -2.5480   -9.2870   15.3400 C.ar   75  HIS75       0.1986
     94  NE2       -2.1930  -10.1030   16.3170 N.ar   75  HIS75      -0.2212
     95  N         -1.8360  -13.9290    9.3320 N.3    80  VAL80      -0.1245
     96  CA        -2.2840  -14.6900   10.4920 C.3    80  VAL80       0.1561
     97  C         -1.7910  -16.1380   10.2800 C.2    80  VAL80       0.2260
     98  O         -1.9450  -16.7180    9.1780 O.2    80  VAL80      -0.2867
     99  CB        -3.8340  -14.6520   10.6100 C.3    80  VAL80       0.0252
    100  CG1       -4.3540  -15.5840   11.7340 C.3    80  VAL80       0.0019
    101  CG2       -4.3330  -13.2020   10.8000 C.3    80  VAL80       0.0019
@<TRIPOS>BOND
     1    20    21    2
     2    20    19    1
     3    10    11    1
     4    11    12    1
     5    11    14    1
     6    18    19    1
     7    18    12   am
     8    19    22    1
     9    22    23    1
    10     3     4    2
    11     3     2    1
    12    12    13    2
    13    25    24   ar
    14    23    24    1
    15     1     2    1
    16    24    26   ar
    17     2     5    1
    18    14    15    1
    19    15    17    1
    20    15    16    1
    21     5     6    1
    22     6     7    1
    23    98    97    2
    24    27    28    1
    25    95    96    1
    26     7     8    1
    27    97    96    1
    28    28    31    1
    29    28    29    1
    30    96    99    1
    31    31    32    1
    32    99   101    1
    33    99   100    1
    34    43    41    1
    35    42    41    1
    36     8     9    1
    37    34    33   ar
    38    40    41    1
    39    40    37    1
    40    36    37    1
    41    29    30    2
    42    32    33    1
    43    37    38    1
    44    33    35   ar
    45    87    86    1
    46    87    88    2
    47    89    86    1
    48    89    90    1
    49    38    39    2
    50    38    44   am
    51    86    85    1
    52    83    84   ar
    53    83    81   ar
    54    84    82   ar
    55    77    76    2
    56    44    45    1
    57    91    90   ar
    58    91    93   ar
    59    90    92   ar
    60    81    79   ar
    61    82    80   ar
    62    85    76   am
    63    76    75    1
    64    61    59    1
    65    54    52    1
    66    49    48    1
    67    49    50    1
    68    93    94   ar
    69    79    80   ar
    70    79    78    1
    71    45    48    1
    72    45    46    1
    73    55    56    1
    74    92    94   ar
    75    50    51    1
    76    74    75    1
    77    74    64   am
    78    75    78    1
    79    59    56    1
    80    59    60    1
    81    46    47    2
    82    52    51    2
    83    52    53    1
    84    66    63    1
    85    66    67    1
    86    56    57    1
    87    63    64    1
    88    63    62    1
    89    64    65    2
    90    67    68   ar
    91    67    69   ar
    92    57    58    2
    93    68    70   ar
    94    69    71   ar
    95    70    72   ar
    96    71    72   ar
    97    72    73    1
