@<TRIPOS>MOLECULE
tmp/5drbA00.pdb
 216 201 0 0 0
SMALL
GASTEIGER

@<TRIPOS>ATOM
      1  N         14.6180   -1.2700   27.4160 N.3    19  ILE19      -0.1231
      2  CA        15.0660   -0.8740   26.0830 C.3    19  ILE19       0.1692
      3  C         15.2940    0.6330   26.0190 C.2    19  ILE19       0.2593
      4  O         16.2050    1.1160   25.3320 O.2    19  ILE19      -0.2718
      5  CB        14.0400   -1.3200   25.0250 C.3    19  ILE19       0.0266
      6  CG1       14.1730   -2.8240   24.7950 C.3    19  ILE19       0.0019
      7  CG2       14.2120   -0.5610   23.7020 C.3    19  ILE19       0.0020
      8  CD1       12.8790   -3.4870   24.4740 C.3    19  ILE19       0.0001
      9  N         14.4740    1.3720   26.7580 N.am   20  GLY20      -0.1942
     10  CA        14.5740    2.8190   26.7920 C.3    20  GLY20       0.2014
     11  C         13.3150    3.4140   27.3740 C.2    20  GLY20       0.2638
     12  O         12.3490    2.6890   27.6350 O.2    20  GLY20      -0.2714
     13  N         13.3190    4.7280   27.5860 N.am   21  ARG21      -0.1977
     14  CA        12.1650    5.4250   28.1440 C.3    21  ARG21       0.1597
     15  C         12.0660    6.7860   27.4720 C.2    21  ARG21       0.2287
     16  O         13.0120    7.2190   26.8110 O.2    21  ARG21      -0.2864
     17  CB        12.2860    5.5580   29.6750 C.3    21  ARG21       0.0334
     18  CG        12.3980    6.9900   30.2220 C.3    21  ARG21       0.0492
     19  CD        12.2620    7.0210   31.7420 C.3    21  ARG21       0.2205
     20  NE        11.0880    7.7720   32.1890 N.pl3  21  ARG21      -0.0865
     21  CZ        11.1330    8.9900   32.7240 C.cat  21  ARG21       0.5346
     22  NH1       12.2970    9.6060   32.8890 N.pl3  21  ARG21       0.1354
     23  NH2       10.0110    9.5900   33.1030 N.pl3  21  ARG21       0.1354
     24  N          6.6030    7.0050   28.9740 N.3    25  LYS25      -0.1245
     25  CA         6.7280    5.6400   28.4890 C.3    25  LYS25       0.1561
     26  C          8.0020    4.9580   28.9380 C.2    25  LYS25       0.2260
     27  O          9.0630    5.5810   28.9840 O.2    25  LYS25      -0.2867
     28  CB         6.6950    5.6370   26.9640 C.3    25  LYS25       0.0271
     29  CG         5.3820    5.1830   26.3940 C.3    25  LYS25       0.0035
     30  CD         5.3120    5.3940   24.8860 C.3    25  LYS25       0.0206
     31  CE         5.1470    6.8650   24.5310 C.3    25  LYS25       0.1093
     32  NZ         5.3460    7.0990   23.0720 N.3    25  LYS25      -0.1314
     33  N          9.9270    1.1300   28.0030 N.3    27  VAL27      -0.1245
     34  CA         9.8260    0.0030   27.0870 C.3    27  VAL27       0.1561
     35  C         10.7590   -1.1230   27.5100 C.2    27  VAL27       0.2260
     36  O         11.9480   -0.8980   27.7570 O.2    27  VAL27      -0.2867
     37  CB        10.1480    0.4420   25.6400 C.3    27  VAL27       0.0252
     38  CG1        9.8960   -0.7010   24.6610 C.3    27  VAL27       0.0019
     39  CG2        9.3100    1.6420   25.2720 C.3    27  VAL27       0.0019
     40  N          8.3230   -5.9040   21.9700 N.3    40  ALA40      -0.1245
     41  CA         8.5010   -4.7540   22.8520 C.3    40  ALA40       0.1562
     42  C          7.3020   -4.6180   23.7870 C.2    40  ALA40       0.2260
     43  O          6.1530   -4.6370   23.3430 O.2    40  ALA40      -0.2867
     44  CB         8.6860   -3.4760   22.0330 C.3    40  ALA40       0.0290
     45  N          5.6250   -2.0960   26.1090 N.3    42  CYS42      -0.1235
     46  CA         5.6580   -0.6670   26.3990 C.3    42  CYS42       0.1677
     47  C          4.6310   -0.2990   27.4510 C.2    42  CYS42       0.2270
     48  O          3.4380   -0.5320   27.2790 O.2    42  CYS42      -0.2867
     49  CB         5.3830    0.1330   25.1270 C.3    42  CYS42       0.0956
     50  SG         5.8850   -0.7250   23.6640 S.3    42  CYS42      -0.0801
     51  N        -10.7460    4.2650   22.9210 N.3    57  PHE57      -0.1241
     52  CA        -9.3910    3.7400   22.7960 C.3    57  PHE57       0.1605
     53  C         -9.3630    2.2260   22.5930 C.2    57  PHE57       0.2264
     54  O         -8.5580    1.7200   21.8130 O.2    57  PHE57      -0.2867
     55  CB        -8.5250    4.1380   23.9900 C.3    57  PHE57       0.0534
     56  CG        -7.0640    3.8340   23.8020 C.ar   57  PHE57      -0.0203
     57  CD1       -6.2940    4.5890   22.9340 C.ar   57  PHE57      -0.0042
     58  CD2       -6.4620    2.7910   24.4870 C.ar   57  PHE57      -0.0042
     59  CE1       -4.9450    4.3110   22.7540 C.ar   57  PHE57      -0.0003
     60  CE2       -5.1110    2.5060   24.3180 C.ar   57  PHE57      -0.0003
     61  CZ        -4.3530    3.2660   23.4490 C.ar   57  PHE57      -0.0000
     62  N        -10.2430    1.7210   19.1030 N.3    60  GLU60      -0.1231
     63  CA        -9.1320    2.0750   18.2200 C.3    60  GLU60       0.1699
     64  C         -8.0480    0.9990   18.2370 C.2    60  GLU60       0.2592
     65  O         -7.4900    0.6440   17.2000 O.2    60  GLU60      -0.2718
     66  CB        -8.5470    3.4330   18.6110 C.3    60  GLU60       0.0402
     67  CG        -7.5460    3.9960   17.6060 C.3    60  GLU60       0.1161
     68  CD        -7.1820    5.4210   17.9280 C.2    60  GLU60       0.3649
     69  OE1       -6.6420    6.1300   17.0540 O.co2  60  GLU60      -0.2457
     70  OE2       -7.4490    5.8320   19.0770 O.co2  60  GLU60      -0.2457
     71  N         -7.7570    0.4720   19.4210 N.am   61  ALA61      -0.1980
     72  CA        -6.7880   -0.6070   19.5470 C.3    61  ALA61       0.1597
     73  C         -7.2310   -1.8310   18.7580 C.2    61  ALA61       0.2287
     74  O         -6.4210   -2.5010   18.1120 O.2    61  ALA61      -0.2864
     75  CB        -6.5840   -0.9590   21.0140 C.3    61  ALA61       0.0319
     76  N         -6.5970   -1.1470   15.1290 N.3    64  LEU64      -0.1245
     77  CA        -5.1830   -1.0670   14.7750 C.3    64  LEU64       0.1561
     78  C         -4.4350   -2.3940   14.8780 C.2    64  LEU64       0.2260
     79  O         -3.4280   -2.5880   14.1940 O.2    64  LEU64      -0.2867
     80  CB        -4.4780    0.0230   15.6060 C.3    64  LEU64       0.0270
     81  CG        -4.9220    1.4700   15.3370 C.3    64  LEU64       0.0019
     82  CD1       -4.2400    2.4850   16.2460 C.3    64  LEU64       0.0001
     83  CD2       -4.7030    1.8460   13.8890 C.3    64  LEU64       0.0001
     84  N          4.8240   -0.1250   12.3550 N.3    73  VAL73      -0.1245
     85  CA         5.2000   -0.9540   13.5150 C.3    73  VAL73       0.1561
     86  C          4.0320   -1.8660   13.8500 C.2    73  VAL73       0.2260
     87  O          2.8950   -1.4080   14.0130 O.2    73  VAL73      -0.2867
     88  CB         5.5660   -0.0970   14.7350 C.3    73  VAL73       0.0252
     89  CG1        5.6650   -0.9670   16.0070 C.3    73  VAL73       0.0019
     90  CG2        6.9040    0.6220   14.5250 C.3    73  VAL73       0.0019
     91  N          1.4530   -3.8590   15.8130 N.3    75  PHE75      -0.1241
     92  CA         0.8470   -3.7550   17.1400 C.3    75  PHE75       0.1605
     93  C          0.0560   -5.0240   17.4530 C.2    75  PHE75       0.2264
     94  O         -0.7840   -5.4560   16.6640 O.2    75  PHE75      -0.2867
     95  CB        -0.0600   -2.5210   17.1830 C.3    75  PHE75       0.0534
     96  CG        -0.9480   -2.4540   18.3890 C.ar   75  PHE75      -0.0203
     97  CD1       -0.4050   -2.2470   19.6530 C.ar   75  PHE75      -0.0042
     98  CD2       -2.3270   -2.5940   18.2620 C.ar   75  PHE75      -0.0042
     99  CE1       -1.2260   -2.1750   20.7820 C.ar   75  PHE75      -0.0003
    100  CE2       -3.1600   -2.5280   19.3980 C.ar   75  PHE75      -0.0003
    101  CZ        -2.6000   -2.3230   20.6550 C.ar   75  PHE75      -0.0000
    102  N         -3.1290   -4.7100   23.8180 N.3    78  SER78      -0.1217
    103  CA        -3.0410   -3.7070   24.8710 C.3    78  SER78       0.1889
    104  C         -3.9870   -4.0840   26.0070 C.2    78  SER78       0.2288
    105  O         -5.0160   -4.7180   25.7770 O.2    78  SER78      -0.2866
    106  CB        -3.3970   -2.3260   24.3150 C.3    78  SER78       0.2089
    107  OG        -3.1800   -1.3120   25.2780 O.3    78  SER78      -0.2183
    108  N          1.3550   -1.8060   26.0900 N.3    91  LEU91      -0.1245
    109  CA         1.2010   -1.9350   24.6420 C.3    91  LEU91       0.1561
    110  C          2.2890   -2.8700   24.1360 C.2    91  LEU91       0.2260
    111  O          3.4810   -2.6180   24.3390 O.2    91  LEU91      -0.2867
    112  CB         1.3120   -0.5690   23.9500 C.3    91  LEU91       0.0270
    113  CG         0.4540    0.5810   24.4670 C.3    91  LEU91       0.0019
    114  CD1        1.1160    1.8930   24.1100 C.3    91  LEU91       0.0001
    115  CD2       -0.9340    0.5480   23.8720 C.3    91  LEU91       0.0001
    116  N          4.1990   -4.4680   20.9460 N.3    93  THR93      -0.1203
    117  CA         4.4980   -4.2520   19.5300 C.3    93  THR93       0.1994
    118  C          5.6910   -5.1080   19.1110 C.2    93  THR93       0.2618
    119  O          6.3190   -5.7620   19.9420 O.2    93  THR93      -0.2717
    120  CB         4.8590   -2.7820   19.2340 C.3    93  THR93       0.1784
    121  OG1        6.1620   -2.4960   19.7510 O.3    93  THR93      -0.2211
    122  CG2        3.8570   -1.8270   19.8270 C.3    93  THR93       0.0376
    123  N          6.0290   -5.0990   17.8290 N.am   94  GLU94      -0.1965
    124  CA         7.2550   -5.7610   17.4120 C.3    94  GLU94       0.1733
    125  C          8.4290   -5.0000   18.0210 C.2    94  GLU94       0.2616
    126  O          8.3030   -3.8130   18.3500 O.2    94  GLU94      -0.2715
    127  CB         7.3760   -5.8200   15.8930 C.3    94  GLU94       0.0429
    128  CG         7.5260   -4.4810   15.2210 C.3    94  GLU94       0.1163
    129  CD         7.6060   -4.6080   13.7140 C.2    94  GLU94       0.3649
    130  OE1        6.6110   -4.2930   13.0220 O.co2  94  GLU94      -0.2457
    131  OE2        8.6600   -5.0470   13.2170 O.co2  94  GLU94      -0.2457
    132  N          9.5560   -5.6860   18.2060 N.am   95  LEU95      -0.1963
    133  CA        10.7310   -5.0890   18.8310 C.3    95  LEU95       0.1728
    134  C         11.6630   -4.4850   17.7710 C.2    95  LEU95       0.2616
    135  O         12.0160   -5.1590   16.8040 O.2    95  LEU95      -0.2715
    136  CB        11.4930   -6.1540   19.6220 C.3    95  LEU95       0.0311
    137  CG        12.8020   -5.7350   20.2960 C.3    95  LEU95       0.0022
    138  CD1       12.5520   -4.6220   21.2770 C.3    95  LEU95       0.0001
    139  CD2       13.4730   -6.9190   20.9900 C.3    95  LEU95       0.0001
    140  N         12.0410   -3.2230   17.9640 N.am   96  MET96      -0.1977
    141  CA        12.9400   -2.5260   17.0400 C.3    96  MET96       0.1605
    142  C         14.1670   -2.0440   17.8040 C.2    96  MET96       0.2287
    143  O         14.2360   -0.8720   18.1890 O.2    96  MET96      -0.2864
    144  CB        12.2760   -1.2830   16.4360 C.3    96  MET96       0.0413
    145  CG        10.8010   -1.3670   16.1530 C.3    96  MET96       0.0598
    146  SD        10.4170   -2.0850   14.5610 S.3    96  MET96      -0.1393
    147  CE        11.4030   -1.1170   13.4020 C.3    96  MET96       0.0692
    148  N         16.3670    1.3250   17.1030 N.3    99  GLY99      -0.1210
    149  CA        15.9130    2.6480   17.5080 C.3    99  GLY99       0.1956
    150  C         15.2530    3.4700   16.3970 C.2    99  GLY99       0.2612
    151  O         14.7960    2.9150   15.4070 O.2    99  GLY99      -0.2717
    152  N         15.2270    4.7910   16.5800 N.am  100  THR100     -0.1952
    153  CA        14.4870    5.7250   15.7280 C.3   100  THR100      0.1897
    154  C         15.3510    6.5710   14.7980 C.2   100  THR100      0.2313
    155  O         16.5790    6.5520   14.8840 O.2   100  THR100     -0.2863
    156  CB        13.7200    6.7340   16.5840 C.3   100  THR100      0.1794
    157  OG1       14.6590    7.5330   17.3160 O.3   100  THR100     -0.2208
    158  CG2       12.7880    6.0350   17.5650 C.3   100  THR100      0.0378
    159  N         17.4690    8.9570   16.7840 N.3   103  THR103     -0.1218
    160  CA        18.7080    8.3530   17.2690 C.3   103  THR103      0.1862
    161  C         19.7320    8.1910   16.1440 C.2   103  THR103      0.2287
    162  O         20.9450    8.3840   16.3390 O.2   103  THR103     -0.2866
    163  CB        18.4260    7.0090   17.9480 C.3   103  THR103      0.1770
    164  OG1       17.6840    7.2420   19.1530 O.3   103  THR103     -0.2211
    165  CG2       19.7290    6.2790   18.2710 C.3   103  THR103      0.0375
    166  N         11.1880   10.9390   16.1810 N.3   145  ASP145     -0.1239
    167  CA        11.3600   10.0930   17.3560 C.3   145  ASP145      0.1674
    168  C         10.2730    9.0320   17.5370 C.2   145  ASP145      0.2266
    169  O         10.2450    8.3290   18.5460 O.2   145  ASP145     -0.2867
    170  CB        11.6110   10.9190   18.6300 C.3   145  ASP145      0.1410
    171  CG        10.3560   11.5480   19.1950 C.2   145  ASP145      0.3668
    172  OD1        9.2890   11.5130   18.5510 O.co2 145  ASP145     -0.2456
    173  OD2       10.4330   12.0960   20.3130 O.co2 145  ASP145     -0.2456
    174  N         10.8120    4.2720   13.3310 N.3   148  PHE148     -0.1241
    175  CA        11.8480    3.3090   13.7290 C.3   148  PHE148      0.1605
    176  C         12.5460    2.6490   12.5420 C.2   148  PHE148      0.2264
    177  O         11.9580    2.5210   11.4850 O.2   148  PHE148     -0.2867
    178  CB        11.2210    2.2300   14.6220 C.3   148  PHE148      0.0534
    179  CG        10.8410    2.7350   15.9810 C.ar  148  PHE148     -0.0203
    180  CD1        9.6560    3.4320   16.1770 C.ar  148  PHE148     -0.0042
    181  CD2       11.6920    2.5400   17.0700 C.ar  148  PHE148     -0.0042
    182  CE1        9.3180    3.9240   17.4250 C.ar  148  PHE148     -0.0003
    183  CE2       11.3540    3.0250   18.3190 C.ar  148  PHE148     -0.0003
    184  CZ        10.1670    3.7200   18.5030 C.ar  148  PHE148     -0.0000
    185  N          5.9180    4.2900   13.9740 N.3   159  GLY159     -0.1210
    186  CA         5.5050    3.8540   15.3100 C.3   159  GLY159      0.1956
    187  C          4.4660    4.7720   15.9350 C.2   159  GLY159      0.2612
    188  O          4.1280    5.8330   15.4040 O.2   159  GLY159     -0.2717
    189  N          3.9720    4.3650   17.1070 N.am  160  ASP160     -0.1959
    190  CA         3.0850    5.1820   17.9260 C.3   160  ASP160      0.1840
    191  C          1.6930    5.4810   17.3620 C.2   160  ASP160      0.2622
    192  O          1.0220    6.3890   17.8340 O.2   160  ASP160     -0.2715
    193  CB         3.7760    6.4750   18.3680 C.3   160  ASP160      0.1450
    194  CG         4.8060    6.2520   19.4810 C.2   160  ASP160      0.3671
    195  OD1        5.1840    5.0940   19.7490 O.co2 160  ASP160     -0.2456
    196  OD2        5.2530    7.2490   20.0750 O.co2 160  ASP160     -0.2456
    197  N          1.2530    4.7190   16.3670 N.am  161  LEU161     -0.1963
    198  CA        -0.0970    4.8740   15.8490 C.3   161  LEU161      0.1728
    199  C         -1.1490    4.7470   16.9660 C.2   161  LEU161      0.2617
    200  O         -1.0210    3.9000   17.8630 O.2   161  LEU161     -0.2715
    201  CB        -0.3360    3.8340   14.7490 C.3   161  LEU161      0.0311
    202  CG        -1.4540    4.0500   13.7420 C.3   161  LEU161      0.0022
    203  CD1       -1.3140    5.4080   13.0570 C.3   161  LEU161      0.0001
    204  CD2       -1.3670    2.9390   12.7230 C.3   161  LEU161      0.0001
    205  N         -2.1480    5.6300   16.9450 N.am  162  GLY162     -0.1940
    206  CA        -3.2680    5.5340   17.8700 C.3   162  GLY162      0.2014
    207  C         -3.0400    6.2210   19.1930 C.2   162  GLY162      0.2638
    208  O         -3.9830    6.4180   19.9640 O.2   162  GLY162     -0.2714
    209  N         -1.8020    6.6020   19.4720 N.am  163  LEU163     -0.1977
    210  CA        -1.5390    7.2120   20.7730 C.3   163  LEU163      0.1596
    211  C         -1.8750    8.7090   20.8070 C.2   163  LEU163      0.2287
    212  O         -2.0520    9.2830   21.8800 O.2   163  LEU163     -0.2864
    213  CB        -0.1030    6.9490   21.1990 C.3   163  LEU163      0.0297
    214  CG         0.3100    5.4740   21.2290 C.3   163  LEU163      0.0022
    215  CD1        1.7370    5.3340   21.7230 C.3   163  LEU163      0.0001
    216  CD2       -0.6320    4.6560   22.0900 C.3   163  LEU163      0.0001
@<TRIPOS>BOND
     1   177   176    2
     2    84    85    1
     3   176   175    1
     4   204   202    1
     5   130   129   ar
     6   203   202    1
     7   131   129   ar
     8   174   175    1
     9   147   146    1
    10    85    86    1
    11    85    88    1
    12   129   128    1
    13   175   178    1
    14   202   201    1
    15    86    87    2
    16    83    81    1
    17   185   186    1
    18    79    78    2
    19    90    88    1
    20   146   145    1
    21   178   179    1
    22    88    89    1
    23   201   198    1
    24    77    78    1
    25    77    76    1
    26    77    80    1
    27   154   155    2
    28   154   153    1
    29   128   127    1
    30   186   187    1
    31    81    80    1
    32    81    82    1
    33   188   187    2
    34   151   150    2
    35   153   152    1
    36   153   156    1
    37    91    92    1
    38   198   197    1
    39   198   199    1
    40   127   124    1
    41   187   189   am
    42   179   180   ar
    43   179   181   ar
    44   161   162    2
    45   161   160    1
    46   145   144    1
    47   180   182   ar
    48   166   167    1
    49   197   191   am
    50   150   152   am
    51   150   149    1
    52   144   141    1
    53   156   157    1
    54   156   158    1
    55    94    93    2
    56   159   160    1
    57   135   134    2
    58   205   199   am
    59   205   206    1
    60   199   200    2
    61   141   142    1
    62   141   140    1
    63    69    68   ar
    64   181   183   ar
    65   148   149    1
    66   189   190    1
    67    92    95    1
    68    92    93    1
    69    95    96    1
    70    65    64    2
    71   160   163    1
    72   167   168    1
    73   167   170    1
    74   191   192    2
    75   191   190    1
    76   124   123    1
    77   124   125    1
    78   182   184   ar
    79   168   169    2
    80    67    68    1
    81    67    66    1
    82   134   140   am
    83   134   133    1
    84   142   143    2
    85   123   118   am
    86   206   207    1
    87   190   193    1
    88    68    70   ar
    89   163   165    1
    90   163   164    1
    91   125   132   am
    92   125   126    2
    93    74    73    2
    94   132   133    1
    95    63    64    1
    96    63    66    1
    97    63    62    1
    98    64    71   am
    99    98    96   ar
   100    98   100   ar
   101   183   184   ar
   102   193   194    1
   103    96    97   ar
   104   172   171   ar
   105   170   171    1
   106    73    72    1
   107   133   136    1
   108   118   117    1
   109   118   119    2
   110   207   209   am
   111   207   208    2
   112   171   173   ar
   113   120   117    1
   114   120   121    1
   115   120   122    1
   116   100   101   ar
   117    71    72    1
   118   209   210    1
   119   194   195   ar
   120   194   196   ar
   121   117   116    1
   122    72    75    1
   123   136   137    1
   124    97    99   ar
   125   137   139    1
   126   137   138    1
   127   101    99   ar
   128   210   211    1
   129   210   213    1
   130   211   212    2
   131   213   214    1
   132   214   215    1
   133   214   216    1
   134    54    53    2
   135    40    41    1
   136    44    41    1
   137    53    52    1
   138    59    57   ar
   139    59    61   ar
   140    52    51    1
   141    52    55    1
   142    41    42    1
   143    57    56   ar
   144    32    31    1
   145    43    42    2
   146    61    60   ar
   147    50    49    1
   148     7     5    1
   149    56    55    1
   150    56    58   ar
   151   102   103    1
   152   115   113    1
   153   112   113    1
   154   112   109    1
   155   114   113    1
   156   110   111    2
   157   110   109    1
   158   106   103    1
   159   106   107    1
   160    60    58   ar
   161     8     6    1
   162    31    30    1
   163   109   108    1
   164    38    37    1
   165     6     5    1
   166   103   104    1
   167    30    29    1
   168     5     2    1
   169    49    46    1
   170    39    37    1
   171     4     3    2
   172    37    34    1
   173   105   104    2
   174     3     2    1
   175     3     9   am
   176     2     1    1
   177    45    46    1
   178    29    28    1
   179    46    47    1
   180     9    10    1
   181    10    11    1
   182    16    15    2
   183    28    25    1
   184    34    35    1
   185    34    33    1
   186    48    47    2
   187    11    13   am
   188    11    12    2
   189    15    14    1
   190    35    36    2
   191    13    14    1
   192    14    17    1
   193    25    26    1
   194    25    24    1
   195    26    27    2
   196    17    18    1
   197    18    19    1
   198    19    20    1
   199    20    21    2
   200    21    22    1
   201    21    23    1
