@<TRIPOS>MOLECULE
tmp/5drcA00.pdb
 178 170 0 0 0
SMALL
GASTEIGER

@<TRIPOS>ATOM
      1  N         26.9840   80.5590   60.9800 N.3   117  VAL117     -0.1231
      2  CA        27.9780   80.3950   59.9120 C.3   117  VAL117      0.1692
      3  C         27.7060   79.0740   59.2040 C.2   117  VAL117      0.2592
      4  O         27.5150   78.0530   59.8640 O.2   117  VAL117     -0.2718
      5  CB        29.4260   80.3810   60.4500 C.3   117  VAL117      0.0266
      6  CG1       30.4270   80.4390   59.3020 C.3   117  VAL117      0.0020
      7  CG2       29.6500   81.5280   61.3950 C.3   117  VAL117      0.0020
      8  N         27.6920   79.0790   57.8720 N.am  118  VAL118     -0.1966
      9  CA        27.3040   77.8800   57.1270 C.3   118  VAL118      0.1712
     10  C         28.0560   77.7560   55.7850 C.2   118  VAL118      0.2458
     11  O         28.2970   78.7640   55.1150 O.2   118  VAL118     -0.2730
     12  CB        25.7780   77.8850   56.8970 C.3   118  VAL118      0.0289
     13  CG1       25.3840   79.0370   56.0000 C.3   118  VAL118      0.0023
     14  CG2       25.3050   76.5840   56.3040 C.3   118  VAL118      0.0023
     15  N         28.4490   76.5200   55.4010 N.am  119  PRO119     -0.2727
     16  CA        29.1060   76.2900   54.1070 C.3   119  PRO119      0.1402
     17  C         28.2420   76.6760   52.9150 C.2   119  PRO119      0.2269
     18  O         27.1160   76.1890   52.7690 O.2   119  PRO119     -0.2865
     19  CB        29.3690   74.7690   54.0990 C.3   119  PRO119      0.0296
     20  CG        28.5520   74.2130   55.1900 C.3   119  PRO119      0.0237
     21  CD        28.4620   75.3000   56.2220 C.3   119  PRO119      0.0939
     22  N         35.1880   79.9150   52.9430 N.3   272  GLU272     -0.1231
     23  CA        36.5030   79.6140   53.4970 C.3   272  GLU272      0.1699
     24  C         36.5220   78.2570   54.2290 C.2   272  GLU272      0.2592
     25  O         36.2780   77.2060   53.6280 O.2   272  GLU272     -0.2718
     26  CB        36.9720   80.7550   54.4310 C.3   272  GLU272      0.0402
     27  CG        38.4890   80.8050   54.6640 C.3   272  GLU272      0.1161
     28  CD        38.8900   81.0210   56.1370 C.2   272  GLU272      0.3649
     29  OE1       38.0200   80.9030   57.0480 O.co2 272  GLU272     -0.2457
     30  OE2       40.0930   81.2950   56.3780 O.co2 272  GLU272     -0.2457
     31  N         36.7920   78.2890   55.5300 N.am  273  ASP273     -0.1960
     32  CA        37.1560   77.0840   56.2700 C.3   273  ASP273      0.1840
     33  C         36.1210   75.9500   56.3570 C.2   273  ASP273      0.2622
     34  O         36.4980   74.8080   56.6360 O.2   273  ASP273     -0.2715
     35  CB        37.6560   77.4580   57.6750 C.3   273  ASP273      0.1450
     36  CG        39.1600   77.7130   57.7120 C.2   273  ASP273      0.3671
     37  OD1       39.7570   77.9460   56.6340 O.co2 273  ASP273     -0.2456
     38  OD2       39.7480   77.6710   58.8170 O.co2 273  ASP273     -0.2456
     39  N         34.8410   76.2450   56.1250 N.am  274  SER274     -0.1950
     40  CA        33.8110   75.2020   56.1800 C.3   274  SER274      0.1924
     41  C         33.4390   74.5420   54.8300 C.2   274  SER274      0.2314
     42  O         32.5420   73.6970   54.7750 O.2   274  SER274     -0.2863
     43  CB        32.5540   75.6960   56.9220 C.3   274  SER274      0.2116
     44  OG        31.7880   76.5900   56.1410 O.3   274  SER274     -0.2180
     45  N         31.8400   85.1200   53.7760 N.3   330  ARG330     -0.1245
     46  CA        33.2390   85.0280   54.1610 C.3   330  ARG330      0.1563
     47  C         34.0670   84.5930   52.9610 C.2   330  ARG330      0.2260
     48  O         33.9520   83.4580   52.4990 O.2   330  ARG330     -0.2867
     49  CB        33.4750   84.1050   55.3720 C.3   330  ARG330      0.0307
     50  CG        34.9560   84.1040   55.8490 C.3   330  ARG330      0.0489
     51  CD        35.1850   83.5120   57.2490 C.3   330  ARG330      0.2205
     52  NE        34.8760   82.0870   57.2920 N.pl3 330  ARG330     -0.0865
     53  CZ        35.0590   81.3110   58.3570 C.cat 330  ARG330      0.5346
     54  NH1       35.5730   81.8130   59.4700 N.pl3 330  ARG330      0.1354
     55  NH2       34.7410   80.0320   58.3040 N.pl3 330  ARG330      0.1354
     56  N         38.2760   89.1720   61.0830 N.3   420  MET420     -0.1245
     57  CA        38.5880   88.0800   61.9890 C.3   420  MET420      0.1570
     58  C         39.8760   88.4480   62.6970 C.2   420  MET420      0.2261
     59  O         40.8690   88.8140   62.0420 O.2   420  MET420     -0.2867
     60  CB        38.7860   86.7600   61.2440 C.3   420  MET420      0.0387
     61  CG        37.5740   86.3020   60.4490 C.3   420  MET420      0.0595
     62  SD        36.0940   86.0720   61.4530 S.3   420  MET420     -0.1393
     63  CE        36.7260   84.9350   62.6920 C.3   420  MET420      0.0692
     64  N         42.1410   86.4400   64.3890 N.3   422  GLU422     -0.1245
     65  CA        42.4270   85.0150   64.4910 C.3   422  GLU422      0.1567
     66  C         43.8850   84.6610   64.1440 C.2   422  GLU422      0.2260
     67  O         44.2230   83.4980   63.9350 O.2   422  GLU422     -0.2867
     68  CB        41.4340   84.2090   63.6450 C.3   422  GLU422      0.0388
     69  CG        41.5600   84.3810   62.1590 C.3   422  GLU422      0.1160
     70  CD        40.4800   83.6120   61.4030 C.2   422  GLU422      0.3649
     71  OE1       40.3310   83.8490   60.1850 O.co2 422  GLU422     -0.2457
     72  OE2       39.7820   82.7730   62.0300 O.co2 422  GLU422     -0.2457
     73  N         38.2890   84.6090   66.2500 N.3   447  GLY447     -0.1210
     74  CA        38.3300   83.2800   65.6660 C.3   447  GLY447      0.1956
     75  C         39.3590   82.4350   66.4000 C.2   447  GLY447      0.2612
     76  O         40.4750   82.2380   65.9160 O.2   447  GLY447     -0.2717
     77  N         38.9590   81.9220   67.5600 N.am  448  PHE448     -0.1962
     78  CA        39.8820   81.3770   68.5500 C.3   448  PHE448      0.1771
     79  C         40.5090   80.0450   68.1500 C.2   448  PHE448      0.2619
     80  O         41.5380   79.6720   68.6980 O.2   448  PHE448     -0.2715
     81  CB        39.1840   81.2280   69.9080 C.3   448  PHE448      0.0574
     82  CG        38.2880   80.0180   69.9970 C.ar  448  PHE448     -0.0200
     83  CD1       37.0280   80.0260   69.4190 C.ar  448  PHE448     -0.0042
     84  CD2       38.7100   78.8690   70.6480 C.ar  448  PHE448     -0.0042
     85  CE1       36.2040   78.9170   69.4890 C.ar  448  PHE448     -0.0003
     86  CE2       37.8820   77.7510   70.7310 C.ar  448  PHE448     -0.0003
     87  CZ        36.6250   77.7800   70.1560 C.ar  448  PHE448     -0.0000
     88  N         39.9030   79.3230   67.2110 N.am  449  LEU449     -0.1963
     89  CA        40.4990   78.0660   66.7810 C.3   449  LEU449      0.1728
     90  C         41.7060   78.3270   65.8880 C.2   449  LEU449      0.2616
     91  O         42.8040   77.8380   66.1670 O.2   449  LEU449     -0.2715
     92  CB        39.4790   77.1770   66.0990 C.3   449  LEU449      0.0311
     93  CG        38.3180   76.7700   67.0000 C.3   449  LEU449      0.0022
     94  CD1       37.1470   76.2780   66.1540 C.3   449  LEU449      0.0001
     95  CD2       38.7300   75.7110   68.0180 C.3   449  LEU449      0.0001
     96  N         41.5150   79.1200   64.8340 N.am  450  ASP450     -0.1971
     97  CA        42.6410   79.5850   64.0270 C.3   450  ASP450      0.1709
     98  C         43.6710   80.2600   64.9000 C.2   450  ASP450      0.2293
     99  O         44.8690   80.0730   64.7080 O.2   450  ASP450     -0.2864
    100  CB        42.1960   80.5970   62.9640 C.3   450  ASP450      0.1436
    101  CG        41.8990   79.9530   61.6390 C.2   450  ASP450      0.3671
    102  OD1       42.6710   79.0550   61.2280 O.co2 450  ASP450     -0.2456
    103  OD2       40.8940   80.3390   61.0100 O.co2 450  ASP450     -0.2456
    104  N         33.4380   83.4490   69.4400 N.3   502  GLY502     -0.1210
    105  CA        33.6710   82.2560   68.6390 C.3   502  GLY502      0.1956
    106  C         32.6240   81.1580   68.6460 C.2   502  GLY502      0.2611
    107  O         31.5680   81.2790   69.2790 O.2   502  GLY502     -0.2717
    108  N         32.9430   80.0760   67.9340 N.am  503  MET503     -0.1979
    109  CA        31.9850   79.0180   67.6200 C.3   503  MET503      0.1605
    110  C         31.8700   77.9790   68.7300 C.2   503  MET503      0.2287
    111  O         32.8770   77.5380   69.2810 O.2   503  MET503     -0.2864
    112  CB        32.3970   78.3140   66.3190 C.3   503  MET503      0.0413
    113  CG        31.4480   77.2130   65.8740 C.3   503  MET503      0.0598
    114  SD        29.8180   77.7880   65.3300 S.3   503  MET503     -0.1393
    115  CE        30.1420   78.3380   63.6390 C.3   503  MET503      0.0692
    116  N         31.1910   74.2120   69.1320 N.3   505  THR505     -0.1218
    117  CA        31.3510   73.1220   68.1650 C.3   505  THR505      0.1862
    118  C         30.6040   71.8260   68.5040 C.2   505  THR505      0.2287
    119  O         30.4490   70.9530   67.6510 O.2   505  THR505     -0.2866
    120  CB        32.8380   72.7960   67.9520 C.3   505  THR505      0.1770
    121  OG1       33.4410   72.4530   69.2100 O.3   505  THR505     -0.2211
    122  CG2       33.5600   74.0120   67.3580 C.3   505  THR505      0.0375
    123  N         29.1940   83.0710   67.4720 N.3   529  TRP529     -0.1241
    124  CA        28.9110   82.1170   66.4060 C.3   529  TRP529      0.1605
    125  C         28.2310   80.8290   66.8740 C.2   529  TRP529      0.2264
    126  O         28.5930   80.2530   67.9010 O.2   529  TRP529     -0.2867
    127  CB        30.1970   81.7850   65.6430 C.3   529  TRP529      0.0550
    128  CG        30.6550   82.8890   64.7460 C.ar  529  TRP529      0.0003
    129  CD1       30.1560   84.1680   64.6910 C.ar  529  TRP529      0.0946
    130  CD2       31.7040   82.8240   63.7660 C.ar  529  TRP529      0.0152
    131  NE1       30.8330   84.8940   63.7460 N.ar  529  TRP529     -0.2442
    132  CE2       31.7810   84.0940   63.1540 C.ar  529  TRP529      0.0810
    133  CE3       32.5800   81.8150   63.3420 C.ar  529  TRP529      0.0012
    134  CZ2       32.7090   84.3850   62.1490 C.ar  529  TRP529      0.0191
    135  CZ3       33.4940   82.1010   62.3420 C.ar  529  TRP529      0.0001
    136  CH2       33.5510   83.3760   61.7530 C.ar  529  TRP529      0.0015
    137  N         26.5670   76.9680   65.1950 N.3   531  PRO531     -0.2116
    138  CA        26.7530   76.1090   64.0170 C.3   531  PRO531      0.1372
    139  C         25.4520   75.6710   63.3330 C.2   531  PRO531      0.2244
    140  O         25.5250   75.0740   62.2500 O.2   531  PRO531     -0.2868
    141  CB        27.4500   74.8860   64.6160 C.3   531  PRO531      0.0268
    142  CG        26.8270   74.7630   65.9640 C.3   531  PRO531      0.0207
    143  CD        26.6230   76.1870   66.4450 C.3   531  PRO531      0.0892
    144  N         32.9610   70.6410   56.1350 N.3   607  ALA607     -0.1245
    145  CA        32.4310   70.6750   57.5000 C.3   607  ALA607      0.1562
    146  C         31.1660   69.8220   57.6140 C.2   607  ALA607      0.2260
    147  O         30.3290   69.8130   56.7190 O.2   607  ALA607     -0.2867
    148  CB        32.1270   72.1020   57.9390 C.3   607  ALA607      0.0290
    149  N         30.9670   69.7620   65.2410 N.3   619  MET619     -0.1230
    150  CA        30.8840   70.5210   63.9980 C.3   619  MET619      0.1702
    151  C         32.0920   71.4360   63.8770 C.2   619  MET619      0.2592
    152  O         32.0200   72.6390   64.1580 O.2   619  MET619     -0.2718
    153  CB        29.6050   71.3440   63.9370 C.3   619  MET619      0.0401
    154  CG        28.5950   70.8530   62.9100 C.3   619  MET619      0.0596
    155  SD        28.5770   71.8620   61.4210 S.3   619  MET619     -0.1393
    156  CE        26.9970   71.3910   60.7130 C.3   619  MET619      0.0692
    157  N         33.2030   70.8510   63.4520 N.am  620  GLU620     -0.1966
    158  CA        34.4570   71.5740   63.3540 C.3   620  GLU620      0.1733
    159  C         34.8530   71.7330   61.8930 C.2   620  GLU620      0.2616
    160  O         34.3020   71.0750   61.0090 O.2   620  GLU620     -0.2715
    161  CB        35.5550   70.8240   64.1170 C.3   620  GLU620      0.0429
    162  CG        35.1990   70.5310   65.5720 C.3   620  GLU620      0.1163
    163  CD        36.2280   69.6500   66.2610 C.2   620  GLU620      0.3649
    164  OE1       36.5570   68.5670   65.7140 O.co2 620  GLU620     -0.2457
    165  OE2       36.7110   70.0490   67.3450 O.co2 620  GLU620     -0.2457
    166  N         35.8170   72.6020   61.6400 N.am  621  ASP621     -0.1971
    167  CA        36.2580   72.8070   60.2770 C.3   621  ASP621      0.1709
    168  C         37.7690   72.8750   60.1850 C.2   621  ASP621      0.2293
    169  O         38.4720   72.4550   61.1010 O.2   621  ASP621     -0.2864
    170  CB        35.5750   74.0440   59.6660 C.3   621  ASP621      0.1436
    171  CG        35.9690   75.3380   60.3410 C.2   621  ASP621      0.3671
    172  OD1       36.7320   75.3190   61.3320 O.co2 621  ASP621     -0.2456
    173  OD2       35.5100   76.3950   59.8570 O.co2 621  ASP621     -0.2456
    174  N         40.0260   74.9810   60.7010 N.3   623  ALA623     -0.1245
    175  CA        40.7730   75.5420   61.8350 C.3   623  ALA623      0.1562
    176  C         41.1200   74.4960   62.9170 C.2   623  ALA623      0.2260
    177  O         42.1960   74.5480   63.5160 O.2   623  ALA623     -0.2867
    178  CB        40.0160   76.7300   62.4520 C.3   623  ALA623      0.0290
@<TRIPOS>BOND
     1    48    47    2
     2    18    17    2
     3    17    16    1
     4    22    23    1
     5    47    46    1
     6    23    24    1
     7    23    26    1
     8    25    24    2
     9    45    46    1
    10    19    16    1
    11    19    20    1
    12    16    15    1
    13    46    49    1
    14    24    31   am
    15    26    27    1
    16    27    28    1
    17    42    41    2
    18    41    40    1
    19    11    10    2
    20    20    21    1
    21    49    50    1
    22    15    10   am
    23    15    21    1
    24    31    32    1
    25    10     9    1
    26    50    51    1
    27    13    12    1
    28    39    40    1
    29    39    33   am
    30   144   145    1
    31    28    30   ar
    32    28    29   ar
    33    44    43    1
    34    40    43    1
    35    32    33    1
    36    32    35    1
    37    14    12    1
    38    33    34    2
    39    37    36   ar
    40   147   146    2
    41    12     9    1
    42     9     8    1
    43    51    52    1
    44    52    53    2
    45   145   146    1
    46   145   148    1
    47    35    36    1
    48    36    38   ar
    49     8     3   am
    50    55    53    1
    51    53    54    1
    52     3     4    2
    53     3     2    1
    54     6     5    1
    55   170   167    1
    56   170   171    1
    57   173   171   ar
    58     2     5    1
    59     2     1    1
    60    71    70   ar
    61   168   167    1
    62   168   169    2
    63   167   166    1
    64   171   172   ar
    65    61    60    1
    66    61    62    1
    67     5     7    1
    68   174   175    1
    69   156   155    1
    70   160   159    2
    71   103   101   ar
    72    56    57    1
    73   102   101   ar
    74    60    57    1
    75    70    72   ar
    76    70    69    1
    77   155   154    1
    78    62    63    1
    79   101   100    1
    80   166   159   am
    81   136   134   ar
    82   136   135   ar
    83   175   178    1
    84   175   176    1
    85   159   158    1
    86    57    58    1
    87    59    58    2
    88   134   132   ar
    89    69    68    1
    90   140   139    2
    91   135   133   ar
    92   154   153    1
    93   176   177    2
    94   100    97    1
    95   132   131   ar
    96   132   130   ar
    97   139   138    1
    98   133   130   ar
    99   158   157    1
   100   158   161    1
   101   157   151   am
   102   115   114    1
   103    68    65    1
   104   131   129   ar
   105   130   128   ar
   106   151   150    1
   107   151   152    2
   108    67    66    2
   109   153   150    1
   110   150   149    1
   111   138   141    1
   112   138   137    1
   113    97    96    1
   114    97    98    1
   115   161   162    1
   116    66    65    1
   117    64    65    1
   118   141   142    1
   119   129   128   ar
   120    99    98    2
   121   128   127    1
   122    96    90   am
   123   137   143    1
   124   114   113    1
   125   162   163    1
   126   127   124    1
   127    74    73    1
   128    74    75    1
   129   164   163   ar
   130   113   112    1
   131    90    91    2
   132    90    89    1
   133    76    75    2
   134   142   143    1
   135    92    89    1
   136    92    93    1
   137    94    93    1
   138   163   165   ar
   139   112   109    1
   140    75    77   am
   141   124   125    1
   142   124   123    1
   143    89    88    1
   144   125   126    2
   145    93    95    1
   146    88    79   am
   147   122   120    1
   148    77    78    1
   149   109   108    1
   150   109   110    1
   151   119   118    2
   152   108   106   am
   153   120   117    1
   154   120   121    1
   155    79    78    1
   156    79    80    2
   157   117   118    1
   158   117   116    1
   159    78    81    1
   160   105   106    1
   161   105   104    1
   162   106   107    2
   163   110   111    2
   164    83    85   ar
   165    83    82   ar
   166    85    87   ar
   167    81    82    1
   168    82    84   ar
   169    87    86   ar
   170    84    86   ar
