@<TRIPOS>MOLECULE
tmp/5driA00.pdb
 171 162 0 0 0
SMALL
GASTEIGER

@<TRIPOS>ATOM
      1  N         26.7630   81.1910   61.0950 N.3   114  VAL114     -0.1245
      2  CA        27.7120   80.9370   60.0100 C.3   114  VAL114      0.1561
      3  C         27.3830   79.6400   59.3000 C.2   114  VAL114      0.2260
      4  O         27.3440   78.5890   59.9110 O.2   114  VAL114     -0.2867
      5  CB        29.1480   80.8480   60.5200 C.3   114  VAL114      0.0252
      6  CG1       30.1320   80.8650   59.3470 C.3   114  VAL114      0.0019
      7  CG2       29.4320   81.9890   61.4880 C.3   114  VAL114      0.0019
      8  N         27.8770   77.2460   55.5180 N.3   116  PRO116     -0.2116
      9  CA        28.6530   77.0570   54.2830 C.3   116  PRO116      0.1372
     10  C         27.8310   77.3800   53.0240 C.2   116  PRO116      0.2244
     11  O         26.7590   76.8200   52.8060 O.2   116  PRO116     -0.2868
     12  CB        29.0290   75.5770   54.3330 C.3   116  PRO116      0.0268
     13  CG        27.9830   74.9470   55.1810 C.3   116  PRO116      0.0207
     14  CD        27.6390   75.9720   56.2170 C.3   116  PRO116      0.0892
     15  N         34.9770   80.4290   53.0870 N.3   269  GLU269     -0.1231
     16  CA        36.2380   80.0890   53.6980 C.3   269  GLU269      0.1699
     17  C         36.1460   78.7390   54.4060 C.2   269  GLU269      0.2592
     18  O         35.7390   77.7470   53.8020 O.2   269  GLU269     -0.2718
     19  CB        36.6380   81.1830   54.6820 C.3   269  GLU269      0.0402
     20  CG        38.1350   81.3360   54.8720 C.3   269  GLU269      0.1161
     21  CD        38.5230   81.5810   56.3330 C.2   269  GLU269      0.3649
     22  OE1       37.7070   81.3180   57.2520 O.co2 269  GLU269     -0.2457
     23  OE2       39.6660   82.0230   56.5560 O.co2 269  GLU269     -0.2457
     24  N         36.5010   78.7130   55.6900 N.am  270  ASP270     -0.1960
     25  CA        36.8090   77.4670   56.4060 C.3   270  ASP270      0.1840
     26  C         35.7020   76.4130   56.5050 C.2   270  ASP270      0.2622
     27  O         35.9780   75.2670   56.8340 O.2   270  ASP270     -0.2715
     28  CB        37.3580   77.7730   57.8020 C.3   270  ASP270      0.1450
     29  CG        38.7490   78.3740   57.7620 C.2   270  ASP270      0.3671
     30  OD1       39.2240   78.7160   56.6560 O.co2 270  ASP270     -0.2456
     31  OD2       39.3670   78.5130   58.8400 O.co2 270  ASP270     -0.2456
     32  N         34.4660   76.7800   56.2050 N.am  271  SER271     -0.1950
     33  CA        33.3850   75.8050   56.2390 C.3   271  SER271      0.1924
     34  C         33.0500   75.1570   54.8820 C.2   271  SER271      0.2314
     35  O         32.0930   74.3840   54.7690 O.2   271  SER271     -0.2863
     36  CB        32.1310   76.4130   56.8750 C.3   271  SER271      0.2116
     37  OG        31.6500   77.5000   56.1130 O.3   271  SER271     -0.2180
     38  N         31.5420   85.7430   53.7330 N.3   325  ARG325     -0.1245
     39  CA        32.9400   85.6520   54.1590 C.3   325  ARG325      0.1563
     40  C         33.8580   85.2500   53.0040 C.2   325  ARG325      0.2260
     41  O         33.8800   84.0910   52.5830 O.2   325  ARG325     -0.2867
     42  CB        33.1530   84.7220   55.3690 C.3   325  ARG325      0.0307
     43  CG        34.6090   84.7220   55.8280 C.3   325  ARG325      0.0489
     44  CD        34.8320   84.1440   57.1960 C.3   325  ARG325      0.2205
     45  NE        34.5270   82.7210   57.2570 N.pl3 325  ARG325     -0.0865
     46  CZ        34.6670   81.9790   58.3520 C.cat 325  ARG325      0.5346
     47  NH1       35.1300   82.5180   59.4670 N.pl3 325  ARG325      0.1354
     48  NH2       34.3560   80.6930   58.3320 N.pl3 325  ARG325      0.1354
     49  N         38.1540   90.0150   61.1550 N.3   417  MET417     -0.1245
     50  CA        38.3550   88.9110   62.0850 C.3   417  MET417      0.1570
     51  C         39.6730   89.0680   62.8260 C.2   417  MET417      0.2261
     52  O         40.7260   89.1980   62.2010 O.2   417  MET417     -0.2867
     53  CB        38.3560   87.5750   61.3470 C.3   417  MET417      0.0387
     54  CG        37.0410   87.1990   60.7230 C.3   417  MET417      0.0595
     55  SD        35.9450   86.2650   61.7920 S.3   417  MET417     -0.1393
     56  CE        37.0360   85.0070   62.4360 C.3   417  MET417      0.0692
     57  N         41.9640   87.0080   64.4750 N.3   419  GLU419     -0.1245
     58  CA        42.2280   85.5820   64.5990 C.3   419  GLU419      0.1567
     59  C         43.6520   85.2530   64.2190 C.2   419  GLU419      0.2260
     60  O         43.9810   84.1010   63.9260 O.2   419  GLU419     -0.2867
     61  CB        41.2380   84.7510   63.7670 C.3   419  GLU419      0.0388
     62  CG        41.1760   85.1030   62.2940 C.3   419  GLU419      0.1160
     63  CD        40.2460   84.1910   61.5210 C.2   419  GLU419      0.3649
     64  OE1       39.9390   84.4930   60.3450 O.co2 419  GLU419     -0.2457
     65  OE2       39.8080   83.1650   62.0860 O.co2 419  GLU419     -0.2457
     66  N         38.2060   85.1810   66.3310 N.3   444  GLY444     -0.1210
     67  CA        38.2030   83.8430   65.7610 C.3   444  GLY444      0.1956
     68  C         39.1490   82.9590   66.5420 C.2   444  GLY444      0.2612
     69  O         40.2900   82.7410   66.1120 O.2   444  GLY444     -0.2717
     70  N         38.6730   82.4480   67.6800 N.am  445  PHE445     -0.1962
     71  CA        39.5730   81.9320   68.7050 C.3   445  PHE445      0.1771
     72  C         40.3050   80.6640   68.2850 C.2   445  PHE445      0.2619
     73  O         41.4550   80.4370   68.6830 O.2   445  PHE445     -0.2715
     74  CB        38.8580   81.7640   70.0460 C.3   445  PHE445      0.0574
     75  CG        37.9250   80.5990   70.0910 C.ar  445  PHE445     -0.0200
     76  CD1       36.6960   80.6460   69.4420 C.ar  445  PHE445     -0.0042
     77  CD2       38.2710   79.4500   70.7910 C.ar  445  PHE445     -0.0042
     78  CE1       35.8510   79.5660   69.4750 C.ar  445  PHE445     -0.0003
     79  CE2       37.4280   78.3670   70.8270 C.ar  445  PHE445     -0.0003
     80  CZ        36.2180   78.4260   70.1740 C.ar  445  PHE445     -0.0000
     81  N         39.6580   79.8530   67.4600 N.am  446  LEU446     -0.1963
     82  CA        40.2990   78.6500   66.9450 C.3   446  LEU446      0.1728
     83  C         41.4940   78.9480   66.0050 C.2   446  LEU446      0.2616
     84  O         42.5980   78.4340   66.2120 O.2   446  LEU446     -0.2715
     85  CB        39.2670   77.7660   66.2670 C.3   446  LEU446      0.0311
     86  CG        38.0570   77.5360   67.1600 C.3   446  LEU446      0.0022
     87  CD1       36.8520   77.2610   66.3080 C.3   446  LEU446      0.0001
     88  CD2       38.3150   76.3710   68.0510 C.3   446  LEU446      0.0001
     89  N         41.2840   79.7720   64.9850 N.am  447  ASP447     -0.1971
     90  CA        42.3830   80.1440   64.1110 C.3   447  ASP447      0.1709
     91  C         43.4550   80.8030   64.9460 C.2   447  ASP447      0.2293
     92  O         44.6520   80.5330   64.7760 O.2   447  ASP447     -0.2864
     93  CB        41.9200   81.0960   63.0050 C.3   447  ASP447      0.1436
     94  CG        41.8060   80.4090   61.6410 C.2   447  ASP447      0.3671
     95  OD1       42.7800   79.7440   61.2340 O.co2 447  ASP447     -0.2456
     96  OD2       40.7470   80.5310   60.9820 O.co2 447  ASP447     -0.2456
     97  N         33.3570   83.9620   69.4640 N.3   499  GLY499     -0.1210
     98  CA        33.4940   82.7470   68.6840 C.3   499  GLY499      0.1956
     99  C         32.3700   81.7420   68.6720 C.2   499  GLY499      0.2611
    100  O         31.2800   81.9790   69.1680 O.2   499  GLY499     -0.2717
    101  N         32.6710   80.5820   68.1140 N.am  500  MET500     -0.1979
    102  CA        31.6740   79.5960   67.7620 C.3   500  MET500      0.1605
    103  C         31.5270   78.5410   68.8380 C.2   500  MET500      0.2287
    104  O         32.5040   78.1390   69.4670 O.2   500  MET500     -0.2864
    105  CB        32.0920   78.9310   66.4460 C.3   500  MET500      0.0413
    106  CG        31.1860   77.8150   65.9650 C.3   500  MET500      0.0598
    107  SD        29.6300   78.4730   65.3590 S.3   500  MET500     -0.1393
    108  CE        30.1380   79.2720   63.8300 C.3   500  MET500      0.0692
    109  N         30.9180   74.8570   69.1530 N.3   502  THR502     -0.1218
    110  CA        30.9840   73.7070   68.2510 C.3   502  THR502      0.1862
    111  C         30.2390   72.4820   68.7440 C.2   502  THR502      0.2287
    112  O         29.8730   71.6240   67.9460 O.2   502  THR502     -0.2866
    113  CB        32.4390   73.3220   67.9040 C.3   502  THR502      0.1770
    114  OG1       33.1490   72.9520   69.0960 O.3   502  THR502     -0.2211
    115  CG2       33.1500   74.4890   67.2130 C.3   502  THR502      0.0375
    116  N         28.8260   83.6760   67.5590 N.3   526  TRP526     -0.1241
    117  CA        28.5820   82.7100   66.5080 C.3   526  TRP526      0.1605
    118  C         27.8900   81.4200   66.9490 C.2   526  TRP526      0.2264
    119  O         28.2150   80.8290   67.9710 O.2   526  TRP526     -0.2867
    120  CB        29.8910   82.3800   65.7920 C.3   526  TRP526      0.0550
    121  CG        30.4260   83.4830   64.8950 C.ar  526  TRP526      0.0003
    122  CD1       30.0140   84.7840   64.8500 C.ar  526  TRP526      0.0946
    123  CD2       31.4690   83.3610   63.9100 C.ar  526  TRP526      0.0152
    124  NE1       30.7300   85.4780   63.9040 N.ar  526  TRP526     -0.2442
    125  CE2       31.6300   84.6290   63.3150 C.ar  526  TRP526      0.0810
    126  CE3       32.2790   82.2980   63.4740 C.ar  526  TRP526      0.0012
    127  CZ2       32.5750   84.8670   62.3110 C.ar  526  TRP526      0.0191
    128  CZ3       33.2100   82.5340   62.4890 C.ar  526  TRP526      0.0001
    129  CH2       33.3540   83.8090   61.9170 C.ar  526  TRP526      0.0015
    130  N         26.1750   77.6050   65.0300 N.3   528  PRO528     -0.2116
    131  CA        26.2910   76.7800   63.8310 C.3   528  PRO528      0.1372
    132  C         24.9690   76.1810   63.3650 C.2   528  PRO528      0.2244
    133  O         24.9790   75.2390   62.5630 O.2   528  PRO528     -0.2868
    134  CB        27.2020   75.6610   64.3130 C.3   528  PRO528      0.0268
    135  CG        26.7600   75.4540   65.7120 C.3   528  PRO528      0.0207
    136  CD        26.2760   76.7740   66.2390 C.3   528  PRO528      0.0892
    137  N         32.4370   71.3750   56.4530 N.3   604  ALA604     -0.1245
    138  CA        31.8570   71.5430   57.7710 C.3   604  ALA604      0.1562
    139  C         30.6250   70.6630   57.8880 C.2   604  ALA604      0.2260
    140  O         29.7110   70.7640   57.0750 O.2   604  ALA604     -0.2867
    141  CB        31.4920   72.9940   58.0070 C.3   604  ALA604      0.0290
    142  N         30.5410   70.2000   65.4150 N.3   616  MET616     -0.1230
    143  CA        30.4910   70.8310   64.1160 C.3   616  MET616      0.1702
    144  C         31.5820   71.8790   64.0340 C.2   616  MET616      0.2592
    145  O         31.3670   73.0360   64.3770 O.2   616  MET616     -0.2718
    146  CB        29.1300   71.4520   63.8610 C.3   616  MET616      0.0401
    147  CG        28.8960   71.7700   62.3890 C.3   616  MET616      0.0596
    148  SD        27.2100   72.3260   62.0560 S.3   616  MET616     -0.1393
    149  CE        27.1490   72.2160   60.2540 C.3   616  MET616      0.0692
    150  N         32.7630   71.4620   63.5960 N.am  617  GLU617     -0.1966
    151  CA        33.8930   72.3780   63.4520 C.3   617  GLU617      0.1733
    152  C         34.3850   72.5050   61.9930 C.2   617  GLU617      0.2616
    153  O         33.8500   71.8330   61.0940 O.2   617  GLU617     -0.2715
    154  CB        35.0270   71.9780   64.4050 C.3   617  GLU617      0.0429
    155  CG        35.2950   70.4820   64.5150 C.3   617  GLU617      0.1163
    156  CD        35.7410   70.0870   65.9220 C.2   617  GLU617      0.3649
    157  OE1       35.3660   70.8320   66.8580 O.co2 617  GLU617     -0.2457
    158  OE2       36.4590   69.0580   66.0960 O.co2 617  GLU617     -0.2457
    159  N         35.3840   73.3660   61.7630 N.am  618  ASP618     -0.1971
    160  CA        35.9190   73.5900   60.4120 C.3   618  ASP618      0.1709
    161  C         37.4480   73.5220   60.3380 C.2   618  ASP618      0.2293
    162  O         38.0740   72.9220   61.2100 O.2   618  ASP618     -0.2864
    163  CB        35.3890   74.9040   59.8320 C.3   618  ASP618      0.1436
    164  CG        35.8340   76.1190   60.6130 C.2   618  ASP618      0.3671
    165  OD1       36.6400   75.9880   61.5640 O.co2 618  ASP618     -0.2456
    166  OD2       35.3780   77.2230   60.2530 O.co2 618  ASP618     -0.2456
    167  N         39.7210   75.5520   61.0530 N.3   620  ALA620     -0.1245
    168  CA        40.4470   76.1910   62.1430 C.3   620  ALA620      0.1562
    169  C         40.8040   75.1600   63.2070 C.2   620  ALA620      0.2260
    170  O         41.9010   75.1630   63.7730 O.2   620  ALA620     -0.2867
    171  CB        39.6260   77.3000   62.7330 C.3   620  ALA620      0.0290
@<TRIPOS>BOND
     1    41    40    2
     2    11    10    2
     3    40    39    1
     4    10     9    1
     5    15    16    1
     6    16    17    1
     7    16    19    1
     8    38    39    1
     9    18    17    2
    10    39    42    1
    11     9    12    1
    12     9     8    1
    13    12    13    1
    14    17    24   am
    15    19    20    1
    16    35    34    2
    17    20    21    1
    18    34    33    1
    19    13    14    1
    20    42    43    1
    21     8    14    1
    22    24    25    1
    23    43    44    1
    24    37    36    1
    25    32    33    1
    26    32    26   am
    27    33    36    1
    28    21    23   ar
    29    21    22   ar
    30    25    26    1
    31    25    28    1
    32   137   138    1
    33    26    27    2
    34    30    29   ar
    35   140   139    2
    36    44    45    1
    37    45    46    2
    38    29    28    1
    39    29    31   ar
    40   138   139    1
    41   138   141    1
    42    48    46    1
    43    46    47    1
    44     3     4    2
    45     3     2    1
    46     6     5    1
    47   163   160    1
    48   163   164    1
    49     2     5    1
    50     2     1    1
    51   166   164   ar
    52   149   148    1
    53   161   160    1
    54   161   162    2
    55    64    63   ar
    56   160   159    1
    57     5     7    1
    58   164   165   ar
    59    54    53    1
    60    54    55    1
    61    96    94   ar
    62   167   168    1
    63   153   152    2
    64    49    50    1
    65    95    94   ar
    66    53    50    1
    67    63    65   ar
    68    63    62    1
    69    94    93    1
    70   159   152   am
    71    55    56    1
    72   129   127   ar
    73   129   128   ar
    74   152   151    1
    75   148   147    1
    76    50    51    1
    77   168   171    1
    78   168   169    1
    79    52    51    2
    80    62    61    1
    81   127   125   ar
    82   147   146    1
    83   128   126   ar
    84   133   132    2
    85    93    90    1
    86   169   170    2
    87   125   124   ar
    88   125   123   ar
    89   132   131    1
    90   151   150    1
    91   151   154    1
    92   126   123   ar
    93   150   144   am
    94    61    58    1
    95   108   107    1
    96   131   134    1
    97   131   130    1
    98   146   143    1
    99   124   122   ar
   100   123   121   ar
   101    60    59    2
   102   144   143    1
   103   144   145    2
   104    90    91    1
   105    90    89    1
   106   143   142    1
   107    59    58    1
   108   134   135    1
   109   154   155    1
   110    57    58    1
   111   155   156    1
   112    92    91    2
   113   122   121   ar
   114   121   120    1
   115    89    83   am
   116   130   136    1
   117   107   106    1
   118   135   136    1
   119    67    66    1
   120    67    68    1
   121   120   117    1
   122   156   158   ar
   123   156   157   ar
   124   106   105    1
   125    83    84    2
   126    83    82    1
   127    69    68    2
   128    85    82    1
   129    85    86    1
   130    87    86    1
   131   105   102    1
   132   117   118    1
   133   117   116    1
   134    68    70   am
   135    82    81    1
   136   118   119    2
   137    86    88    1
   138   115   113    1
   139    81    72   am
   140    70    71    1
   141   102   101    1
   142   102   103    1
   143   113   110    1
   144   113   114    1
   145   112   111    2
   146   101    99   am
   147   110   111    1
   148   110   109    1
   149    72    73    2
   150    72    71    1
   151    99    98    1
   152    99   100    2
   153    98    97    1
   154    71    74    1
   155   103   104    2
   156    76    78   ar
   157    76    75   ar
   158    78    80   ar
   159    74    75    1
   160    75    77   ar
   161    80    79   ar
   162    77    79   ar
