@<TRIPOS>MOLECULE
tmp/5drpB00.pdb
 172 165 0 0 0
SMALL
GASTEIGER

@<TRIPOS>ATOM
      1  N         29.2500   14.7710   28.1420 N.3    17  ILE17      -0.1231
      2  CA        30.6030   14.2770   28.3990 C.3    17  ILE17       0.1692
      3  C         30.8770   14.1070   29.9030 C.2    17  ILE17       0.2592
      4  O         31.5520   13.1510   30.3130 O.2    17  ILE17      -0.2718
      5  CB        31.6800   15.1990   27.7400 C.3    17  ILE17       0.0266
      6  CG1       33.0720   14.5620   27.8140 C.3    17  ILE17       0.0019
      7  CG2       31.6830   16.5990   28.3450 C.3    17  ILE17       0.0020
      8  CD1       33.1700   13.2530   27.0930 C.3    17  ILE17       0.0001
      9  N         30.3290   14.9950   30.7310 N.am   18  HIS18      -0.1976
     10  CA        30.6150   14.9370   32.1630 C.3    18  HIS18       0.1656
     11  C         29.6060   14.1090   32.9510 C.2    18  HIS18       0.2291
     12  O         29.9850   13.3880   33.8710 O.2    18  HIS18      -0.2864
     13  CB        30.6990   16.3470   32.7490 C.3    18  HIS18       0.0771
     14  CG        31.8690   17.1320   32.2440 C.ar   18  HIS18       0.0820
     15  ND1       33.1570   16.6370   32.2550 N.ar   18  HIS18      -0.2267
     16  CD2       31.9440   18.3660   31.6900 C.ar   18  HIS18       0.1154
     17  CE1       33.9750   17.5360   31.7370 C.ar   18  HIS18       0.1986
     18  NE2       33.2630   18.5940   31.3850 N.ar   18  HIS18      -0.2212
     19  N         35.6220   23.0890   35.8050 N.3    57  HIS57      -0.1226
     20  CA        35.8070   22.6810   34.4170 C.3    57  HIS57       0.1752
     21  C         34.4930   22.8700   33.6790 C.2    57  HIS57       0.2596
     22  O         33.4240   22.7690   34.2800 O.2    57  HIS57      -0.2718
     23  CB        36.2670   21.2260   34.3190 C.3    57  HIS57       0.0759
     24  CG        37.4920   20.9270   35.1210 C.ar   57  HIS57       0.0818
     25  ND1       38.7450   20.8260   34.5550 N.ar   57  HIS57      -0.2268
     26  CD2       37.6570   20.7070   36.4460 C.ar   57  HIS57       0.1154
     27  CE1       39.6300   20.5540   35.4970 C.ar   57  HIS57       0.1986
     28  NE2       38.9960   20.4770   36.6540 N.ar   57  HIS57      -0.2212
     29  N         34.5940   23.1540   32.3840 N.am   58  SER58      -0.1952
     30  CA        33.4530   23.4260   31.5240 C.3    58  SER58       0.1924
     31  C         32.6080   24.6130   31.9760 C.2    58  SER58       0.2314
     32  O         32.7410   25.1170   33.0950 O.2    58  SER58      -0.2863
     33  CB        32.5880   22.1740   31.3860 C.3    58  SER58       0.2116
     34  OG        33.2630   21.2460   30.5530 O.3    58  SER58      -0.2180
     35  N         29.9060   25.3710   26.2700 N.3    72  GLU72      -0.1231
     36  CA        30.9630   26.0710   25.5400 C.3    72  GLU72       0.1699
     37  C         31.0700   25.6310   24.0660 C.2    72  GLU72       0.2592
     38  O         31.4230   26.4350   23.2090 O.2    72  GLU72      -0.2718
     39  CB        32.3340   25.9070   26.2430 C.3    72  GLU72       0.0402
     40  CG        32.8640   24.4610   26.3280 C.3    72  GLU72       0.1161
     41  CD        32.4730   23.7550   27.6230 C.2    72  GLU72       0.3649
     42  OE1       31.4960   24.1850   28.2700 O.co2  72  GLU72      -0.2457
     43  OE2       33.1840   22.7990   28.0250 O.co2  72  GLU72      -0.2457
     44  N         30.7360   24.3810   23.7520 N.am   73  HIS73      -0.1976
     45  CA        30.9560   23.8950   22.3880 C.3    73  HIS73       0.1656
     46  C         29.8470   24.3320   21.4150 C.2    73  HIS73       0.2291
     47  O         30.1370   24.7720   20.2990 O.2    73  HIS73      -0.2864
     48  CB        31.1170   22.3700   22.4090 C.3    73  HIS73       0.0771
     49  CG        32.2050   21.9220   23.3370 C.ar   73  HIS73       0.0820
     50  ND1       32.0080   20.9900   24.3340 N.ar   73  HIS73      -0.2267
     51  CD2       33.4920   22.3270   23.4510 C.ar   73  HIS73       0.1154
     52  CE1       33.1340   20.8220   25.0070 C.ar   73  HIS73       0.1986
     53  NE2       34.0540   21.6140   24.4840 N.ar   73  HIS73      -0.2212
     54  N         37.5010   17.4770   22.2030 N.3   178  THR178     -0.1203
     55  CA        37.8580   17.5760   23.6060 C.3   178  THR178      0.1994
     56  C         38.8180   16.4290   23.9080 C.2   178  THR178      0.2618
     57  O         38.8980   15.4710   23.1490 O.2   178  THR178     -0.2717
     58  CB        36.6200   17.5140   24.5170 C.3   178  THR178      0.1784
     59  OG1       36.9980   17.8360   25.8580 O.3   178  THR178     -0.2211
     60  CG2       35.9790   16.1130   24.4720 C.3   178  THR178      0.0376
     61  N         39.5630   16.5300   24.9990 N.am  179  PHE179     -0.1961
     62  CA        40.6320   15.5790   25.2260 C.3   179  PHE179      0.1771
     63  C         40.8770   15.3370   26.7030 C.2   179  PHE179      0.2619
     64  O         40.5380   16.1690   27.5530 O.2   179  PHE179     -0.2715
     65  CB        41.9130   16.0800   24.5530 C.3   179  PHE179      0.0574
     66  CG        42.3540   17.4370   25.0400 C.ar  179  PHE179     -0.0200
     67  CD1       41.8500   18.5960   24.4640 C.ar  179  PHE179     -0.0042
     68  CD2       43.2630   17.5530   26.0820 C.ar  179  PHE179     -0.0042
     69  CE1       42.2490   19.8390   24.9200 C.ar  179  PHE179     -0.0003
     70  CE2       43.6600   18.7910   26.5410 C.ar  179  PHE179     -0.0003
     71  CZ        43.1530   19.9380   25.9520 C.ar  179  PHE179     -0.0000
     72  N         41.4800   14.1920   27.0060 N.am  180  ALA180     -0.1977
     73  CA        41.7500   13.8160   28.3860 C.3   180  ALA180      0.1597
     74  C         43.0400   13.0080   28.4650 C.2   180  ALA180      0.2287
     75  O         43.4840   12.4350   27.4740 O.2   180  ALA180     -0.2864
     76  CB        40.5790   13.0210   28.9620 C.3   180  ALA180      0.0319
     77  N         42.1750   10.3050   34.1870 N.3   185  ILE185     -0.1245
     78  CA        40.8070    9.8770   33.9140 C.3   185  ILE185      0.1561
     79  C         40.1360    9.2010   35.1120 C.2   185  ILE185      0.2260
     80  O         38.9960    9.5240   35.4460 O.2   185  ILE185     -0.2867
     81  CB        40.7620    8.9390   32.6910 C.3   185  ILE185      0.0252
     82  CG1       41.0320    9.7460   31.4210 C.3   185  ILE185      0.0019
     83  CG2       39.4080    8.2590   32.5780 C.3   185  ILE185      0.0019
     84  CD1       41.0110    8.9310   30.1530 C.3   185  ILE185      0.0001
     85  N         39.3510   12.0910   37.7270 N.3   188  ILE188     -0.1231
     86  CA        38.3100   13.0390   37.3470 C.3   188  ILE188      0.1692
     87  C         36.9360   12.3680   37.3380 C.2   188  ILE188      0.2591
     88  O         35.9240   13.0180   37.5960 O.2   188  ILE188     -0.2718
     89  CB        38.5900   13.6850   35.9720 C.3   188  ILE188      0.0266
     90  CG1       38.6630   12.6300   34.8700 C.3   188  ILE188      0.0019
     91  CG2       39.8780   14.4920   36.0190 C.3   188  ILE188      0.0020
     92  CD1       39.1680   13.1720   33.5500 C.3   188  ILE188      0.0001
     93  N         36.9040   11.0660   37.0730 N.am  189  LYS189     -0.1980
     94  CA        35.6530   10.3220   37.1180 C.3   189  LYS189      0.1596
     95  C         35.1370   10.2060   38.5490 C.2   189  LYS189      0.2287
     96  O         33.9290   10.1150   38.7720 O.2   189  LYS189     -0.2864
     97  CB        35.8230    8.9330   36.5040 C.3   189  LYS189      0.0298
     98  CG        35.8650    8.9350   34.9860 C.3   189  LYS189      0.0038
     99  CD        35.6230    7.5390   34.4420 C.3   189  LYS189      0.0206
    100  CE        35.6290    7.5210   32.9270 C.3   189  LYS189      0.1093
    101  NZ        35.3920    6.1410   32.4180 N.3   189  LYS189     -0.1314
    102  N         33.4810   14.0800   36.6800 N.3   193  LEU193     -0.1231
    103  CA        33.8010   14.5650   35.3430 C.3   193  LEU193      0.1693
    104  C         34.0460   13.4000   34.3860 C.2   193  LEU193      0.2592
    105  O         34.3890   12.2980   34.8110 O.2   193  LEU193     -0.2718
    106  CB        35.0260   15.4830   35.3760 C.3   193  LEU193      0.0284
    107  CG        34.8610   16.8380   36.0690 C.3   193  LEU193      0.0019
    108  CD1       36.2070   17.5070   36.2610 C.3   193  LEU193      0.0001
    109  CD2       33.9310   17.7420   35.2730 C.3   193  LEU193      0.0001
    110  N         33.8460   13.6500   33.0970 N.am  194  GLY194     -0.1957
    111  CA        34.1640   12.6790   32.0590 C.3   194  GLY194      0.1869
    112  C         33.4290   11.3490   32.1240 C.2   194  GLY194      0.2309
    113  O         33.8490   10.3800   31.4990 O.2   194  GLY194     -0.2863
    114  N         32.7610   10.0110   28.8210 N.3   197  GLY197     -0.1210
    115  CA        33.9120    9.9160   27.9440 C.3   197  GLY197      0.1956
    116  C         34.1430    8.5330   27.3720 C.2   197  GLY197      0.2613
    117  O         33.9820    7.5250   28.0600 O.2   197  GLY197     -0.2717
    118  N         34.5190    8.4890   26.1000 N.am  198  SER198     -0.1938
    119  CA        34.9490    7.2490   25.4650 C.3   198  SER198      0.2055
    120  C         35.8690    7.5990   24.3130 C.2   198  SER198      0.2642
    121  O         36.0620    8.7740   24.0060 O.2   198  SER198     -0.2714
    122  CB        33.7580    6.4320   24.9670 C.3   198  SER198      0.2130
    123  OG        33.2030    7.0250   23.8100 O.3   198  SER198     -0.2179
    124  N         36.4380    6.5910   23.6640 N.am  199  LEU199     -0.1977
    125  CA        37.2750    6.8700   22.5030 C.3   199  LEU199      0.1596
    126  C         36.4350    7.4450   21.3670 C.2   199  LEU199      0.2287
    127  O         36.9650    8.0470   20.4360 O.2   199  LEU199     -0.2864
    128  CB        38.0020    5.6120   22.0400 C.3   199  LEU199      0.0297
    129  CG        39.2220    5.1930   22.8610 C.3   199  LEU199      0.0022
    130  CD1       39.9070    3.9990   22.2090 C.3   199  LEU199      0.0001
    131  CD2       40.1920    6.3410   23.0080 C.3   199  LEU199      0.0001
    132  N         36.1730   11.4030   22.6950 N.3   202  THR202     -0.1218
    133  CA        37.2870   12.0410   23.3830 C.3   202  THR202      0.1862
    134  C         38.6340   11.5950   22.8110 C.2   202  THR202      0.2287
    135  O         38.8720   10.4090   22.6270 O.2   202  THR202     -0.2866
    136  CB        37.2700   11.7260   24.9000 C.3   202  THR202      0.1770
    137  OG1       36.0140   12.1220   25.4650 O.3   202  THR202     -0.2211
    138  CG2       38.3960   12.4530   25.6230 C.3   202  THR202      0.0375
    139  N         41.9490   10.6510   23.7010 N.3   204  VAL204     -0.1245
    140  CA        42.5650   10.2070   24.9450 C.3   204  VAL204      0.1561
    141  C         44.0730   10.0500   24.7610 C.2   204  VAL204      0.2260
    142  O         44.5330    9.3630   23.8530 O.2   204  VAL204     -0.2867
    143  CB        41.9380    8.8870   25.4300 C.3   204  VAL204      0.0252
    144  CG1       42.6240    8.3980   26.6790 C.3   204  VAL204      0.0019
    145  CG2       40.4450    9.0860   25.6730 C.3   204  VAL204      0.0019
    146  N         41.3880   22.8300   20.1280 N.3   225  HIS225     -0.1226
    147  CA        40.1630   22.7080   20.8970 C.3   225  HIS225      0.1752
    148  C         40.0630   23.7760   22.0000 C.2   225  HIS225      0.2595
    149  O         38.9670   24.2760   22.2890 O.2   225  HIS225     -0.2718
    150  CB        40.0150   21.3140   21.5310 C.3   225  HIS225      0.0759
    151  CG        38.7210   21.1690   22.2670 C.ar  225  HIS225      0.0818
    152  ND1       37.5440   20.8330   21.6310 N.ar  225  HIS225     -0.2268
    153  CD2       38.3920   21.4240   23.5550 C.ar  225  HIS225      0.1154
    154  CE1       36.5530   20.8520   22.5040 C.ar  225  HIS225      0.1986
    155  NE2       37.0390   21.2120   23.6780 N.ar  225  HIS225     -0.2212
    156  N         41.1820   24.1220   22.6350 N.am  226  LYS226     -0.1980
    157  CA        41.1140   25.1170   23.7070 C.3   226  LYS226      0.1596
    158  C         40.8100   26.4990   23.1350 C.2   226  LYS226      0.2287
    159  O         40.1830   27.3120   23.7940 O.2   226  LYS226     -0.2864
    160  CB        42.4090   25.1450   24.5310 C.3   226  LYS226      0.0298
    161  CG        42.6810   23.8340   25.2660 C.3   226  LYS226      0.0038
    162  CD        43.6420   24.0140   26.4310 C.3   226  LYS226      0.0206
    163  CE        42.9440   24.6860   27.6040 C.3   226  LYS226      0.1093
    164  NZ        43.7030   24.5340   28.8890 N.3   226  LYS226     -0.1314
    165  N         37.1380   26.3610   22.6810 N.3   229  ASP229     -0.1239
    166  CA        36.4910   26.5820   23.9760 C.3   229  ASP229      0.1674
    167  C         36.3740   28.0710   24.3130 C.2   229  ASP229      0.2266
    168  O         35.3060   28.5440   24.7210 O.2   229  ASP229     -0.2867
    169  CB        37.2510   25.8970   25.0990 C.3   229  ASP229      0.1410
    170  CG        37.0210   24.3950   25.1480 C.2   229  ASP229      0.3668
    171  OD1       35.9860   23.9000   24.6420 O.co2 229  ASP229     -0.2456
    172  OD2       37.9030   23.7200   25.7150 O.co2 229  ASP229     -0.2456
@<TRIPOS>BOND
     1   146   147    1
     2    47    46    2
     3   127   126    2
     4   147   150    1
     5   147   148    1
     6   126   125    1
     7    46    45    1
     8   150   151    1
     9   152   151   ar
    10   152   154   ar
    11   148   149    2
    12   148   156   am
    13   128   125    1
    14   128   129    1
    15    54    55    1
    16   130   129    1
    17   151   153   ar
    18    45    48    1
    19    45    44    1
    20    48    49    1
    21   125   124    1
    22   154   155   ar
    23   135   134    2
    24   156   157    1
    25   165   166    1
    26   132   133    1
    27   134   133    1
    28   129   131    1
    29   158   157    1
    30   158   159    2
    31    57    56    2
    32    38    37    2
    33    49    51   ar
    34    49    50   ar
    35   133   136    1
    36    51    53   ar
    37   153   155   ar
    38    55    56    1
    39    55    58    1
    40   124   120   am
    41   139   140    1
    42   157   160    1
    43    44    37   am
    44   123   122    1
    45   142   141    2
    46    56    61   am
    47   166   167    1
    48   166   169    1
    49   121   120    2
    50    37    36    1
    51   120   119    1
    52   167   168    2
    53    50    52   ar
    54    67    69   ar
    55    67    66   ar
    56    60    58    1
    57    53    52   ar
    58    58    59    1
    59   160   161    1
    60    65    66    1
    61    65    62    1
    62   171   170   ar
    63   141   140    1
    64   136   137    1
    65   136   138    1
    66    69    71   ar
    67   140   143    1
    68   122   119    1
    69    61    62    1
    70    66    68   ar
    71   169   170    1
    72   170   172   ar
    73    62    63    1
    74   161   162    1
    75   143   145    1
    76   143   144    1
    77   119   118    1
    78    36    39    1
    79    36    35    1
    80    71    70   ar
    81    68    70   ar
    82   118   116   am
    83    39    40    1
    84    40    41    1
    85   162   163    1
    86    63    72   am
    87    63    64    2
    88    72    73    1
    89     8     6    1
    90   116   115    1
    91   116   117    2
    92    75    74    2
    93   163   164    1
    94    41    43   ar
    95    41    42   ar
    96     5     6    1
    97     5     7    1
    98     5     2    1
    99   115   114    1
   100     1     2    1
   101    73    74    1
   102    73    76    1
   103     2     3    1
   104     3     4    2
   105     3     9   am
   106    84    82    1
   107    34    33    1
   108     9    10    1
   109    18    16   ar
   110    18    17   ar
   111    33    30    1
   112    82    81    1
   113   113   112    2
   114    30    31    1
   115    30    29    1
   116    16    14   ar
   117    17    15   ar
   118    31    32    2
   119   111   112    1
   120   111   110    1
   121    10    13    1
   122    10    11    1
   123    14    15   ar
   124    14    13    1
   125    29    21   am
   126   101   100    1
   127    83    81    1
   128    81    78    1
   129   100    99    1
   130    11    12    2
   131   110   104   am
   132    92    90    1
   133    21    22    2
   134    21    20    1
   135    78    77    1
   136    78    79    1
   137    23    20    1
   138    23    24    1
   139   104   105    2
   140   104   103    1
   141    20    19    1
   142    99    98    1
   143    25    24   ar
   144    25    27   ar
   145    90    89    1
   146    98    97    1
   147    79    80    2
   148    24    26   ar
   149   109   107    1
   150   103   106    1
   151   103   102    1
   152   106   107    1
   153    27    28   ar
   154    89    91    1
   155    89    86    1
   156   107   108    1
   157    26    28   ar
   158    97    94    1
   159    93    94    1
   160    93    87   am
   161    94    95    1
   162    87    86    1
   163    87    88    2
   164    86    85    1
   165    95    96    2
