@<TRIPOS>MOLECULE
tmp/5drqA00.pdb
 175 167 0 0 0
SMALL
GASTEIGER

@<TRIPOS>ATOM
      1  N         24.2820   11.2450   -2.6020 N.3    18  LEU18      -0.1231
      2  CA        25.0260   12.0990   -1.6800 C.3    18  LEU18       0.1693
      3  C         26.5290   11.8460   -1.7480 C.2    18  LEU18       0.2592
      4  O         27.3390   12.7780   -1.8310 O.2    18  LEU18      -0.2718
      5  CB        24.5310   11.8600   -0.2510 C.3    18  LEU18       0.0284
      6  CG        25.4120   12.4860    0.8230 C.3    18  LEU18       0.0019
      7  CD1       25.3420   13.9980    0.6610 C.3    18  LEU18       0.0001
      8  CD2       24.9270   12.0390    2.2040 C.3    18  LEU18       0.0001
      9  N         26.9070   10.5710   -1.7130 N.am   19  HIS19      -0.1976
     10  CA        28.3200   10.2140   -1.6660 C.3    19  HIS19       0.1656
     11  C         28.9550   10.3720   -3.0390 C.2    19  HIS19       0.2291
     12  O         30.0220   10.9680   -3.1780 O.2    19  HIS19      -0.2864
     13  CB        28.4900    8.7750   -1.1530 C.3    19  HIS19       0.0771
     14  CG        28.0030    8.5820    0.2510 C.ar   19  HIS19       0.0820
     15  ND1       27.4650    7.3940    0.6990 N.ar   19  HIS19      -0.2267
     16  CD2       27.9750    9.4300    1.3070 C.ar   19  HIS19       0.1154
     17  CE1       27.1200    7.5210    1.9690 C.ar   19  HIS19       0.1986
     18  NE2       27.4160    8.7480    2.3610 N.ar   19  HIS19      -0.2212
     19  N         29.5620    5.0990    6.8970 N.3    62  MET62      -0.1230
     20  CA        28.9320    6.3330    6.4270 C.3    62  MET62       0.1702
     21  C         27.4080    6.1540    6.3550 C.2    62  MET62       0.2593
     22  O         26.6560    6.7970    7.1050 O.2    62  MET62      -0.2718
     23  CB        29.4990    6.7370    5.0620 C.3    62  MET62       0.0401
     24  CG        30.9890    7.0890    5.0780 C.3    62  MET62       0.0596
     25  SD        31.3390    8.4770    6.1580 S.3    62  MET62      -0.1393
     26  CE        30.1640    9.6660    5.4970 C.3    62  MET62       0.0692
     27  N         26.9610    5.2970    5.4500 N.am   63  SER63      -0.1952
     28  CA        25.5510    4.9330    5.3600 C.3    63  SER63       0.1924
     29  C         25.4420    3.4210    5.2980 C.2    63  SER63       0.2314
     30  O         26.4610    2.7220    5.2980 O.2    63  SER63      -0.2863
     31  CB        24.8960    5.5800    4.1340 C.3    63  SER63       0.2116
     32  OG        25.3960    5.0170    2.9400 O.3    63  SER63      -0.2180
     33  N         19.0220    3.6110    3.8310 N.3    77  GLU77      -0.1231
     34  CA        18.2650    3.7210    5.0760 C.3    77  GLU77       0.1699
     35  C         17.1120    4.7270    5.0480 C.2    77  GLU77       0.2592
     36  O         16.0930    4.4720    5.6940 O.2    77  GLU77      -0.2718
     37  CB        19.2190    4.0480    6.2190 C.3    77  GLU77       0.0402
     38  CG        20.0150    5.3510    6.0340 C.3    77  GLU77       0.1161
     39  CD        21.4040    5.1520    5.4160 C.2    77  GLU77       0.3649
     40  OE1       21.6460    4.1480    4.6980 O.co2  77  GLU77      -0.2457
     41  OE2       22.2720    6.0160    5.6500 O.co2  77  GLU77      -0.2457
     42  N         17.2080    5.8380    4.3100 N.am   78  HIS78      -0.1976
     43  CA        16.0920    6.7900    4.3400 C.3    78  HIS78       0.1656
     44  C         14.8820    6.2700    3.5460 C.2    78  HIS78       0.2291
     45  O         13.7420    6.3970    3.9910 O.2    78  HIS78      -0.2864
     46  CB        16.5230    8.1720    3.8210 C.3    78  HIS78       0.0771
     47  CG        17.6750    8.7520    4.5750 C.ar   78  HIS78       0.0820
     48  ND1       18.4250    9.7940    4.0810 N.ar   78  HIS78      -0.2267
     49  CD2       18.1980    8.4520    5.7900 C.ar   78  HIS78       0.1154
     50  CE1       19.3860   10.0890    4.9410 C.ar   78  HIS78       0.1986
     51  NE2       19.2680    9.2950    5.9900 N.ar   78  HIS78      -0.2212
     52  N         19.1340   14.6840    7.2920 N.3   190  THR190     -0.1203
     53  CA        20.4660   14.2960    7.7250 C.3   190  THR190      0.1994
     54  C         21.2810   15.5470    8.0410 C.2   190  THR190      0.2618
     55  O         20.9220   16.6520    7.6670 O.2   190  THR190     -0.2717
     56  CB        21.1490   13.4330    6.6450 C.3   190  THR190      0.1784
     57  OG1       22.3040   12.7730    7.1930 O.3   190  THR190     -0.2211
     58  CG2       21.5320   14.3060    5.4050 C.3   190  THR190      0.0376
     59  N         22.3850   15.3520    8.7580 N.am  191  PHE191     -0.1961
     60  CA        23.1760   16.4820    9.2120 C.3   191  PHE191      0.1771
     61  C         24.6340   16.1090    9.2270 C.2   191  PHE191      0.2620
     62  O         24.9810   14.9350    9.2660 O.2   191  PHE191     -0.2715
     63  CB        22.7260   16.9420   10.6120 C.3   191  PHE191      0.0574
     64  CG        22.8280   15.8700   11.6970 C.ar  191  PHE191     -0.0200
     65  CD1       21.7760   14.9860   11.9270 C.ar  191  PHE191     -0.0042
     66  CD2       23.9520   15.7920   12.5110 C.ar  191  PHE191     -0.0042
     67  CE1       21.8500   14.0150   12.9310 C.ar  191  PHE191     -0.0003
     68  CE2       24.0410   14.8130   13.5520 C.ar  191  PHE191     -0.0003
     69  CZ        22.9740   13.9350   13.7450 C.ar  191  PHE191     -0.0000
     70  N         25.4900   17.1340    9.1890 N.am  192  GLY192     -0.1954
     71  CA        26.9160   16.9100    9.3130 C.3   192  GLY192      0.1869
     72  C         27.5770   18.1400    9.8600 C.2   192  GLY192      0.2309
     73  O         27.0470   19.2380    9.7270 O.2   192  GLY192     -0.2863
     74  N         32.4340   17.3400    6.9670 N.3   197  ILE197     -0.1245
     75  CA        32.0770   17.4660    5.5550 C.3   197  ILE197      0.1561
     76  C         33.2780   17.9460    4.7560 C.2   197  ILE197      0.2260
     77  O         33.5240   17.4600    3.6580 O.2   197  ILE197     -0.2867
     78  CB        30.8790   18.4270    5.3650 C.3   197  ILE197      0.0252
     79  CG1       29.6270   17.8260    6.0050 C.3   197  ILE197      0.0019
     80  CG2       30.6180   18.6980    3.8800 C.3   197  ILE197      0.0019
     81  CD1       28.5090   18.8500    6.2470 C.3   197  ILE197      0.0001
     82  N         35.5090   14.9430    4.1100 N.3   200  LEU200     -0.1231
     83  CA        34.9340   14.1190    3.0520 C.3   200  LEU200      0.1693
     84  C         35.1920   14.7640    1.6950 C.2   200  LEU200      0.2591
     85  O         35.7150   14.1220    0.7870 O.2   200  LEU200     -0.2718
     86  CB        33.4360   13.9310    3.2710 C.3   200  LEU200      0.0284
     87  CG        33.0590   13.0970    4.5010 C.3   200  LEU200      0.0019
     88  CD1       31.5440   13.1760    4.7640 C.3   200  LEU200      0.0001
     89  CD2       33.5100   11.6810    4.2870 C.3   200  LEU200      0.0001
     90  N         34.8320   16.0380    1.5600 N.am  201  ARG201     -0.1980
     91  CA        34.9480   16.6980    0.2550 C.3   201  ARG201      0.1597
     92  C         36.3870   16.7660   -0.2340 C.2   201  ARG201      0.2287
     93  O         36.6460   16.7340   -1.4530 O.2   201  ARG201     -0.2864
     94  CB        34.3710   18.1100    0.3160 C.3   201  ARG201      0.0334
     95  CG        32.9280   18.1660    0.7030 C.3   201  ARG201      0.0492
     96  CD        32.0320   17.9280   -0.4580 C.3   201  ARG201      0.2205
     97  NE        32.0880   19.0560   -1.3760 N.pl3 201  ARG201     -0.0865
     98  CZ        31.2000   19.2710   -2.3320 C.cat 201  ARG201      0.5346
     99  NH1       31.3310   20.3280   -3.1150 N.pl3 201  ARG201      0.1354
    100  NH2       30.1810   18.4300   -2.4920 N.pl3 201  ARG201      0.1354
    101  N         31.2450   12.8010   -0.5980 N.3   206  ALA206     -0.1245
    102  CA        30.0920   13.6640   -0.3370 C.3   206  ALA206      0.1562
    103  C         29.8460   14.6170   -1.5060 C.2   206  ALA206      0.2260
    104  O         29.4800   15.7920   -1.3200 O.2   206  ALA206     -0.2867
    105  CB        30.2770   14.4500    0.9690 C.3   206  ALA206      0.0290
    106  N         26.5080   16.4460   -1.8000 N.3   209  GLY209     -0.1210
    107  CA        26.0560   17.2510   -0.6710 C.3   209  GLY209      0.1956
    108  C         25.8350   18.7090   -1.0250 C.2   209  GLY209      0.2613
    109  O         26.5330   19.2970   -1.8740 O.2   209  GLY209     -0.2717
    110  N         24.8380   19.3000   -0.3710 N.am  210  SER210     -0.1938
    111  CA        24.5630   20.7140   -0.5440 C.3   210  SER210      0.2055
    112  C         23.7830   21.2070    0.6680 C.2   210  SER210      0.2642
    113  O         23.2700   20.4130    1.4430 O.2   210  SER210     -0.2714
    114  CB        23.8000   20.9780   -1.8370 C.3   210  SER210      0.2130
    115  OG        22.4660   20.5570   -1.7270 O.3   210  SER210     -0.2179
    116  N         23.6880   22.5200    0.8470 N.am  211  VAL211     -0.1977
    117  CA        22.8680   23.0200    1.9510 C.3   211  VAL211      0.1596
    118  C         21.3870   22.7260    1.6690 C.2   211  VAL211      0.2287
    119  O         20.5380   22.8140    2.5630 O.2   211  VAL211     -0.2864
    120  CB        23.0730   24.5390    2.1830 C.3   211  VAL211      0.0276
    121  CG1       24.5430   24.8370    2.4580 C.3   211  VAL211      0.0022
    122  CG2       22.5780   25.3270    0.9850 C.3   211  VAL211      0.0022
    123  N         21.0460   18.7580    3.3250 N.3   214  ALA214     -0.1245
    124  CA        21.6340   18.4110    4.6110 C.3   214  ALA214      0.1562
    125  C         21.6090   19.6100    5.5460 C.2   214  ALA214      0.2260
    126  O         21.7410   20.7390    5.1070 O.2   214  ALA214     -0.2867
    127  CB        23.0790   17.9290    4.4320 C.3   214  ALA214      0.0290
    128  N         23.7540   21.6190    7.9370 N.3   216  VAL216     -0.1245
    129  CA        25.1760   21.8300    8.1780 C.3   216  VAL216      0.1561
    130  C         25.3190   22.5760    9.5000 C.2   216  VAL216      0.2260
    131  O         24.7130   23.6240    9.6900 O.2   216  VAL216     -0.2867
    132  CB        25.8060   22.6350    7.0380 C.3   216  VAL216      0.0252
    133  CG1       27.3080   22.8750    7.2980 C.3   216  VAL216      0.0019
    134  CG2       25.5510   21.9210    5.7040 C.3   216  VAL216      0.0019
    135  N         16.2690   12.6080   13.2680 N.3   237  HIS237     -0.1226
    136  CA        16.8770   11.9420   12.1310 C.3   237  HIS237      0.1752
    137  C         17.5680   10.6350   12.5420 C.2   237  HIS237      0.2595
    138  O         17.5460    9.6510   11.7940 O.2   237  HIS237     -0.2718
    139  CB        17.8870   12.8310   11.4030 C.3   237  HIS237      0.0759
    140  CG        18.3750   12.1850   10.1530 C.ar  237  HIS237      0.0818
    141  ND1       17.6530   12.2110    8.9750 N.ar  237  HIS237     -0.2268
    142  CD2       19.4300   11.3660    9.9330 C.ar  237  HIS237      0.1154
    143  CE1       18.2750   11.4810    8.0650 C.ar  237  HIS237      0.1986
    144  NE2       19.3500   10.9450    8.6240 N.ar  237  HIS237     -0.2212
    145  N         18.1640   10.6020   13.7300 N.am  238  LYS238     -0.1980
    146  CA        18.7680    9.3500   14.1820 C.3   238  LYS238      0.1596
    147  C         17.7000    8.2540   14.3300 C.2   238  LYS238      0.2287
    148  O         17.9500    7.0880   14.0190 O.2   238  LYS238     -0.2864
    149  CB        19.4860    9.5580   15.5090 C.3   238  LYS238      0.0298
    150  CG        20.6680   10.5470   15.4470 C.3   238  LYS238      0.0038
    151  CD        21.8710    9.9890   14.6540 C.3   238  LYS238      0.0206
    152  CE        22.5520    8.8070   15.3690 C.3   238  LYS238      0.1093
    153  NZ        23.7770    8.3630   14.6330 N.3   238  LYS238     -0.1314
    154  N         16.8270    7.0660   10.8100 N.3   241  ASP241     -0.1239
    155  CA        17.8590    6.1150   10.4020 C.3   241  ASP241      0.1674
    156  C         17.6390    4.7530   11.0340 C.2   241  ASP241      0.2266
    157  O         17.7800    3.7260   10.3660 O.2   241  ASP241     -0.2867
    158  CB        19.2610    6.5920   10.8040 C.3   241  ASP241      0.1410
    159  CG        19.8410    7.6540    9.8750 C.2   241  ASP241      0.3668
    160  OD1       19.3700    7.8530    8.7220 O.co2 241  ASP241     -0.2456
    161  OD2       20.8320    8.2730   10.3160 O.co2 241  ASP241     -0.2456
    162  N         24.8060    4.1510   15.5960 N.3   263  GLY263     -0.1210
    163  CA        24.6470    4.4150   14.1800 C.3   263  GLY263      0.1956
    164  C         24.4300    3.1400   13.3720 C.2   263  GLY263      0.2611
    165  O         24.0610    2.0970   13.9280 O.2   263  GLY263     -0.2717
    166  N         24.6880    3.2210   12.0690 N.am  264  HIS264     -0.1975
    167  CA        24.3620    2.1220   11.1580 C.3   264  HIS264      0.1656
    168  C         25.0870    0.8300   11.5050 C.2   264  HIS264      0.2291
    169  O         24.5290   -0.2620   11.3400 O.2   264  HIS264     -0.2864
    170  CB        24.7010    2.5160    9.7170 C.3   264  HIS264      0.0771
    171  CG        24.1130    3.8250    9.2990 C.ar  264  HIS264      0.0820
    172  ND1       22.7580    4.0780    9.3430 N.ar  264  HIS264     -0.2267
    173  CD2       24.6930    4.9400    8.7890 C.ar  264  HIS264      0.1154
    174  CE1       22.5320    5.3110    8.9150 C.ar  264  HIS264      0.1986
    175  NE2       23.6880    5.8470    8.5640 N.ar  264  HIS264     -0.2212
@<TRIPOS>BOND
     1    12    11    2
     2    99    98    1
     3    11    10    1
     4     1     2    1
     5   100    98    1
     6    98    97    2
     7   109   108    2
     8   114   115    1
     9   114   111    1
    10     4     3    2
    11   106   107    1
    12     3     9   am
    13     3     2    1
    14     9    10    1
    15     2     5    1
    16    10    13    1
    17   103   104    2
    18   103   102    1
    19    93    92    2
    20    97    96    1
    21    13    14    1
    22   108   107    1
    23   108   110   am
    24   101   102    1
    25   111   110    1
    26   111   112    1
    27    96    95    1
    28   102   105    1
    29     5     6    1
    30    92    91    1
    31    14    15   ar
    32    14    16   ar
    33    91    94    1
    34    91    90    1
    35    94    95    1
    36     7     6    1
    37   112   116   am
    38   112   113    2
    39    15    17   ar
    40    85    84    2
    41     6     8    1
    42   116   117    1
    43   122   120    1
    44    16    18   ar
    45    90    84   am
    46   118   117    1
    47   118   119    2
    48    84    83    1
    49   117   120    1
    50    17    18   ar
    51   120   121    1
    52    32    31    1
    53    83    86    1
    54    83    82    1
    55    86    87    1
    56   123   124    1
    57    44    45    2
    58    44    43    1
    59    77    76    2
    60    46    43    1
    61    46    47    1
    62    33    34    1
    63    80    78    1
    64    48    47   ar
    65    48    50   ar
    66    31    28    1
    67    89    87    1
    68    42    43    1
    69    42    35   am
    70   127   124    1
    71    87    88    1
    72    47    49   ar
    73   124   125    1
    74    40    39   ar
    75    76    75    1
    76    50    51   ar
    77    35    34    1
    78    35    36    2
    79    23    24    1
    80    23    20    1
    81    34    37    1
    82    24    25    1
    83   126   125    2
    84    29    30    2
    85    29    28    1
    86    28    27    1
    87    78    75    1
    88    78    79    1
    89    58    56    1
    90    39    41   ar
    91    39    38    1
    92    27    21   am
    93    26    25    1
    94    75    74    1
    95   134   132    1
    96    49    51   ar
    97    79    81    1
    98    38    37    1
    99    21    20    1
   100    21    22    2
   101    20    19    1
   102    56    57    1
   103    56    53    1
   104   132   133    1
   105   132   129    1
   106    52    53    1
   107    55    54    2
   108    53    54    1
   109   128   129    1
   110    54    59   am
   111   143   144   ar
   112   143   141   ar
   113   129   130    1
   114   175   173   ar
   115   175   174   ar
   116   144   142   ar
   117   160   159   ar
   118    59    60    1
   119   173   171   ar
   120   174   172   ar
   121   141   140   ar
   122    70    61   am
   123    70    71    1
   124    60    61    1
   125    60    63    1
   126    61    62    2
   127   171   172   ar
   128   171   170    1
   129    71    72    1
   130   130   131    2
   131   170   167    1
   132    73    72    2
   133   159   161   ar
   134   159   158    1
   135   142   140   ar
   136   140   139    1
   137   157   156    2
   138   155   158    1
   139   155   154    1
   140   155   156    1
   141    63    64    1
   142   167   168    1
   143   167   166    1
   144   169   168    2
   145   139   136    1
   146    64    65   ar
   147    64    66   ar
   148   138   137    2
   149    65    67   ar
   150   166   164   am
   151   136   137    1
   152   136   135    1
   153    66    68   ar
   154   137   145   am
   155    67    69   ar
   156   164   165    2
   157   164   163    1
   158    68    69   ar
   159   145   146    1
   160   148   147    2
   161   163   162    1
   162   146   147    1
   163   146   149    1
   164   153   152    1
   165   151   152    1
   166   151   150    1
   167   150   149    1
