@<TRIPOS>MOLECULE
tmp/5drrA00.pdb
 190 180 0 0 0
SMALL
GASTEIGER

@<TRIPOS>ATOM
      1  N        -24.3670   11.2500    2.4730 N.3    18  LEU18      -0.1231
      2  CA       -25.0600   12.0990    1.5090 C.3    18  LEU18       0.1693
      3  C        -26.5680   11.8900    1.5880 C.2    18  LEU18       0.2592
      4  O        -27.3410   12.8480    1.6130 O.2    18  LEU18      -0.2718
      5  CB       -24.5540   11.8120    0.0880 C.3    18  LEU18       0.0284
      6  CG       -25.4350   12.3700   -1.0280 C.3    18  LEU18       0.0019
      7  CD1      -25.4150   13.8910   -1.0010 C.3    18  LEU18       0.0001
      8  CD2      -24.9880   11.8340   -2.3770 C.3    18  LEU18       0.0001
      9  N        -26.9630   10.6240    1.6500 N.am   19  HIS19      -0.1976
     10  CA       -28.3730   10.2450    1.6470 C.3    19  HIS19       0.1656
     11  C        -29.0250   10.4510    3.0050 C.2    19  HIS19       0.2291
     12  O        -30.0620   11.0870    3.1030 O.2    19  HIS19      -0.2864
     13  CB       -28.5180    8.7870    1.2030 C.3    19  HIS19       0.0771
     14  CG       -28.0890    8.5570   -0.2100 C.ar   19  HIS19       0.0820
     15  ND1      -27.8120    7.3060   -0.7100 N.ar   19  HIS19      -0.2267
     16  CD2      -27.8850    9.4280   -1.2280 C.ar   19  HIS19       0.1154
     17  CE1      -27.4580    7.4140   -1.9800 C.ar   19  HIS19       0.1986
     18  NE2      -27.4930    8.6910   -2.3180 N.ar   19  HIS19      -0.2212
     19  N        -29.7590    5.1010   -6.8140 N.3    62  MET62      -0.1230
     20  CA       -29.0850    6.3350   -6.4200 C.3    62  MET62       0.1702
     21  C        -27.5790    6.1280   -6.3850 C.2    62  MET62       0.2593
     22  O        -26.8320    6.7710   -7.1200 O.2    62  MET62      -0.2718
     23  CB       -29.5850    6.8150   -5.0550 C.3    62  MET62       0.0401
     24  CG       -31.0400    7.2550   -5.0480 C.3    62  MET62       0.0596
     25  SD       -31.3560    8.6020   -6.2070 S.3    62  MET62      -0.1393
     26  CE       -30.2300    9.8510   -5.5840 C.3    62  MET62       0.0692
     27  N        -27.1420    5.2240   -5.5190 N.am   63  SER63      -0.1952
     28  CA       -25.7340    4.8690   -5.4190 C.3    63  SER63       0.1924
     29  C        -25.5970    3.3570   -5.4460 C.2    63  SER63       0.2314
     30  O        -26.5910    2.6440   -5.5570 O.2    63  SER63      -0.2863
     31  CB       -25.1180    5.4320   -4.1390 C.3    63  SER63       0.2116
     32  OG       -25.6390    4.7730   -2.9980 O.3    63  SER63      -0.2180
     33  N        -23.5900    3.8170   -0.7960 N.3    75  THR75      -0.1218
     34  CA       -22.6200    4.7260   -1.4180 C.3    75  THR75       0.1862
     35  C        -21.1610    4.2860   -1.2720 C.2    75  THR75       0.2287
     36  O        -20.3450    5.0000   -0.6940 O.2    75  THR75      -0.2866
     37  CB       -22.7780    6.1580   -0.8450 C.3    75  THR75       0.1770
     38  OG1      -24.1700    6.4630   -0.6690 O.3    75  THR75      -0.2211
     39  CG2      -22.1410    7.2100   -1.7520 C.3    75  THR75       0.0375
     40  N        -19.1450    3.5650   -3.8830 N.3    77  GLU77      -0.1231
     41  CA       -18.4310    3.6990   -5.1540 C.3    77  GLU77       0.1699
     42  C        -17.2360    4.6620   -5.1430 C.2    77  GLU77       0.2592
     43  O        -16.2390    4.4050   -5.8110 O.2    77  GLU77      -0.2718
     44  CB       -19.4080    4.1130   -6.2630 C.3    77  GLU77       0.0402
     45  CG       -20.1390    5.4230   -6.0230 C.3    77  GLU77       0.1161
     46  CD       -21.5220    5.2260   -5.4420 C.2    77  GLU77       0.3649
     47  OE1      -21.7560    4.1880   -4.7850 O.co2  77  GLU77      -0.2457
     48  OE2      -22.3770    6.1130   -5.6500 O.co2  77  GLU77      -0.2457
     49  N        -17.3170    5.7610   -4.4000 N.am   78  HIS78      -0.1976
     50  CA       -16.2130    6.7240   -4.4060 C.3    78  HIS78       0.1656
     51  C        -15.0070    6.1960   -3.6290 C.2    78  HIS78       0.2291
     52  O        -13.8630    6.3460   -4.0640 O.2    78  HIS78      -0.2864
     53  CB       -16.6670    8.0730   -3.8410 C.3    78  HIS78       0.0771
     54  CG       -17.7970    8.6900   -4.6060 C.ar   78  HIS78       0.0820
     55  ND1      -18.5500    9.7350   -4.1140 N.ar   78  HIS78      -0.2267
     56  CD2      -18.3060    8.4010   -5.8260 C.ar   78  HIS78       0.1154
     57  CE1      -19.4730   10.0640   -5.0000 C.ar   78  HIS78       0.1986
     58  NE2      -19.3480    9.2690   -6.0470 N.ar   78  HIS78      -0.2212
     59  N        -19.0820   14.6270   -7.3530 N.3   190  THR190     -0.1203
     60  CA       -20.4030   14.2180   -7.8040 C.3   190  THR190      0.1994
     61  C        -21.2050   15.4640   -8.1670 C.2   190  THR190      0.2618
     62  O        -20.8670   16.5750   -7.7480 O.2   190  THR190     -0.2717
     63  CB       -21.1480   13.4010   -6.7310 C.3   190  THR190      0.1784
     64  OG1      -22.3250   12.8170   -7.3020 O.3   190  THR190     -0.2211
     65  CG2      -21.5340   14.2890   -5.5520 C.3   190  THR190      0.0376
     66  N        -22.2540   15.2840   -8.9610 N.am  191  PHE191     -0.1961
     67  CA       -23.0610   16.4150   -9.3990 C.3   191  PHE191      0.1771
     68  C        -24.5380   16.0800   -9.3470 C.2   191  PHE191      0.2620
     69  O        -24.9240   14.9110   -9.3550 O.2   191  PHE191     -0.2715
     70  CB       -22.6670   16.8530  -10.8150 C.3   191  PHE191      0.0574
     71  CG       -22.8490   15.7820  -11.8660 C.ar  191  PHE191     -0.0200
     72  CD1      -21.8410   14.8620  -12.1260 C.ar  191  PHE191     -0.0042
     73  CD2      -24.0210   15.7090  -12.6060 C.ar  191  PHE191     -0.0042
     74  CE1      -22.0050   13.8830  -13.1000 C.ar  191  PHE191     -0.0003
     75  CE2      -24.1930   14.7330  -13.5750 C.ar  191  PHE191     -0.0003
     76  CZ       -23.1850   13.8210  -13.8230 C.ar  191  PHE191     -0.0000
     77  N        -25.3630   17.1160   -9.2880 N.am  192  GLY192     -0.1954
     78  CA       -26.7980   16.9360   -9.2670 C.3   192  GLY192      0.1869
     79  C        -27.5090   18.1030   -9.9130 C.2   192  GLY192      0.2309
     80  O        -27.0590   19.2490   -9.8260 O.2   192  GLY192     -0.2863
     81  N        -32.4100   17.3660   -7.0130 N.3   197  ILE197     -0.1245
     82  CA       -32.0220   17.5230   -5.6180 C.3   197  ILE197      0.1561
     83  C        -33.2000   18.0240   -4.7990 C.2   197  ILE197      0.2260
     84  O        -33.4450   17.5490   -3.6900 O.2   197  ILE197     -0.2867
     85  CB       -30.8310   18.4900   -5.4740 C.3   197  ILE197      0.0252
     86  CG1      -29.5810   17.8910   -6.1310 C.3   197  ILE197      0.0019
     87  CG2      -30.5740   18.8180   -4.0080 C.3   197  ILE197      0.0019
     88  CD1      -28.4760   18.8960   -6.3770 C.3   197  ILE197      0.0001
     89  N        -35.5310   15.1520   -4.1010 N.3   200  LEU200     -0.1231
     90  CA       -35.0030   14.3140   -3.0310 C.3   200  LEU200      0.1693
     91  C        -35.2070   14.9730   -1.6670 C.2   200  LEU200      0.2591
     92  O        -35.7370   14.3560   -0.7420 O.2   200  LEU200     -0.2718
     93  CB       -33.5200   14.0190   -3.2590 C.3   200  LEU200      0.0284
     94  CG       -33.1760   13.1440   -4.4670 C.3   200  LEU200      0.0019
     95  CD1      -31.6730   13.1170   -4.6950 C.3   200  LEU200      0.0001
     96  CD2      -33.7150   11.7360   -4.2760 C.3   200  LEU200      0.0001
     97  N        -34.8000   16.2320   -1.5470 N.am  201  ARG201     -0.1980
     98  CA       -34.9160   16.9410   -0.2760 C.3   201  ARG201      0.1597
     99  C        -36.3730   17.0810    0.1730 C.2   201  ARG201      0.2287
    100  O        -36.6580   17.0840    1.3690 O.2   201  ARG201     -0.2864
    101  CB       -34.2500   18.3170   -0.3680 C.3   201  ARG201      0.0334
    102  CG       -32.7390   18.2410   -0.5170 C.3   201  ARG201      0.0492
    103  CD       -32.0970   19.6160   -0.5550 C.3   201  ARG201      0.2205
    104  NE       -32.1920   20.3110    0.7260 N.pl3 201  ARG201     -0.0865
    105  CZ       -31.3910   20.0820    1.7630 C.cat 201  ARG201      0.5346
    106  NH1      -31.5520   20.7670    2.8840 N.pl3 201  ARG201      0.1354
    107  NH2      -30.4330   19.1660    1.6830 N.pl3 201  ARG201      0.1354
    108  N        -31.3580   12.9250    0.5410 N.3   206  ALA206     -0.1245
    109  CA       -30.1730   13.7210    0.2170 C.3   206  ALA206      0.1562
    110  C        -29.8850   14.7580    1.3020 C.2   206  ALA206      0.2260
    111  O        -29.4620   15.8780    1.0070 O.2   206  ALA206     -0.2867
    112  CB       -30.3390   14.4030   -1.1340 C.3   206  ALA206      0.0290
    113  N        -26.4230   16.4390    1.5030 N.3   209  GLY209     -0.1210
    114  CA       -25.9800   17.2150    0.3590 C.3   209  GLY209      0.1956
    115  C        -25.7860   18.6920    0.6530 C.2   209  GLY209      0.2613
    116  O        -26.5210   19.2890    1.4430 O.2   209  GLY209     -0.2717
    117  N        -24.7750   19.2720    0.0130 N.am  210  SER210     -0.1938
    118  CA       -24.4940   20.7010    0.1050 C.3   210  SER210      0.2055
    119  C        -23.5810   21.1000   -1.0450 C.2   210  SER210      0.2642
    120  O        -23.0940   20.2410   -1.7810 O.2   210  SER210     -0.2714
    121  CB       -23.8400   21.0500    1.4410 C.3   210  SER210      0.2130
    122  OG       -22.4710   20.6870    1.4390 O.3   210  SER210     -0.2179
    123  N        -23.3350   22.3970   -1.1990 N.am  211  VAL211     -0.1977
    124  CA       -22.4190   22.8580   -2.2400 C.3   211  VAL211      0.1596
    125  C        -20.9760   22.5190   -1.8730 C.2   211  VAL211      0.2287
    126  O        -20.0730   22.6130   -2.7080 O.2   211  VAL211     -0.2864
    127  CB       -22.5390   24.3740   -2.4890 C.3   211  VAL211      0.0276
    128  CG1      -23.8860   24.7020   -3.1110 C.3   211  VAL211      0.0022
    129  CG2      -22.3340   25.1440   -1.1990 C.3   211  VAL211      0.0022
    130  N        -20.9820   18.6720   -3.4430 N.3   214  ALA214     -0.1245
    131  CA       -21.5680   18.3660   -4.7480 C.3   214  ALA214      0.1562
    132  C        -21.5660   19.5750   -5.6780 C.2   214  ALA214      0.2260
    133  O        -21.7280   20.7160   -5.2420 O.2   214  ALA214     -0.2867
    134  CB       -22.9890   17.8430   -4.5850 C.3   214  ALA214      0.0290
    135  N        -23.6800   21.5850   -8.0460 N.3   216  VAL216     -0.1245
    136  CA       -25.0970   21.7910   -8.2870 C.3   216  VAL216      0.1561
    137  C        -25.2710   22.6160   -9.5530 C.2   216  VAL216      0.2260
    138  O        -24.7010   23.6990   -9.6730 O.2   216  VAL216     -0.2867
    139  CB       -25.7800   22.5100   -7.1040 C.3   216  VAL216      0.0252
    140  CG1      -27.2830   22.5920   -7.3230 C.3   216  VAL216      0.0019
    141  CG2      -25.4630   21.7980   -5.7960 C.3   216  VAL216      0.0019
    142  N        -23.9060   26.3050  -10.1670 N.3   223  LEU223     -0.1245
    143  CA       -24.2560   27.1720   -9.0450 C.3   223  LEU223      0.1561
    144  C        -23.1010   27.3820   -8.0680 C.2   223  LEU223      0.2260
    145  O        -23.0380   28.4090   -7.3910 O.2   223  LEU223     -0.2867
    146  CB       -25.4650   26.6080   -8.3050 C.3   223  LEU223      0.0270
    147  CG       -26.7170   26.4320   -9.1630 C.3   223  LEU223      0.0019
    148  CD1      -27.8670   25.9900   -8.2950 C.3   223  LEU223      0.0001
    149  CD2      -27.0620   27.7150   -9.8980 C.3   223  LEU223      0.0001
    150  N        -16.3040   12.4730  -13.3280 N.3   237  HIS237     -0.1226
    151  CA       -16.9050   11.8180  -12.1750 C.3   237  HIS237      0.1752
    152  C        -17.6090   10.5260  -12.5890 C.2   237  HIS237      0.2595
    153  O        -17.6150    9.5520  -11.8340 O.2   237  HIS237     -0.2718
    154  CB       -17.8960   12.7130  -11.4370 C.3   237  HIS237      0.0759
    155  CG       -18.4110   12.0840  -10.1810 C.ar  237  HIS237      0.0818
    156  ND1      -17.7350   12.1610   -8.9830 N.ar  237  HIS237     -0.2268
    157  CD2      -19.4910   11.2990   -9.9550 C.ar  237  HIS237      0.1154
    158  CE1      -18.3950   11.4770   -8.0640 C.ar  237  HIS237      0.1986
    159  NE2      -19.4650   10.9460   -8.6270 N.ar  237  HIS237     -0.2212
    160  N        -18.2010   10.5160  -13.7810 N.am  238  LYS238     -0.1980
    161  CA       -18.8480    9.3070  -14.2780 C.3   238  LYS238      0.1596
    162  C        -17.8000    8.2080  -14.4220 C.2   238  LYS238      0.2287
    163  O        -18.0600    7.0410  -14.1210 O.2   238  LYS238     -0.2864
    164  CB       -19.5550    9.5600  -15.6130 C.3   238  LYS238      0.0298
    165  CG       -20.7030   10.5640  -15.5430 C.3   238  LYS238      0.0038
    166  CD       -21.8680   10.0460  -14.7030 C.3   238  LYS238      0.0206
    167  CE       -22.5460    8.8520  -15.3560 C.3   238  LYS238      0.1093
    168  NZ       -23.7540    8.4080  -14.5990 N.3   238  LYS238     -0.1314
    169  N        -16.9710    7.0140  -10.9130 N.3   241  ASP241     -0.1239
    170  CA       -18.0240    6.0880  -10.4940 C.3   241  ASP241      0.1674
    171  C        -17.8250    4.6980  -11.0910 C.2   241  ASP241      0.2266
    172  O        -17.9600    3.6860  -10.3960 O.2   241  ASP241     -0.2867
    173  CB       -19.4060    6.6080  -10.8970 C.3   241  ASP241      0.1410
    174  CG       -19.9550    7.6420   -9.9360 C.2   241  ASP241      0.3668
    175  OD1      -19.4220    7.7680   -8.8090 O.co2 241  ASP241     -0.2456
    176  OD2      -20.9390    8.3160  -10.3150 O.co2 241  ASP241     -0.2456
    177  N        -25.1070    4.2800  -15.5600 N.3   263  GLY263     -0.1210
    178  CA       -24.9100    4.5270  -14.1450 C.3   263  GLY263      0.1956
    179  C        -24.6170    3.2500  -13.3800 C.2   263  GLY263      0.2611
    180  O        -24.1410    2.2660  -13.9490 O.2   263  GLY263     -0.2717
    181  N        -24.9170    3.2610  -12.0860 N.am  264  HIS264     -0.1975
    182  CA       -24.5630    2.1550  -11.2010 C.3   264  HIS264      0.1656
    183  C        -25.2890    0.8540  -11.5300 C.2   264  HIS264      0.2291
    184  O        -24.7230   -0.2320  -11.3820 O.2   264  HIS264     -0.2864
    185  CB       -24.8430    2.5430   -9.7520 C.3   264  HIS264      0.0771
    186  CG       -24.1950    3.8270   -9.3460 C.ar  264  HIS264      0.0820
    187  ND1      -22.8290    4.0040   -9.3580 N.ar  264  HIS264     -0.2267
    188  CD2      -24.7260    5.0030   -8.9310 C.ar  264  HIS264      0.1154
    189  CE1      -22.5440    5.2330   -8.9620 C.ar  264  HIS264      0.1986
    190  NE2      -23.6780    5.8590   -8.6980 N.ar  264  HIS264     -0.2212
@<TRIPOS>BOND
     1   164   165    1
     2   164   161    1
     3   177   178    1
     4   165   166    1
     5   167   166    1
     6   167   168    1
     7   162   161    1
     8   162   163    2
     9   161   160    1
    10   178   179    1
    11   180   179    2
    12    76    75   ar
    13    76    74   ar
    14   160   152   am
    15    75    73   ar
    16   179   181   am
    17   150   151    1
    18    74    72   ar
    19    73    71   ar
    20   152   151    1
    21   152   153    2
    22   151   154    1
    23    72    71   ar
    24   181   182    1
    25    71    70    1
    26   183   184    2
    27   183   182    1
    28   154   155    1
    29   182   185    1
    30   171   170    1
    31   171   172    2
    32   169   170    1
    33   173   170    1
    34   173   174    1
    35    70    67    1
    36   176   174   ar
    37   155   157   ar
    38   155   156   ar
    39   142   143    1
    40   157   159   ar
    41   174   175   ar
    42    79    80    2
    43    79    78    1
    44   149   147    1
    45   185   186    1
    46   138   137    2
    47   137   136    1
    48    67    68    1
    49    67    66    1
    50   187   186   ar
    51   187   189   ar
    52    69    68    2
    53    68    77   am
    54   186   188   ar
    55    77    78    1
    56   147   146    1
    57   147   148    1
    58   143   146    1
    59   143   144    1
    60   156   158   ar
    61   189   190   ar
    62    66    61   am
    63   188   190   ar
    64   159   158   ar
    65   136   135    1
    66   136   139    1
    67    61    60    1
    68    61    62    2
    69   144   145    2
    70    60    59    1
    71    60    63    1
    72   140   139    1
    73    64    63    1
    74    22    21    2
    75   139   141    1
    76    81    82    1
    77    19    20    1
    78    63    65    1
    79    20    21    1
    80    20    23    1
    81    21    27   am
    82    88    86    1
    83    44    45    1
    84    44    41    1
    85    25    26    1
    86    25    24    1
    87    86    85    1
    88    58    56   ar
    89    58    57   ar
    90    45    46    1
    91    56    54   ar
    92    43    42    2
    93   132   133    2
    94   132   131    1
    95    48    46   ar
    96    82    85    1
    97    82    83    1
    98    30    29    2
    99    27    28    1
   100    85    87    1
   101    29    28    1
   102    46    47   ar
   103    28    31    1
   104    41    42    1
   105    41    40    1
   106    42    49   am
   107    23    24    1
   108    57    55   ar
   109    83    84    2
   110   131   134    1
   111   131   130    1
   112    95    94    1
   113    54    55   ar
   114    54    53    1
   115    94    96    1
   116    94    93    1
   117    50    49    1
   118    50    53    1
   119    50    51    1
   120    31    32    1
   121    89    90    1
   122    52    51    2
   123    93    90    1
   124   128   127    1
   125    90    91    1
   126   126   125    2
   127   127   124    1
   128   127   129    1
   129     8     6    1
   130    18    17   ar
   131    18    16   ar
   132   124   125    1
   133   124   123    1
   134    17    15   ar
   135   120   119    2
   136    39    37    1
   137    91    97   am
   138    91    92    2
   139    97    98    1
   140    34    35    1
   141    34    37    1
   142    34    33    1
   143    35    36    2
   144    16    14   ar
   145   123   119   am
   146   112   109    1
   147   119   118    1
   148     6     7    1
   149     6     5    1
   150    37    38    1
   151    15    14   ar
   152   103   102    1
   153   103   104    1
   154   102   101    1
   155   101    98    1
   156    98    99    1
   157    14    13    1
   158   117   118    1
   159   117   115   am
   160     5     2    1
   161   118   121    1
   162    99   100    2
   163   109   108    1
   164   109   110    1
   165   114   115    1
   166   114   113    1
   167   115   116    2
   168   104   105    2
   169   111   110    2
   170    13    10    1
   171   122   121    1
   172     2     3    1
   173     2     1    1
   174     3     4    2
   175     3     9   am
   176    10     9    1
   177    10    11    1
   178   107   105    1
   179   105   106    1
   180    11    12    2
