@<TRIPOS>MOLECULE
tmp/5drtA00.pdb
 167 161 0 0 0
SMALL
GASTEIGER

@<TRIPOS>ATOM
      1  N        -34.0190   14.3410   18.2680 N.3   115  PHE115     -0.1227
      2  CA       -35.1490   14.6620   17.3940 C.3   115  PHE115      0.1736
      3  C        -36.4560   13.9490   17.8660 C.2   115  PHE115      0.2596
      4  O        -36.9770   13.0500   17.1970 O.2   115  PHE115     -0.2718
      5  CB       -34.7860   14.3600   15.9290 C.3   115  PHE115      0.0547
      6  CG       -33.6820   15.2410   15.3170 C.ar  115  PHE115     -0.0202
      7  CD1      -33.4190   16.4840   15.8520 C.ar  115  PHE115     -0.0042
      8  CD2      -33.0070   14.7740   14.1930 C.ar  115  PHE115     -0.0042
      9  CE1      -32.4550   17.2550   15.2350 C.ar  115  PHE115     -0.0003
     10  CE2      -32.0510   15.5540   13.5870 C.ar  115  PHE115     -0.0003
     11  CZ       -31.7880   16.8020   14.1260 C.ar  115  PHE115     -0.0000
     12  N        -36.9740   14.3980   19.0330 N.am  116  SER116     -0.1938
     13  CA       -38.1450   13.9020   19.7680 C.3   116  SER116      0.2040
     14  C        -39.4790   13.8630   18.9630 C.2   116  SER116      0.2485
     15  O        -39.6160   14.6010   17.9820 O.2   116  SER116     -0.2729
     16  CB       -38.3210   14.7020   21.0580 C.3   116  SER116      0.2129
     17  OG       -38.4820   16.0880   20.8170 O.3   116  SER116     -0.2179
     18  N        -40.4740   13.0180   19.3720 N.am  117  PRO117     -0.2726
     19  CA       -41.7550   12.9530   18.6350 C.3   117  PRO117      0.1402
     20  C        -42.5380   14.2570   18.5120 C.2   117  PRO117      0.2269
     21  O        -43.2890   14.4220   17.5440 O.2   117  PRO117     -0.2865
     22  CB       -42.5550   11.9010   19.4070 C.3   117  PRO117      0.0296
     23  CG       -41.5500   11.1000   20.1300 C.3   117  PRO117      0.0237
     24  CD       -40.4700   12.0570   20.4940 C.3   117  PRO117      0.0939
     25  N        -41.5550   16.1010   15.3610 N.3   120  TYR120     -0.1241
     26  CA       -41.5580   15.2710   14.1520 C.3   120  TYR120      0.1605
     27  C        -41.9970   16.0320   12.8870 C.2   120  TYR120      0.2264
     28  O        -41.3420   15.9240   11.8460 O.2   120  TYR120     -0.2867
     29  CB       -42.3620   13.9760   14.3400 C.3   120  TYR120      0.0534
     30  CG       -42.3110   13.0560   13.1360 C.ar  120  TYR120     -0.0201
     31  CD1      -43.2240   13.1890   12.0930 C.ar  120  TYR120     -0.0009
     32  CD2      -41.3660   12.0360   13.0490 C.ar  120  TYR120     -0.0009
     33  CE1      -43.1750   12.3610   10.9780 C.ar  120  TYR120      0.0417
     34  CE2      -41.3110   11.1970   11.9380 C.ar  120  TYR120      0.0417
     35  CZ       -42.2260   11.3600   10.9120 C.ar  120  TYR120      0.1957
     36  OH       -42.2380   10.5260    9.8360 O.3   120  TYR120     -0.2866
     37  N        -38.1940   16.1220   11.1500 N.3   124  SER124     -0.1217
     38  CA       -38.1270   14.7670   10.6150 C.3   124  SER124      0.1889
     39  C        -39.0490   14.4980    9.4180 C.2   124  SER124      0.2288
     40  O        -38.6540   13.7710    8.5040 O.2   124  SER124     -0.2866
     41  CB       -38.4140   13.7580   11.7240 C.3   124  SER124      0.2089
     42  OG       -37.8770   14.1550   12.9760 O.3   124  SER124     -0.2183
     43  N        -37.5000   15.1410    5.9510 N.3   127  LEU127     -0.1231
     44  CA       -36.4300   14.2000    5.6080 C.3   127  LEU127      0.1693
     45  C        -37.0350   12.8740    5.1960 C.2   127  LEU127      0.2591
     46  O        -36.6350   12.3440    4.1640 O.2   127  LEU127     -0.2718
     47  CB       -35.3850   13.9920    6.7270 C.3   127  LEU127      0.0284
     48  CG       -34.2400   12.9560    6.3690 C.3   127  LEU127      0.0019
     49  CD1      -33.3390   13.4420    5.2140 C.3   127  LEU127      0.0001
     50  CD2      -33.4490   12.4600    7.6160 C.3   127  LEU127      0.0001
     51  N        -38.0060   12.3470    5.9890 N.am  128  VAL128     -0.1980
     52  CA       -38.7160   11.0910    5.7190 C.3   128  VAL128      0.1595
     53  C        -39.4330   11.1510    4.3520 C.2   128  VAL128      0.2287
     54  O        -39.4130   10.1720    3.6160 O.2   128  VAL128     -0.2864
     55  CB       -39.6660   10.6810    6.8860 C.3   128  VAL128      0.0276
     56  CG1      -40.4640    9.4120    6.5540 C.3   128  VAL128      0.0022
     57  CG2      -38.8980   10.5110    8.1940 C.3   128  VAL128      0.0022
     58  N        -36.8410   10.6840    1.7980 N.3   131  MET131     -0.1245
     59  CA       -36.4570    9.2530    1.7960 C.3   131  MET131      0.1570
     60  C        -37.4470    8.4220    0.9870 C.2   131  MET131      0.2261
     61  O        -37.0290    7.5820    0.1960 O.2   131  MET131     -0.2867
     62  CB       -36.3570    8.6830    3.2240 C.3   131  MET131      0.0387
     63  CG       -35.2860    9.3330    4.0990 C.3   131  MET131      0.0595
     64  SD       -35.0280    8.3320    5.6010 S.3   131  MET131     -0.1393
     65  CE       -35.4660    9.4340    6.8030 C.3   131  MET131      0.0692
     66  N        -39.6160   -0.6790   10.1220 N.3   145  ASP145     -0.1239
     67  CA       -38.9180    0.3840   10.8480 C.3   145  ASP145      0.1674
     68  C        -38.5370   -0.2370   12.2170 C.2   145  ASP145      0.2266
     69  O        -39.4200   -0.5380   13.0370 O.2   145  ASP145     -0.2867
     70  CB       -39.8120    1.6320   11.0160 C.3   145  ASP145      0.1410
     71  CG       -39.1650    2.7900   11.7500 C.2   145  ASP145      0.3668
     72  OD1      -37.9460    3.0310   11.5410 O.co2 145  ASP145     -0.2456
     73  OD2      -39.8840    3.5030   12.4720 O.co2 145  ASP145     -0.2456
     74  N        -37.2800   -0.1660   15.7530 N.3   147  GLY147     -0.1210
     75  CA       -37.2660    0.8260   16.8230 C.3   147  GLY147      0.1956
     76  C        -38.1190    2.0000   16.3690 C.2   147  GLY147      0.2613
     77  O        -37.6180    3.0990   16.1070 O.2   147  GLY147     -0.2717
     78  N        -39.4050    1.7340   16.1910 N.am  148  SER148     -0.1938
     79  CA       -40.3630    2.6520   15.6220 C.3   148  SER148      0.2055
     80  C        -40.9330    3.7330   16.5630 C.2   148  SER148      0.2644
     81  O        -41.6290    4.6390   16.0770 O.2   148  SER148     -0.2714
     82  CB       -41.4960    1.8620   14.9860 C.3   148  SER148      0.2130
     83  OG       -41.9560    0.8560   15.8710 O.3   148  SER148     -0.2179
     84  N        -40.6090    3.6540   17.8640 N.am  149  GLY149     -0.1939
     85  CA       -41.0840    4.5970   18.8770 C.3   149  GLY149      0.2014
     86  C        -42.5960    4.6740   18.9190 C.2   149  GLY149      0.2638
     87  O        -43.2620    3.6310   18.9550 O.2   149  GLY149     -0.2714
     88  N        -43.1500    5.9090   18.8130 N.am  150  VAL150     -0.1977
     89  CA       -44.6080    6.1490   18.8000 C.3   150  VAL150      0.1596
     90  C        -45.2230    5.7600   17.4120 C.2   150  VAL150      0.2287
     91  O        -46.4460    5.6210   17.2910 O.2   150  VAL150     -0.2864
     92  CB       -45.0470    7.5580   19.3080 C.3   150  VAL150      0.0276
     93  CG1      -44.6810    7.7460   20.7750 C.3   150  VAL150      0.0022
     94  CG2      -44.4800    8.6910   18.4600 C.3   150  VAL150      0.0022
     95  N        -44.5780    7.2550   14.0920 N.3   152  GLN152     -0.1231
     96  CA       -44.8230    8.2630   13.0480 C.3   152  GLN152      0.1698
     97  C        -44.1490    7.9920   11.6900 C.2   152  GLN152      0.2592
     98  O        -44.7280    8.3630   10.6760 O.2   152  GLN152     -0.2718
     99  CB       -44.4820    9.6710   13.5420 C.3   152  GLN152      0.0381
    100  CG       -45.4540   10.1400   14.6080 C.3   152  GLN152      0.0905
    101  CD       -45.2520   11.5650   15.0530 C.2   152  GLN152      0.2608
    102  OE1      -46.0020   12.4860   14.6550 O.2   152  GLN152     -0.2717
    103  NE2      -44.3030   11.7480   15.9820 N.am  152  GLN152     -0.0878
    104  N        -42.9650    7.3420   11.6540 N.am  153  VAL153     -0.1980
    105  CA       -42.2880    7.0460   10.3880 C.3   153  VAL153      0.1595
    106  C        -43.1020    6.0000    9.6270 C.2   153  VAL153      0.2287
    107  O        -43.3130    6.1510    8.4290 O.2   153  VAL153     -0.2864
    108  CB       -40.7940    6.6450   10.5650 C.3   153  VAL153      0.0276
    109  CG1      -40.2100    6.0710    9.2730 C.3   153  VAL153      0.0022
    110  CG2      -39.9510    7.8260   11.0420 C.3   153  VAL153      0.0022
    111  N        -35.8140    0.4180    7.6190 N.3   223  PHE223     -0.1227
    112  CA       -35.4770    1.7940    8.0250 C.3   223  PHE223      0.1736
    113  C        -35.0140    1.6430    9.4750 C.2   223  PHE223      0.2595
    114  O        -35.7210    1.0150   10.2690 O.2   223  PHE223     -0.2718
    115  CB       -36.6840    2.7660    7.9360 C.3   223  PHE223      0.0547
    116  CG       -36.9230    3.5180    6.6460 C.ar  223  PHE223     -0.0202
    117  CD1      -36.5060    2.9930    5.4210 C.ar  223  PHE223     -0.0042
    118  CD2      -37.6600    4.7010    6.6390 C.ar  223  PHE223     -0.0042
    119  CE1      -36.7690    3.6710    4.2160 C.ar  223  PHE223     -0.0003
    120  CE2      -37.9560    5.3630    5.4320 C.ar  223  PHE223     -0.0003
    121  CZ       -37.5100    4.8380    4.2290 C.ar  223  PHE223     -0.0000
    122  N        -33.8210    2.1340    9.8100 N.am  224  VAL224     -0.1966
    123  CA       -33.3240    1.9770   11.1690 C.3   224  VAL224      0.1727
    124  C        -32.5250    3.1850   11.6150 C.2   224  VAL224      0.2616
    125  O        -31.5050    3.5180   11.0150 O.2   224  VAL224     -0.2715
    126  CB       -32.5530    0.6220   11.3880 C.3   224  VAL224      0.0290
    127  CG1      -31.3930    0.4140   10.3960 C.3   224  VAL224      0.0023
    128  CG2      -32.1020    0.4380   12.8350 C.3   224  VAL224      0.0023
    129  N        -32.9750    3.8280   12.6930 N.am  225  ASN225     -0.1972
    130  CA       -32.1910    4.9080   13.2840 C.3   225  ASN225      0.1688
    131  C        -31.2070    4.2450   14.2520 C.2   225  ASN225      0.2292
    132  O        -31.5310    3.9940   15.4180 O.2   225  ASN225     -0.2864
    133  CB       -33.0620    5.9180   13.9940 C.3   225  ASN225      0.1181
    134  CG       -32.3040    7.0670   14.5910 C.2   225  ASN225      0.2629
    135  OD1      -31.0690    7.1410   14.5680 O.2   225  ASN225     -0.2716
    136  ND2      -33.0410    8.0000   15.1370 N.am  225  ASN225     -0.0877
    137  N        -32.0010    1.5620    5.1310 N.3   251  VAL251     -0.1231
    138  CA       -31.8550    3.0180    5.1630 C.3   251  VAL251      0.1692
    139  C        -31.6570    3.3890    6.6390 C.2   251  VAL251      0.2593
    140  O        -32.5230    3.0990    7.4760 O.2   251  VAL251     -0.2718
    141  CB       -33.0540    3.7380    4.4930 C.3   251  VAL251      0.0266
    142  CG1      -32.8620    5.2580    4.4680 C.3   251  VAL251      0.0020
    143  CG2      -33.2960    3.2080    3.0790 C.3   251  VAL251      0.0020
    144  N        -30.4630    3.9390    6.9650 N.am  252  SER252     -0.1938
    145  CA       -30.0630    4.2430    8.3270 C.3   252  SER252      0.2055
    146  C        -29.4970    5.6250    8.5260 C.2   252  SER252      0.2643
    147  O        -29.2640    6.3590    7.5690 O.2   252  SER252     -0.2714
    148  CB       -29.0800    3.1910    8.8210 C.3   252  SER252      0.2130
    149  OG       -27.8710    3.2250    8.0900 O.3   252  SER252     -0.2179
    150  N        -29.3130    5.9990    9.7960 N.am  253  SER253     -0.1949
    151  CA       -28.7660    7.2920   10.2280 C.3   253  SER253      0.1924
    152  C        -27.2180    7.3020   10.2770 C.2   253  SER253      0.2314
    153  O        -26.6060    8.3580   10.0960 O.2   253  SER253     -0.2863
    154  CB       -29.3980    7.7340   11.5450 C.3   253  SER253      0.2116
    155  OG       -29.3670    6.7130   12.5260 O.3   253  SER253     -0.2180
    156  N        -28.4590   10.4500    5.0770 N.3   294  TYR294     -0.1241
    157  CA       -28.9350    9.1300    5.4280 C.3   294  TYR294      0.1605
    158  C        -28.1560    8.1820    4.5290 C.2   294  TYR294      0.2264
    159  O        -27.5130    8.6340    3.5590 O.2   294  TYR294     -0.2867
    160  CB       -30.4690    8.9790    5.3760 C.3   294  TYR294      0.0534
    161  CG       -31.1120    9.3280    4.0520 C.ar  294  TYR294     -0.0201
    162  CD1      -31.4400   10.6440    3.7370 C.ar  294  TYR294     -0.0009
    163  CD2      -31.4230    8.3410    3.1270 C.ar  294  TYR294     -0.0009
    164  CE1      -32.0630   10.9680    2.5270 C.ar  294  TYR294      0.0417
    165  CE2      -32.0630    8.6480    1.9210 C.ar  294  TYR294      0.0417
    166  CZ       -32.3730    9.9660    1.6190 C.ar  294  TYR294      0.1957
    167  OH       -32.9570   10.2790    0.4070 O.3   294  TYR294     -0.2866
@<TRIPOS>BOND
     1    61    60    2
     2   167   166    1
     3    60    59    1
     4   166   165   ar
     5   166   164   ar
     6    59    58    1
     7    59    62    1
     8   165   163   ar
     9   164   162   ar
    10   143   141    1
    11   163   161   ar
    12    62    63    1
    13   159   158    2
    14    54    53    2
    15   162   161   ar
    16   161   160    1
    17    63    64    1
    18    46    45    2
    19   119   121   ar
    20   119   117   ar
    21   121   120   ar
    22    53    52    1
    23   142   141    1
    24   141   138    1
    25   158   157    1
    26   156   157    1
    27   137   138    1
    28   138   139    1
    29    45    44    1
    30    45    51   am
    31    49    48    1
    32   160   157    1
    33   117   116   ar
    34   120   118   ar
    35    64    65    1
    36    44    43    1
    37    44    47    1
    38    52    51    1
    39    52    55    1
    40    48    47    1
    41    48    50    1
    42    56    55    1
    43   139   144   am
    44   139   140    2
    45   118   116   ar
    46   116   115    1
    47    55    57    1
    48   144   145    1
    49   147   146    2
    50   111   112    1
    51   115   112    1
    52   112   113    1
    53   149   148    1
    54   145   146    1
    55   145   148    1
    56   107   106    2
    57    40    39    2
    58   146   150   am
    59   109   108    1
    60    39    38    1
    61   113   122   am
    62   113   114    2
    63   106   105    1
    64   150   151    1
    65   122   123    1
    66    36    35    1
    67   153   152    2
    68    66    67    1
    69   151   152    1
    70   151   154    1
    71   105   108    1
    72   105   104    1
    73   127   126    1
    74   108   110    1
    75    38    37    1
    76    38    41    1
    77    98    97    2
    78    67    70    1
    79    67    68    1
    80    35    33   ar
    81    35    34   ar
    82    33    31   ar
    83   125   124    2
    84    70    71    1
    85   123   126    1
    86   123   124    1
    87   126   128    1
    88    72    71   ar
    89   154   155    1
    90   124   129   am
    91   104    97   am
    92    97    96    1
    93    41    42    1
    94    71    73   ar
    95    28    27    2
    96    34    32   ar
    97    31    30   ar
    98    68    69    2
    99   129   130    1
   100    27    26    1
   101    96    99    1
   102    96    95    1
   103    32    30   ar
   104    30    29    1
   105   130   133    1
   106   130   131    1
   107    99   100    1
   108    10    11   ar
   109    10     8   ar
   110   133   134    1
   111    11     9   ar
   112    26    29    1
   113    26    25    1
   114     8     6   ar
   115   131   132    2
   116   135   134    2
   117   134   136   am
   118   100   101    1
   119   102   101    2
   120    82    79    1
   121    82    83    1
   122   101   103   am
   123     9     7   ar
   124     6     7   ar
   125     6     5    1
   126    79    78    1
   127    79    80    1
   128    74    75    1
   129     5     2    1
   130    81    80    2
   131    77    76    2
   132    78    76   am
   133    76    75    1
   134    80    84   am
   135     4     3    2
   136    91    90    2
   137     2     3    1
   138     2     1    1
   139    90    89    1
   140    21    20    2
   141    84    85    1
   142     3    12   am
   143    15    14    2
   144    94    92    1
   145    20    19    1
   146    19    18    1
   147    19    22    1
   148    89    88    1
   149    89    92    1
   150    88    86   am
   151    85    86    1
   152    86    87    2
   153    14    18   am
   154    14    13    1
   155    12    13    1
   156    92    93    1
   157    18    24    1
   158    22    23    1
   159    13    16    1
   160    23    24    1
   161    17    16    1
