@<TRIPOS>MOLECULE
tmp/5drvA00.pdb
 162 159 0 0 0
SMALL
GASTEIGER

@<TRIPOS>ATOM
      1  N         20.7740   35.3950   15.6310 N.3     8  PRO8       -0.2116
      2  CA        19.9830   34.2990   16.1980 C.3     8  PRO8        0.1372
      3  C         20.2910   32.9760   15.5050 C.2     8  PRO8        0.2244
      4  O         20.6210   32.9760   14.3200 O.2     8  PRO8       -0.2868
      5  CB        18.5340   34.7290   15.9320 C.3     8  PRO8        0.0268
      6  CG        18.6020   36.1980   15.6610 C.3     8  PRO8        0.0207
      7  CD        19.9230   36.4160   14.9990 C.3     8  PRO8        0.0892
      8  N         16.4620   27.7520   15.3270 N.3    12  LEU12      -0.1231
      9  CA        15.3950   28.1990   16.2160 C.3    12  LEU12       0.1693
     10  C         14.4660   29.1650   15.4890 C.2    12  LEU12       0.2591
     11  O         13.2670   29.2120   15.7650 O.2    12  LEU12      -0.2718
     12  CB        15.9720   28.8430   17.4860 C.3    12  LEU12       0.0284
     13  CG        16.4300   30.3060   17.5520 C.3    12  LEU12       0.0019
     14  CD1       15.2790   31.2550   17.8730 C.3    12  LEU12       0.0001
     15  CD2       17.5350   30.4610   18.5850 C.3    12  LEU12       0.0001
     16  N         15.0250   29.9370   14.5630 N.am   13  VAL13      -0.1980
     17  CA        14.2380   30.8730   13.7700 C.3    13  VAL13       0.1595
     18  C         13.2840   30.1120   12.8560 C.2    13  VAL13       0.2287
     19  O         12.1260   30.4970   12.6880 O.2    13  VAL13      -0.2864
     20  CB        15.1380   31.7990   12.9260 C.3    13  VAL13       0.0276
     21  CG1       14.2960   32.7030   12.0380 C.3    13  VAL13       0.0022
     22  CG2       16.0400   32.6250   13.8270 C.3    13  VAL13       0.0022
     23  N         10.4830   28.1740   15.0380 N.3    16  GLU16      -0.1231
     24  CA         9.5340   29.1220   15.6090 C.3    16  GLU16       0.1699
     25  C          8.6260   29.6980   14.5270 C.2    16  GLU16       0.2592
     26  O          7.4460   29.9570   14.7670 O.2    16  GLU16      -0.2718
     27  CB        10.2700   30.2480   16.3420 C.3    16  GLU16       0.0402
     28  CG         9.3530   31.2760   16.9910 C.3    16  GLU16       0.1161
     29  CD         8.4060   30.6620   18.0070 C.2    16  GLU16       0.3649
     30  OE1        8.7920   29.6720   18.6650 O.co2  16  GLU16      -0.2457
     31  OE2        7.2720   31.1690   18.1450 O.co2  16  GLU16      -0.2457
     32  N          9.1810   29.8910   13.3360 N.am   17  PHE17      -0.1976
     33  CA         8.4070   30.3900   12.2050 C.3    17  PHE17       0.1639
     34  C          7.3610   29.3750   11.7580 C.2    17  PHE17       0.2290
     35  O          6.1930   29.7170   11.5740 O.2    17  PHE17      -0.2864
     36  CB         9.3260   30.7390   11.0330 C.3    17  PHE17       0.0560
     37  CG         8.6000   30.9110    9.7320 C.ar   17  PHE17      -0.0200
     38  CD1        7.8410   32.0440    9.4930 C.ar   17  PHE17      -0.0042
     39  CD2        8.6710   29.9360    8.7490 C.ar   17  PHE17      -0.0042
     40  CE1        7.1670   32.2030    8.2990 C.ar   17  PHE17      -0.0003
     41  CE2        8.0000   30.0890    7.5530 C.ar   17  PHE17      -0.0003
     42  CZ         7.2480   31.2240    7.3280 C.ar   17  PHE17      -0.0000
     43  N          4.4310   29.2160   14.0760 N.3    20  GLN20      -0.1245
     44  CA         3.4980   30.3320   13.9620 C.3    20  GLN20       0.1566
     45  C          2.7830   30.3400   12.6120 C.2    20  GLN20       0.2260
     46  O          1.6230   30.7430   12.5160 O.2    20  GLN20      -0.2867
     47  CB         4.2300   31.6600   14.1750 C.3    20  GLN20       0.0367
     48  CG         3.3300   32.8850   14.1240 C.3    20  GLN20       0.0905
     49  CD         4.0800   34.1740   14.3950 C.2    20  GLN20       0.2608
     50  OE1        5.2180   34.1560   14.8650 O.2    20  GLN20      -0.2717
     51  NE2        3.4450   35.3020   14.0980 N.am   20  GLN20      -0.0878
     52  N         -1.3460   30.1280   12.3330 N.3    24  LEU24      -0.1245
     53  CA        -2.1290   31.2010   11.7350 C.3    24  LEU24       0.1561
     54  C         -2.9560   30.6790   10.5650 C.2    24  LEU24       0.2260
     55  O         -4.0410   31.1880   10.2800 O.2    24  LEU24      -0.2867
     56  CB        -1.2140   32.3380   11.2750 C.3    24  LEU24       0.0270
     57  CG        -1.8920   33.5690   10.6710 C.3    24  LEU24       0.0019
     58  CD1       -2.8580   34.1900   11.6680 C.3    24  LEU24       0.0001
     59  CD2       -0.8550   34.5860   10.2190 C.3    24  LEU24       0.0001
     60  N         -4.9520   36.5070    7.1060 N.3    31  TYR31      -0.1241
     61  CA        -3.8730   37.3600    7.5920 C.3    31  TYR31       0.1605
     62  C         -2.5090   36.7690    7.2500 C.2    31  TYR31       0.2264
     63  O         -1.4740   37.2930    7.6600 O.2    31  TYR31      -0.2867
     64  CB        -3.9880   37.5660    9.1050 C.3    31  TYR31       0.0534
     65  CG        -5.2470   38.2810    9.5430 C.ar   31  TYR31      -0.0201
     66  CD1       -5.9110   39.1510    8.6880 C.ar   31  TYR31      -0.0009
     67  CD2       -5.7690   38.0860   10.8150 C.ar   31  TYR31      -0.0009
     68  CE1       -7.0620   39.8060    9.0880 C.ar   31  TYR31       0.0417
     69  CE2       -6.9190   38.7360   11.2240 C.ar   31  TYR31       0.0417
     70  CZ        -7.5610   39.5950   10.3560 C.ar   31  TYR31       0.1957
     71  OH        -8.7050   40.2430   10.7600 O.3    31  TYR31      -0.2866
     72  N          0.5300   38.6580    5.5150 N.3    34  ARG34      -0.1231
     73  CA         1.3250   39.6130    6.2780 C.3    34  ARG34       0.1694
     74  C          2.7290   39.0770    6.5490 C.2    34  ARG34       0.2592
     75  O          3.5760   39.7810    7.0960 O.2    34  ARG34      -0.2718
     76  CB         0.6260   39.9570    7.5950 C.3    34  ARG34       0.0321
     77  CG        -0.7570   40.5660    7.4240 C.3    34  ARG34       0.0489
     78  CD        -1.4010   40.8640    8.7690 C.3    34  ARG34       0.2205
     79  NE        -2.7510   41.4030    8.6280 N.pl3  34  ARG34      -0.0865
     80  CZ        -3.0360   42.7000    8.5710 C.cat  34  ARG34       0.5346
     81  NH1       -2.0640   43.5990    8.6430 N.pl3  34  ARG34       0.1354
     82  NH2       -4.2940   43.0990    8.4420 N.pl3  34  ARG34       0.1354
     83  N          2.9690   37.8270    6.1630 N.am   35  PHE35      -0.1962
     84  CA         4.2820   37.2100    6.3140 C.3    35  PHE35       0.1771
     85  C          5.1840   37.5160    5.1250 C.2    35  PHE35       0.2619
     86  O          6.4010   37.3440    5.1950 O.2    35  PHE35      -0.2715
     87  CB         4.1480   35.6950    6.4810 C.3    35  PHE35       0.0574
     88  CG         3.7350   35.2690    7.8590 C.ar   35  PHE35      -0.0200
     89  CD1        4.1420   35.9870    8.9700 C.ar   35  PHE35      -0.0042
     90  CD2        2.9400   34.1490    8.0430 C.ar   35  PHE35      -0.0042
     91  CE1        3.7650   35.5950   10.2410 C.ar   35  PHE35      -0.0003
     92  CE2        2.5590   33.7540    9.3110 C.ar   35  PHE35      -0.0003
     93  CZ         2.9710   34.4780   10.4110 C.ar   35  PHE35      -0.0000
     94  N          4.5800   37.9730    4.0340 N.am   36  TYR36      -0.1974
     95  CA         5.3030   38.1690    2.7840 C.3    36  TYR36       0.1639
     96  C          5.5330   39.6460    2.4800 C.2    36  TYR36       0.2290
     97  O          4.8100   40.5130    2.9710 O.2    36  TYR36      -0.2864
     98  CB         4.5440   37.5140    1.6270 C.3    36  TYR36       0.0560
     99  CG         4.1960   36.0590    1.8550 C.ar   36  TYR36      -0.0198
    100  CD1        3.0330   35.6990    2.5260 C.ar   36  TYR36      -0.0009
    101  CD2        5.0250   35.0450    1.3930 C.ar   36  TYR36      -0.0009
    102  CE1        2.7100   34.3720    2.7350 C.ar   36  TYR36       0.0417
    103  CE2        4.7080   33.7140    1.5970 C.ar   36  TYR36       0.0417
    104  CZ         3.5500   33.3840    2.2690 C.ar   36  TYR36       0.1957
    105  OH         3.2300   32.0610    2.4750 O.3    36  TYR36      -0.2866
    106  N          2.8460   40.4890   -2.9710 N.3    50  GLN50      -0.1245
    107  CA         2.0470   40.2460   -1.7710 C.3    50  GLN50       0.1566
    108  C          0.5460   40.2600   -2.0510 C.2    50  GLN50       0.2260
    109  O         -0.1960   39.4260   -1.5320 O.2    50  GLN50      -0.2867
    110  CB         2.3780   41.2810   -0.6940 C.3    50  GLN50       0.0367
    111  CG         1.5710   41.1270    0.5870 C.3    50  GLN50       0.0905
    112  CD         1.9360   42.1590    1.6360 C.2    50  GLN50       0.2608
    113  OE1        1.3100   42.2350    2.6930 O.2    50  GLN50      -0.2717
    114  NE2        2.9550   42.9600    1.3480 N.am   50  GLN50      -0.0878
    115  N         13.5850   32.4120    4.6850 N.3   106  LEU106     -0.1245
    116  CA        13.3490   33.5190    5.6020 C.3   106  LEU106      0.1561
    117  C         14.3960   34.6110    5.4270 C.2   106  LEU106      0.2260
    118  O         15.5900   34.3780    5.6140 O.2   106  LEU106     -0.2867
    119  CB        13.3390   33.0230    7.0490 C.3   106  LEU106      0.0270
    120  CG        12.3020   31.9470    7.3760 C.3   106  LEU106      0.0019
    121  CD1       12.3580   31.5740    8.8510 C.3   106  LEU106      0.0001
    122  CD2       10.9050   32.4080    6.9850 C.3   106  LEU106      0.0001
    123  N         15.7570   42.3970   14.6010 N.3   114  ASN114     -0.1225
    124  CA        15.5490   40.9600   14.4440 C.3   114  ASN114      0.1785
    125  C         14.1520   40.6030   13.9480 C.2   114  ASN114      0.2597
    126  O         13.4010   39.9070   14.6320 O.2   114  ASN114     -0.2718
    127  CB        15.8140   40.2400   15.7680 C.3   114  ASN114      0.1169
    128  CG        17.2900   40.1480   16.0980 C.2   114  ASN114      0.2627
    129  OD1       18.1180   39.8920   15.2230 O.2   114  ASN114     -0.2716
    130  ND2       17.6280   40.3580   17.3650 N.am  114  ASN114     -0.0877
    131  N         13.8090   41.0780   12.7560 N.am  115  LYS115     -0.1966
    132  CA        12.5330   40.7410   12.1420 C.3   115  LYS115      0.1728
    133  C         12.7650   40.0360   10.8110 C.2   115  LYS115      0.2616
    134  O         13.6260   40.4360   10.0280 O.2   115  LYS115     -0.2715
    135  CB        11.6770   41.9940   11.9440 C.3   115  LYS115      0.0311
    136  CG        10.3140   41.7240   11.3220 C.3   115  LYS115      0.0038
    137  CD         9.4830   42.9940   11.2260 C.3   115  LYS115      0.0206
    138  CE         9.1840   43.5650   12.6020 C.3   115  LYS115      0.1093
    139  NZ         8.3200   44.7760   12.5290 N.3   115  LYS115     -0.1314
    140  N         12.0000   38.9780   10.5660 N.am  116  PHE116     -0.1960
    141  CA        12.1220   38.2180    9.3280 C.3   116  PHE116      0.1771
    142  C         10.8150   38.2170    8.5470 C.2   116  PHE116      0.2619
    143  O          9.7380   38.3890    9.1160 O.2   116  PHE116     -0.2715
    144  CB        12.5530   36.7790    9.6190 C.3   116  PHE116      0.0574
    145  CG        13.9700   36.6530   10.1010 C.ar  116  PHE116     -0.0200
    146  CD1       15.0030   36.4370    9.2040 C.ar  116  PHE116     -0.0042
    147  CD2       14.2690   36.7450   11.4500 C.ar  116  PHE116     -0.0042
    148  CE1       16.3080   36.3180    9.6420 C.ar  116  PHE116     -0.0003
    149  CE2       15.5730   36.6270   11.8950 C.ar  116  PHE116     -0.0003
    150  CZ        16.5930   36.4140   10.9890 C.ar  116  PHE116     -0.0000
    151  N         10.9200   38.0290    7.2360 N.am  117  TYR117     -0.1974
    152  CA         9.7450   37.8800    6.3880 C.3   117  TYR117      0.1639
    153  C          9.9860   36.7710    5.3720 C.2   117  TYR117      0.2290
    154  O         11.1310   36.4510    5.0540 O.2   117  TYR117     -0.2864
    155  CB         9.4060   39.1950    5.6790 C.3   117  TYR117      0.0560
    156  CG        10.3720   39.5820    4.5810 C.ar  117  TYR117     -0.0198
    157  CD1       11.5530   40.2510    4.8710 C.ar  117  TYR117     -0.0009
    158  CD2       10.0950   39.2890    3.2500 C.ar  117  TYR117     -0.0009
    159  CE1       12.4370   40.6080    3.8700 C.ar  117  TYR117      0.0417
    160  CE2       10.9720   39.6420    2.2420 C.ar  117  TYR117      0.0417
    161  CZ        12.1410   40.3020    2.5580 C.ar  117  TYR117      0.1957
    162  OH        13.0190   40.6580    1.5600 O.3   117  TYR117     -0.2866
@<TRIPOS>BOND
     1   106   107    1
     2   108   107    1
     3   108   109    2
     4   107   110    1
     5   110   111    1
     6   111   112    1
     7   114   112   am
     8   101   103   ar
     9   101    99   ar
    10   162   161    1
    11   103   104   ar
    12    98    99    1
    13    98    95    1
    14   112   113    2
    15    99   100   ar
    16   160   161   ar
    17   160   158   ar
    18   104   105    1
    19   104   102   ar
    20    96    95    1
    21    96    97    2
    22   100   102   ar
    23   161   159   ar
    24    95    94    1
    25   158   156   ar
    26   159   157   ar
    27    94    85   am
    28   156   157   ar
    29   156   155    1
    30   115   116    1
    31   154   153    2
    32    85    86    2
    33    85    84    1
    34   153   152    1
    35   117   116    1
    36   117   118    2
    37    72    73    1
    38   116   119    1
    39   155   152    1
    40    83    84    1
    41    83    74   am
    42    73    74    1
    43    73    76    1
    44    84    87    1
    45   152   151    1
    46    87    88    1
    47    74    75    2
    48   122   120    1
    49   119   120    1
    50    60    61    1
    51   151   142   am
    52    62    61    1
    53    62    63    2
    54    42    41   ar
    55    42    40   ar
    56   120   121    1
    57    77    76    1
    58    77    78    1
    59    41    39   ar
    60    61    64    1
    61    88    90   ar
    62    88    89   ar
    63    90    92   ar
    64    40    38   ar
    65    82    80    1
    66   142   143    2
    67   142   141    1
    68    80    79    2
    69    80    81    1
    70    79    78    1
    71    66    68   ar
    72    66    65   ar
    73    39    37   ar
    74    89    91   ar
    75    68    70   ar
    76    64    65    1
    77   146   148   ar
    78   146   145   ar
    79    92    93   ar
    80   141   144    1
    81   141   140    1
    82    38    37   ar
    83    65    67   ar
    84   144   145    1
    85   148   150   ar
    86    37    36    1
    87   134   133    2
    88   145   147   ar
    89    59    57    1
    90    91    93   ar
    91    55    54    2
    92    70    71    1
    93    70    69   ar
    94    54    53    1
    95   140   133   am
    96    57    56    1
    97    57    58    1
    98   133   132    1
    99    67    69   ar
   100   150   149   ar
   101    36    33    1
   102   137   136    1
   103   137   138    1
   104    56    53    1
   105   136   135    1
   106   147   149   ar
   107    35    34    2
   108    53    52    1
   109    34    33    1
   110   135   132    1
   111    21    20    1
   112   132   131    1
   113    33    32    1
   114    46    45    2
   115   139   138    1
   116    45    44    1
   117    19    18    2
   118   131   125   am
   119    18    17    1
   120    20    17    1
   121    20    22    1
   122    32    25   am
   123    17    16    1
   124   125   124    1
   125   125   126    2
   126    44    43    1
   127    44    47    1
   128    51    49   am
   129    48    47    1
   130    48    49    1
   131     4     3    2
   132    49    50    2
   133   124   123    1
   134   124   127    1
   135    25    26    2
   136    25    24    1
   137    16    10   am
   138     7     1    1
   139     7     6    1
   140    23    24    1
   141   129   128    2
   142     8     9    1
   143    10    11    2
   144    10     9    1
   145     3     2    1
   146    24    27    1
   147     1     2    1
   148     6     5    1
   149   127   128    1
   150     5     2    1
   151   128   130   am
   152     9    12    1
   153    27    28    1
   154    28    29    1
   155    12    13    1
   156    13    14    1
   157    13    15    1
   158    29    31   ar
   159    29    30   ar
