@<TRIPOS>MOLECULE
tmp/5dryB00.pdb
 212 205 0 0 0
SMALL
GASTEIGER

@<TRIPOS>ATOM
      1  N         44.1670  -34.1650   24.4800 N.3   119  ASN119     -0.1240
      2  CA        44.6760  -33.6260   23.2260 C.3   119  ASN119      0.1653
      3  C         45.2350  -32.1920   23.3460 C.2   119  ASN119      0.2266
      4  O         44.4850  -31.2060   23.3190 O.2   119  ASN119     -0.2867
      5  CB        43.6000  -33.7370   22.1470 C.3   119  ASN119      0.1155
      6  CG        43.3710  -35.1170   21.6660 C.2   119  ASN119      0.2627
      7  OD1       44.3060  -35.6850   21.0870 O.2   119  ASN119     -0.2716
      8  ND2       42.2410  -35.6770   21.8780 N.am  119  ASN119     -0.0877
      9  N         47.9460  -31.5590   21.2750 N.3   121  GLU121     -0.1245
     10  CA        48.6380  -31.6800   19.9890 C.3   121  GLU121      0.1567
     11  C         48.2040  -30.5580   18.9960 C.2   121  GLU121      0.2260
     12  O         47.1630  -29.9280   19.2300 O.2   121  GLU121     -0.2867
     13  CB        48.3470  -33.0790   19.4020 C.3   121  GLU121      0.0388
     14  CG        48.4630  -34.0990   20.5330 C.3   121  GLU121      0.1160
     15  CD        48.4170  -35.5460   20.1100 C.2   121  GLU121      0.3649
     16  OE1       48.0010  -35.6710   18.8850 O.co2 121  GLU121     -0.2457
     17  OE2       48.7010  -36.5240   20.8210 O.co2 121  GLU121     -0.2457
     18  N         46.8830  -30.8770   16.1370 N.3   123  PHE123     -0.1227
     19  CA        45.6380  -31.3920   15.5820 C.3   123  PHE123      0.1736
     20  C         44.9540  -32.1750   16.6950 C.2   123  PHE123      0.2596
     21  O         45.5940  -32.9720   17.3990 O.2   123  PHE123     -0.2718
     22  CB        45.8810  -32.2770   14.3460 C.3   123  PHE123      0.0547
     23  CG        46.7480  -31.6550   13.2800 C.ar  123  PHE123     -0.0202
     24  CD1       46.2150  -30.7540   12.3660 C.ar  123  PHE123     -0.0042
     25  CD2       48.1000  -31.9860   13.1770 C.ar  123  PHE123     -0.0042
     26  CE1       47.0140  -30.1900   11.3730 C.ar  123  PHE123     -0.0003
     27  CE2       48.8990  -31.4200   12.1810 C.ar  123  PHE123     -0.0003
     28  CZ        48.3500  -30.5240   11.2890 C.ar  123  PHE123     -0.0000
     29  N         43.6730  -31.8670   16.9110 N.am  124  SER124     -0.1938
     30  CA        42.8360  -32.4990   17.9260 C.3   124  SER124      0.2040
     31  C         41.3880  -32.4960   17.4350 C.2   124  SER124      0.2485
     32  O         41.0430  -31.6370   16.6210 O.2   124  SER124     -0.2729
     33  CB        43.0000  -31.8160   19.2820 C.3   124  SER124      0.2129
     34  OG        42.5890  -30.4650   19.2740 O.3   124  SER124     -0.2179
     35  N         40.5470  -33.4650   17.8650 N.am  125  PRO125     -0.2726
     36  CA        39.1570  -33.5270   17.3460 C.3   125  PRO125      0.1402
     37  C         38.3660  -32.2300   17.3610 C.2   125  PRO125      0.2269
     38  O         37.5570  -31.9720   16.4600 O.2   125  PRO125     -0.2865
     39  CB        38.4890  -34.5750   18.2310 C.3   125  PRO125      0.0296
     40  CG        39.5990  -35.3860   18.8010 C.3   125  PRO125      0.0237
     41  CD        40.8400  -34.5710   18.8090 C.3   125  PRO125      0.0939
     42  N         39.1700  -30.1060   14.2490 N.3   128  TYR128     -0.1241
     43  CA        39.1110  -30.8790   13.0070 C.3   128  TYR128      0.1605
     44  C         38.6710  -30.0360   11.7800 C.2   128  TYR128      0.2264
     45  O         39.3540  -30.0510   10.7580 O.2   128  TYR128     -0.2867
     46  CB        38.2290  -32.1360   13.1760 C.3   128  TYR128      0.0534
     47  CG        38.2620  -33.0550   11.9680 C.ar  128  TYR128     -0.0201
     48  CD1       39.2260  -34.0590   11.8560 C.ar  128  TYR128     -0.0009
     49  CD2       37.3360  -32.9170   10.9300 C.ar  128  TYR128     -0.0009
     50  CE1       39.3100  -34.8550   10.7170 C.ar  128  TYR128      0.0417
     51  CE2       37.3970  -33.7240    9.7980 C.ar  128  TYR128      0.0417
     52  CZ        38.3890  -34.6850    9.6920 C.ar  128  TYR128      0.1957
     53  OH        38.4380  -35.4910    8.5840 O.3   128  TYR128     -0.2866
     54  N         42.2360  -29.9870    9.9240 N.3   132  SER132     -0.1217
     55  CA        42.2530  -31.2880    9.2600 C.3   132  SER132      0.1889
     56  C         41.2680  -31.5020    8.1000 C.2   132  SER132      0.2288
     57  O         41.5710  -32.2860    7.2000 O.2   132  SER132     -0.2866
     58  CB        42.0330  -32.3830   10.2990 C.3   132  SER132      0.2089
     59  OG        42.9200  -32.2460   11.3990 O.3   132  SER132     -0.2183
     60  N         42.4920  -30.8140    4.4740 N.3   135  LEU135     -0.1231
     61  CA        43.5270  -31.7650    4.0890 C.3   135  LEU135      0.1693
     62  C         42.8950  -33.0850    3.6990 C.2   135  LEU135      0.2591
     63  O         43.2120  -33.6050    2.6320 O.2   135  LEU135     -0.2718
     64  CB        44.6170  -31.9680    5.1690 C.3   135  LEU135      0.0284
     65  CG        45.7520  -32.9230    4.7710 C.3   135  LEU135      0.0019
     66  CD1       46.5230  -32.4130    3.5330 C.3   135  LEU135      0.0001
     67  CD2       46.6700  -33.2210    5.9300 C.3   135  LEU135      0.0001
     68  N         41.9680  -33.6030    4.5330 N.am  136  VAL136     -0.1980
     69  CA        41.2400  -34.8310    4.2330 C.3   136  VAL136      0.1595
     70  C         40.4680  -34.6760    2.9150 C.2   136  VAL136      0.2287
     71  O         40.4630  -35.6090    2.1180 O.2   136  VAL136     -0.2864
     72  CB        40.3440  -35.2730    5.4140 C.3   136  VAL136      0.0276
     73  CG1       39.5140  -36.5060    5.0520 C.3   136  VAL136      0.0022
     74  CG2       41.1950  -35.5390    6.6620 C.3   136  VAL136      0.0022
     75  N         42.9530  -35.1500    0.1880 N.3   139  MET139     -0.1245
     76  CA        43.3250  -36.5660    0.1170 C.3   139  MET139      0.1570
     77  C         42.2440  -37.3760   -0.6050 C.2   139  MET139      0.2261
     78  O         42.5710  -38.2100   -1.4400 O.2   139  MET139     -0.2867
     79  CB        43.5970  -37.1650    1.5230 C.3   139  MET139      0.0387
     80  CG        44.6740  -36.4240    2.3010 C.3   139  MET139      0.0595
     81  SD        45.2500  -37.2930    3.7640 S.3   139  MET139     -0.1393
     82  CE        44.1060  -36.9130    4.8700 C.3   139  MET139      0.0692
     83  N         40.7230  -46.6510    8.3110 N.3   153  ASP153     -0.1239
     84  CA        41.4950  -45.6460    9.0180 C.3   153  ASP153      0.1674
     85  C         42.0110  -46.3400   10.2910 C.2   153  ASP153      0.2266
     86  O         41.2170  -46.6550   11.1760 O.2   153  ASP153     -0.2867
     87  CB        40.6350  -44.4040    9.3690 C.3   153  ASP153      0.1410
     88  CG        41.4390  -43.2760    9.9830 C.2   153  ASP153      0.3668
     89  OD1       42.6670  -43.2100    9.7260 O.co2 153  ASP153     -0.2456
     90  OD2       40.8520  -42.4690   10.7320 O.co2 153  ASP153     -0.2456
     91  N         43.5200  -46.3930   13.6950 N.3   155  GLY155     -0.1210
     92  CA        43.6310  -45.4400   14.7990 C.3   155  GLY155      0.1956
     93  C         42.7710  -44.2420   14.4490 C.2   155  GLY155      0.2613
     94  O         43.2690  -43.1230   14.2640 O.2   155  GLY155     -0.2717
     95  N         41.4630  -44.5080   14.2990 N.am  156  SER156     -0.1938
     96  CA        40.4450  -43.5630   13.8630 C.3   156  SER156      0.2055
     97  C         39.9480  -42.5680   14.9140 C.2   156  SER156      0.2644
     98  O         39.1970  -41.6500   14.5470 O.2   156  SER156     -0.2714
     99  CB        39.2680  -44.3140   13.2690 C.3   156  SER156      0.2130
    100  OG        38.8000  -45.2740   14.1930 O.3   156  SER156     -0.2179
    101  N         40.3860  -42.7210   16.1760 N.am  157  GLY157     -0.1939
    102  CA        39.9950  -41.8390   17.2820 C.3   157  GLY157      0.2014
    103  C         38.4860  -41.7290   17.4440 C.2   157  GLY157      0.2639
    104  O         37.8070  -42.7540   17.5300 O.2   157  GLY157     -0.2714
    105  N         37.9440  -40.4760   17.4010 N.am  158  VAL158     -0.1963
    106  CA        36.4890  -40.2110   17.4970 C.3   158  VAL158      0.1727
    107  C         35.7800  -40.4890   16.1520 C.2   158  VAL158      0.2617
    108  O         34.5530  -40.5460   16.1180 O.2   158  VAL158     -0.2715
    109  CB        36.1070  -38.8390   18.1150 C.3   158  VAL158      0.0290
    110  CG1       36.6770  -38.7020   19.5300 C.3   158  VAL158      0.0023
    111  CG2       36.5280  -37.6640   17.2300 C.3   158  VAL158      0.0023
    112  N         36.5560  -40.7130   15.0860 N.am  159  GLY159     -0.1940
    113  CA        36.0610  -41.1730   13.7870 C.3   159  GLY159      0.2014
    114  C         35.7580  -40.2030   12.6750 C.2   159  GLY159      0.2639
    115  O         35.2020  -40.6400   11.6660 O.2   159  GLY159     -0.2714
    116  N         36.1570  -38.9110   12.8030 N.am  160  GLN160     -0.1963
    117  CA        35.8430  -37.8610   11.8200 C.3   160  GLN160      0.1733
    118  C         36.4310  -38.0560   10.4200 C.2   160  GLN160      0.2616
    119  O         35.7950  -37.6280    9.4630 O.2   160  GLN160     -0.2715
    120  CB        36.2010  -36.4700   12.3440 C.3   160  GLN160      0.0408
    121  CG        35.3640  -36.1120   13.5530 C.3   160  GLN160      0.0908
    122  CD        35.5390  -34.7140   14.0320 C.2   160  GLN160      0.2608
    123  OE1       34.7570  -33.8370   13.6800 O.2   160  GLN160     -0.2717
    124  NE2       36.4460  -34.5220   14.9840 N.am  160  GLN160     -0.0878
    125  N         37.6040  -38.7100   10.2820 N.am  161  VAL161     -0.1977
    126  CA        38.2030  -38.9880    8.9700 C.3   161  VAL161      0.1596
    127  C         37.3210  -40.0210    8.2430 C.2   161  VAL161      0.2287
    128  O         37.0150  -39.8360    7.0630 O.2   161  VAL161     -0.2864
    129  CB        39.7070  -39.4130    9.0620 C.3   161  VAL161      0.0276
    130  CG1       40.2200  -40.0050    7.7430 C.3   161  VAL161      0.0022
    131  CG2       40.5790  -38.2440    9.5100 C.3   161  VAL161      0.0022
    132  N         44.3650  -45.5800    5.4540 N.3   231  PHE231     -0.1227
    133  CA        44.7350  -44.2530    5.9260 C.3   231  PHE231      0.1736
    134  C         45.3160  -44.4970    7.3140 C.2   231  PHE231      0.2595
    135  O         44.6960  -45.1950    8.1260 O.2   231  PHE231     -0.2718
    136  CB        43.5250  -43.3290    6.0230 C.3   231  PHE231      0.0547
    137  CG        43.2290  -42.4910    4.7980 C.ar  231  PHE231     -0.0202
    138  CD1       43.4830  -42.9830    3.5140 C.ar  231  PHE231     -0.0042
    139  CD2       42.5670  -41.2730    4.9160 C.ar  231  PHE231     -0.0042
    140  CE1       43.1470  -42.2300    2.3770 C.ar  231  PHE231     -0.0003
    141  CE2       42.1960  -40.5400    3.7800 C.ar  231  PHE231     -0.0003
    142  CZ        42.5050  -41.0130    2.5150 C.ar  231  PHE231     -0.0000
    143  N         46.5120  -43.9770    7.5850 N.am  232  VAL232     -0.1966
    144  CA        47.0990  -44.1920    8.9010 C.3   232  VAL232      0.1727
    145  C         47.9260  -42.9890    9.3220 C.2   232  VAL232      0.2616
    146  O         48.8810  -42.6240    8.6470 O.2   232  VAL232     -0.2715
    147  CB        47.8600  -45.5570    9.0280 C.3   232  VAL232      0.0290
    148  CG1       48.9490  -45.7290    7.9750 C.3   232  VAL232      0.0023
    149  CG2       48.3840  -45.7870   10.4400 C.3   232  VAL232      0.0023
    150  N         47.5200  -42.3420   10.4190 N.am  233  ASN233     -0.1972
    151  CA        48.2470  -41.2260   10.9890 C.3   233  ASN233      0.1688
    152  C         49.2630  -41.8770   11.9260 C.2   233  ASN233      0.2292
    153  O         48.9770  -42.1550   13.0960 O.2   233  ASN233     -0.2864
    154  CB        47.3100  -40.3010   11.7280 C.3   233  ASN233      0.1181
    155  CG        47.9410  -39.0110   12.1800 C.2   233  ASN233      0.2629
    156  OD1       49.1630  -38.8250   12.1210 O.2   233  ASN233     -0.2716
    157  ND2       47.1290  -38.0990   12.6910 N.am  233  ASN233     -0.0877
    158  N         52.3770  -40.6060   12.5470 N.3   235  PHE235     -0.1241
    159  CA        53.3130  -39.6170   13.0550 C.3   235  PHE235      0.1605
    160  C         53.8370  -39.9290   14.4840 C.2   235  PHE235      0.2264
    161  O         55.0510  -39.9600   14.6770 O.2   235  PHE235     -0.2867
    162  CB        52.7440  -38.1820   12.9570 C.3   235  PHE235      0.0534
    163  CG        53.8160  -37.1270   13.0910 C.ar  235  PHE235     -0.0203
    164  CD1       54.6810  -36.8470   12.0300 C.ar  235  PHE235     -0.0042
    165  CD2       54.0170  -36.4680   14.3010 C.ar  235  PHE235     -0.0042
    166  CE1       55.7300  -35.9300   12.1800 C.ar  235  PHE235     -0.0003
    167  CE2       55.0520  -35.5360   14.4440 C.ar  235  PHE235     -0.0003
    168  CZ        55.9040  -35.2790   13.3850 C.ar  235  PHE235     -0.0000
    169  N         47.9600  -44.3370    2.7060 N.3   259  VAL259     -0.1231
    170  CA        48.2080  -42.9200    2.8130 C.3   259  VAL259      0.1692
    171  C         48.4500  -42.6280    4.3010 C.2   259  VAL259      0.2593
    172  O         47.6450  -42.9920    5.1690 O.2   259  VAL259     -0.2718
    173  CB        47.2490  -41.9600    2.0510 C.3   259  VAL259      0.0266
    174  CG1       46.3050  -42.6900    1.1100 C.3   259  VAL259      0.0020
    175  CG2       46.5710  -40.9190    2.9310 C.3   259  VAL259      0.0020
    176  N         49.6580  -42.0940    4.5790 N.am  260  SER260     -0.1938
    177  CA        50.0950  -41.7930    5.9410 C.3   260  SER260      0.2055
    178  C         50.5830  -40.3610    6.1290 C.2   260  SER260      0.2643
    179  O         50.7000  -39.6120    5.1650 O.2   260  SER260     -0.2714
    180  CB        51.1580  -42.7910    6.3900 C.3   260  SER260      0.2130
    181  OG        52.3420  -42.6760    5.6210 O.3   260  SER260     -0.2179
    182  N         50.8300  -39.9750    7.3890 N.am  261  SER261     -0.1949
    183  CA        51.3510  -38.6510    7.7440 C.3   261  SER261      0.1924
    184  C         52.9080  -38.6600    7.7300 C.2   261  SER261      0.2314
    185  O         53.5370  -37.6270    7.5360 O.2   261  SER261     -0.2863
    186  CB        50.7850  -38.1740    9.0840 C.3   261  SER261      0.2116
    187  OG        50.9480  -39.1170   10.1320 O.3   261  SER261     -0.2180
    188  N         51.3420  -28.6410    5.2730 N.3   300  VAL300     -0.1231
    189  CA        51.3080  -30.0820    5.4560 C.3   300  VAL300      0.1692
    190  C         51.6210  -30.8730    4.1920 C.2   300  VAL300      0.2593
    191  O         51.5810  -30.3510    3.0670 O.2   300  VAL300     -0.2718
    192  CB        49.9950  -30.5850    6.0890 C.3   300  VAL300      0.0266
    193  CG1       50.0170  -30.4400    7.6110 C.3   300  VAL300      0.0020
    194  CG2       48.7760  -29.9040    5.4680 C.3   300  VAL300      0.0020
    195  N         51.9490  -32.1580    4.4200 N.am  301  SER301     -0.1938
    196  CA        52.2830  -33.1530    3.4210 C.3   301  SER301      0.2055
    197  C         51.7080  -34.4680    3.8870 C.2   301  SER301      0.2643
    198  O         51.5490  -34.7050    5.0870 O.2   301  SER301     -0.2714
    199  CB        53.7970  -33.2910    3.2790 C.3   301  SER301      0.2130
    200  OG        54.3210  -32.5850    2.1670 O.3   301  SER301     -0.2179
    201  N         51.3670  -35.3150    2.9320 N.am  302  TYR302     -0.1973
    202  CA        50.9260  -36.6810    3.1900 C.3   302  TYR302      0.1639
    203  C         51.6600  -37.5760    2.2020 C.2   302  TYR302      0.2290
    204  O         52.2660  -37.0680    1.2470 O.2   302  TYR302     -0.2864
    205  CB        49.3940  -36.8450    3.2130 C.3   302  TYR302      0.0560
    206  CG        48.6980  -36.5210    1.9130 C.ar  302  TYR302     -0.0198
    207  CD1       48.3590  -35.2090    1.5910 C.ar  302  TYR302     -0.0009
    208  CD2       48.2940  -37.5330    1.0450 C.ar  302  TYR302     -0.0009
    209  CE1       47.6590  -34.9080    0.4270 C.ar  302  TYR302      0.0417
    210  CE2       47.5670  -37.2480   -0.1070 C.ar  302  TYR302      0.0417
    211  CZ        47.2740  -35.9300   -0.4240 C.ar  302  TYR302      0.1957
    212  OH        46.5890  -35.6270   -1.5700 O.3   302  TYR302     -0.2866
@<TRIPOS>BOND
     1   212   211    1
     2    78    77    2
     3    77    76    1
     4   211   210   ar
     5   211   209   ar
     6   210   208   ar
     7    76    75    1
     8    76    79    1
     9   209   207   ar
    10   208   206   ar
    11   174   173    1
    12   204   203    2
    13    79    80    1
    14   207   206   ar
    15   206   205    1
    16   173   170    1
    17   173   175    1
    18    71    70    2
    19   200   199    1
    20   203   202    1
    21    80    81    1
    22   140   142   ar
    23   140   138   ar
    24   142   141   ar
    25    63    62    2
    26   169   170    1
    27   170   171    1
    28    70    69    1
    29   201   202    1
    30   201   197   am
    31   191   190    2
    32   202   205    1
    33   199   196    1
    34   196   197    1
    35   196   195    1
    36   138   137   ar
    37    66    65    1
    38    62    61    1
    39    62    68   am
    40    81    82    1
    41   141   139   ar
    42   197   198    2
    43    61    60    1
    44    61    64    1
    45   190   195   am
    46   190   189    1
    47    69    68    1
    48    69    72    1
    49   171   176   am
    50   171   172    2
    51   176   177    1
    52    65    64    1
    53    65    67    1
    54   137   139   ar
    55   137   136    1
    56    73    72    1
    57   179   178    2
    58   188   189    1
    59    72    74    1
    60   132   133    1
    61   189   192    1
    62   194   192    1
    63   181   180    1
    64   133   136    1
    65   133   134    1
    66   177   178    1
    67   177   180    1
    68   192   193    1
    69   178   182   am
    70   128   127    2
    71    57    56    2
    72   134   143   am
    73   134   135    2
    74   182   183    1
    75   185   184    2
    76   143   144    1
    77   184   183    1
    78   130   129    1
    79   183   186    1
    80   148   147    1
    81    56    55    1
    82   127   126    1
    83    83    84    1
    84    53    52    1
    85   146   145    2
    86   144   147    1
    87   144   145    1
    88   126   129    1
    89   126   125    1
    90    84    87    1
    91    84    85    1
    92   147   149    1
    93   129   131    1
    94   186   187    1
    95    55    54    1
    96    55    58    1
    97   145   150   am
    98    87    88    1
    99   119   118    2
   100    52    51   ar
   101    52    50   ar
   102    89    88   ar
   103    51    49   ar
   104    88    90   ar
   105   125   118   am
   106    85    86    2
   107    58    59    1
   108   150   151    1
   109   118   117    1
   110    50    48   ar
   111    45    44    2
   112    49    47   ar
   113   151   154    1
   114   151   152    1
   115    28    26   ar
   116    28    27   ar
   117    26    24   ar
   118   115   114    2
   119   154   155    1
   120    44    43    1
   121   117   120    1
   122   117   116    1
   123    48    47   ar
   124   152   153    2
   125    47    46    1
   126   164   166   ar
   127   164   163   ar
   128   156   155    2
   129   166   168   ar
   130   155   157   am
   131    27    25   ar
   132   120   121    1
   133    24    23   ar
   134   158   159    1
   135   114   116   am
   136   114   113    1
   137   162   159    1
   138   162   163    1
   139    43    46    1
   140    43    42    1
   141   159   160    1
   142   163   165   ar
   143    25    23   ar
   144    99    96    1
   145    99   100    1
   146    23    22    1
   147   168   167   ar
   148   121   122    1
   149   123   122    2
   150    91    92    1
   151   113   112    1
   152    96    95    1
   153    96    97    1
   154   122   124   am
   155    94    93    2
   156    95    93   am
   157   165   167   ar
   158    22    19    1
   159    93    92    1
   160   160   161    2
   161    98    97    2
   162    97   101   am
   163   112   107   am
   164    19    18    1
   165    19    20    1
   166   108   107    2
   167   107   106    1
   168   101   102    1
   169    38    37    2
   170    32    31    2
   171    20    29   am
   172    20    21    2
   173    29    30    1
   174   111   109    1
   175   102   103    1
   176    36    37    1
   177    36    35    1
   178    36    39    1
   179   105   103   am
   180   105   106    1
   181    31    35   am
   182    31    30    1
   183   103   104    2
   184   106   109    1
   185    35    41    1
   186    30    33    1
   187   109   110    1
   188    39    40    1
   189    40    41    1
   190    16    15   ar
   191    11    12    2
   192    11    10    1
   193    34    33    1
   194    13    10    1
   195    13    14    1
   196    10     9    1
   197    15    14    1
   198    15    17   ar
   199     7     6    2
   200     6     8   am
   201     6     5    1
   202     5     2    1
   203     2     3    1
   204     2     1    1
   205     4     3    2
