@<TRIPOS>MOLECULE
tmp/5ds3A01.pdb
 171 171 0 0 0
SMALL
GASTEIGER

@<TRIPOS>ATOM
      1  N          4.9260   33.9640    7.7290 N.3    94  TRP94      -0.1227
      2  CA         4.8550   35.4280    7.6530 C.3    94  TRP94       0.1737
      3  C          3.9170   36.1040    8.6620 C.2    94  TRP94       0.2595
      4  O          2.8320   35.6060    8.9590 O.2    94  TRP94      -0.2718
      5  CB         4.3880   35.8470    6.2700 C.3    94  TRP94       0.0564
      6  CG         5.2560   35.3800    5.1690 C.ar   94  TRP94       0.0003
      7  CD1        4.9760   34.4000    4.2790 C.ar   94  TRP94       0.0946
      8  CD2        6.5410   35.8930    4.8190 C.ar   94  TRP94       0.0152
      9  NE1        6.0100   34.2620    3.3890 N.ar   94  TRP94      -0.2442
     10  CE2        6.9860   35.1690    3.7040 C.ar   94  TRP94       0.0810
     11  CE3        7.3640   36.8890    5.3450 C.ar   94  TRP94       0.0012
     12  CZ2        8.2200   35.4130    3.1020 C.ar   94  TRP94       0.0191
     13  CZ3        8.5830   37.1260    4.7500 C.ar   94  TRP94       0.0001
     14  CH2        9.0000   36.3990    3.6450 C.ar   94  TRP94       0.0015
     15  N          4.3330   37.2680    9.1470 N.am   95  HIS95      -0.1961
     16  CA         3.4540   38.1310    9.8970 C.3    95  HIS95       0.1787
     17  C          3.6670   39.5800    9.5220 C.2    95  HIS95       0.2620
     18  O          4.6830   40.1720    9.8590 O.2    95  HIS95      -0.2715
     19  CB         3.6790   37.9750   11.3920 C.3    95  HIS95       0.0785
     20  CG         2.6600   38.6950   12.2170 C.ar   95  HIS95       0.0821
     21  ND1        1.4960   38.0970   12.6460 N.ar   95  HIS95      -0.2267
     22  CD2        2.6110   39.9730   12.6580 C.ar   95  HIS95       0.1154
     23  CE1        0.7810   38.9700   13.3310 C.ar   95  HIS95       0.1986
     24  NE2        1.4410   40.1140   13.3610 N.ar   95  HIS95      -0.2212
     25  N          2.6960   40.1540    8.8320 N.am   96  GLY96      -0.1954
     26  CA         2.7290   41.5610    8.5140 C.3    96  GLY96       0.1869
     27  C          2.0190   42.3760    9.5660 C.2    96  GLY96       0.2309
     28  O          1.0740   41.9130   10.2040 O.2    96  GLY96      -0.2863
     29  N          6.1530   45.4930   19.0020 N.3   105  ILE105     -0.1245
     30  CA         6.2990   44.0960   18.6230 C.3   105  ILE105      0.1561
     31  C          7.7060   43.5600   18.9030 C.2   105  ILE105      0.2260
     32  O          7.8650   42.4050   19.2850 O.2   105  ILE105     -0.2867
     33  CB         5.9950   43.8960   17.1240 C.3   105  ILE105      0.0252
     34  CG1        4.4910   44.0120   16.8690 C.3   105  ILE105      0.0019
     35  CG2        6.4810   42.5350   16.6550 C.3   105  ILE105      0.0019
     36  CD1        4.0960   43.9800   15.4080 C.3   105  ILE105      0.0001
     37  N          7.3420   41.5740   21.8420 N.3   109  GLY109     -0.1210
     38  CA         6.9850   40.3790   21.0530 C.3   109  GLY109      0.1956
     39  C          5.5320   40.4250   20.6000 C.2   109  GLY109      0.2612
     40  O          4.7970   41.3310   20.9650 O.2   109  GLY109     -0.2717
     41  N          5.1060   39.4580   19.8030 N.am  110  LEU110     -0.1965
     42  CA         3.6970   39.3740   19.4300 C.3   110  LEU110      0.1728
     43  C          2.9010   38.8710   20.6140 C.2   110  LEU110      0.2616
     44  O          3.3010   37.9060   21.2790 O.2   110  LEU110     -0.2715
     45  CB         3.4960   38.4340   18.2530 C.3   110  LEU110      0.0311
     46  CG         4.0460   38.9320   16.9180 C.3   110  LEU110      0.0022
     47  CD1        4.1270   37.7850   15.9290 C.3   110  LEU110      0.0001
     48  CD2        3.1910   40.0510   16.3460 C.3   110  LEU110      0.0001
     49  N          1.7620   39.5110   20.8650 N.am  111  ARG111     -0.1963
     50  CA         0.9450   39.1890   22.0370 C.3   111  ARG111      0.1729
     51  C         -0.5110   38.8870   21.7230 C.2   111  ARG111      0.2616
     52  O         -1.0380   39.2300   20.6590 O.2   111  ARG111     -0.2715
     53  CB         1.0240   40.3190   23.0500 C.3   111  ARG111      0.0348
     54  CG         2.3540   40.3540   23.7780 C.3   111  ARG111      0.0492
     55  CD         2.3950   41.4890   24.7660 C.3   111  ARG111      0.2205
     56  NE         2.3370   42.7650   24.0680 N.pl3 111  ARG111     -0.0865
     57  CZ         1.9950   43.9230   24.6260 C.cat 111  ARG111      0.5346
     58  NH1        1.6650   43.9980   25.9240 N.pl3 111  ARG111      0.1354
     59  NH2        1.9820   45.0180   23.8740 N.pl3 111  ARG111      0.1354
     60  N         -1.1390   38.2300   22.6870 N.am  112  ILE112     -0.1963
     61  CA        -2.5070   37.7760   22.5810 C.3   112  ILE112      0.1727
     62  C         -3.4020   38.8960   23.0510 C.2   112  ILE112      0.2616
     63  O         -3.2810   39.3410   24.1910 O.2   112  ILE112     -0.2715
     64  CB        -2.7700   36.5770   23.5250 C.3   112  ILE112      0.0290
     65  CG1       -1.8400   35.3960   23.2240 C.3   112  ILE112      0.0022
     66  CG2       -4.2290   36.1550   23.4550 C.3   112  ILE112      0.0023
     67  CD1       -2.2270   34.5910   22.0100 C.3   112  ILE112      0.0001
     68  N         -4.3190   39.3330   22.1980 N.am  113  ALA113     -0.1964
     69  CA        -5.2930   40.3430   22.5910 C.3   113  ALA113      0.1713
     70  C         -5.9630   39.9980   23.9290 C.2   113  ALA113      0.2458
     71  O         -6.2640   38.8380   24.1950 O.2   113  ALA113     -0.2730
     72  CB        -6.3340   40.5050   21.5080 C.3   113  ALA113      0.0333
     73  N         -6.2040   41.0130   24.7760 N.am  114  PRO114     -0.2727
     74  CA        -6.7210   40.7500   26.1270 C.3   114  PRO114      0.1402
     75  C         -8.0840   40.0540   26.1050 C.2   114  PRO114      0.2269
     76  O         -8.8500   40.2620   25.1630 O.2   114  PRO114     -0.2865
     77  CB        -6.8490   42.1530   26.7310 C.3   114  PRO114      0.0296
     78  CG        -7.0490   43.0380   25.5510 C.3   114  PRO114      0.0237
     79  CD        -6.1870   42.4550   24.4690 C.3   114  PRO114      0.0939
     80  N        -13.3260   40.7620   14.5840 N.3   121  GLY121     -0.1210
     81  CA       -11.9580   41.0730   14.1990 C.3   121  GLY121      0.1956
     82  C        -11.0100   39.9700   14.6260 C.2   121  GLY121      0.2611
     83  O         -9.7810   40.1060   14.4820 O.2   121  GLY121     -0.2717
     84  N        -11.5740   38.8800   15.1600 N.am  122  TYR122     -0.1976
     85  CA       -10.8050   37.6800   15.4870 C.3   122  TYR122      0.1639
     86  C        -11.5110   36.4710   14.9040 C.2   122  TYR122      0.2290
     87  O        -12.2480   35.7640   15.5810 O.2   122  TYR122     -0.2864
     88  CB       -10.6170   37.5430   16.9850 C.3   122  TYR122      0.0560
     89  CG        -9.9100   38.7250   17.5760 C.ar  122  TYR122     -0.0198
     90  CD1      -10.6050   39.6800   18.3020 C.ar  122  TYR122     -0.0009
     91  CD2       -8.5530   38.9070   17.3890 C.ar  122  TYR122     -0.0009
     92  CE1       -9.9610   40.7800   18.8370 C.ar  122  TYR122      0.0417
     93  CE2       -7.9010   40.0000   17.9300 C.ar  122  TYR122      0.0417
     94  CZ        -8.6170   40.9340   18.6420 C.ar  122  TYR122      0.1957
     95  OH        -7.9890   42.0210   19.1700 O.3   122  TYR122     -0.2866
     96  N         -5.5940   35.0420   19.1010 N.3   127  GLY127     -0.1210
     97  CA        -4.3180   34.3570   19.0220 C.3   127  GLY127      0.1956
     98  C         -3.3300   35.1800   18.2260 C.2   127  GLY127      0.2612
     99  O         -3.5260   36.3740   18.0170 O.2   127  GLY127     -0.2717
    100  N         -2.2720   34.5190   17.7790 N.am  128  ILE128     -0.1965
    101  CA        -1.2590   35.1250   16.9530 C.3   128  ILE128      0.1727
    102  C         -1.3570   34.4580   15.5990 C.2   128  ILE128      0.2616
    103  O         -1.1930   33.2380   15.4930 O.2   128  ILE128     -0.2715
    104  CB         0.1330   34.9070   17.5360 C.3   128  ILE128      0.0290
    105  CG1        0.1870   35.4550   18.9600 C.3   128  ILE128      0.0022
    106  CG2        1.1700   35.6240   16.6940 C.3   128  ILE128      0.0023
    107  CD1        1.4470   35.0570   19.6920 C.3   128  ILE128      0.0001
    108  N         -1.5900   35.2830   14.5780 N.am  129  TYR129     -0.1960
    109  CA        -1.9690   34.8390   13.2450 C.3   129  TYR129      0.1771
    110  C         -0.8030   34.9580   12.2530 C.2   129  TYR129      0.2620
    111  O         -0.1750   36.0050   12.1350 O.2   129  TYR129     -0.2715
    112  CB        -3.1000   35.7140   12.7200 C.3   129  TYR129      0.0574
    113  CG        -4.4560   35.5270   13.3660 C.ar  129  TYR129     -0.0198
    114  CD1       -4.6590   35.7890   14.7110 C.ar  129  TYR129     -0.0009
    115  CD2       -5.5550   35.1440   12.6010 C.ar  129  TYR129     -0.0009
    116  CE1       -5.9100   35.6560   15.2830 C.ar  129  TYR129      0.0417
    117  CE2       -6.8000   35.0020   13.1660 C.ar  129  TYR129      0.0417
    118  CZ        -6.9700   35.2620   14.5070 C.ar  129  TYR129      0.1957
    119  OH        -8.2150   35.1200   15.0570 O.3   129  TYR129     -0.2866
    120  N         -0.5410   33.8870   11.5210 N.am  130  PHE130     -0.1960
    121  CA         0.5190   33.8700   10.5360 C.3   130  PHE130      0.1771
    122  C         -0.0190   33.4490    9.1730 C.2   130  PHE130      0.2619
    123  O         -1.1400   32.9490    9.0830 O.2   130  PHE130     -0.2715
    124  CB         1.5870   32.8990   10.9850 C.3   130  PHE130      0.0574
    125  CG         2.3070   33.3380   12.2180 C.ar  130  PHE130     -0.0200
    126  CD1        1.8150   33.0140   13.4710 C.ar  130  PHE130     -0.0042
    127  CD2        3.4860   34.0730   12.1230 C.ar  130  PHE130     -0.0042
    128  CE1        2.4820   33.4160   14.6090 C.ar  130  PHE130     -0.0003
    129  CE2        4.1670   34.4730   13.2590 C.ar  130  PHE130     -0.0003
    130  CZ         3.6600   34.1440   14.5080 C.ar  130  PHE130     -0.0000
    131  N          0.7750   33.6610    8.1250 N.am  131  ALA131     -0.1977
    132  CA         0.4480   33.1630    6.7820 C.3   131  ALA131      0.1597
    133  C          1.6430   32.4400    6.1530 C.2   131  ALA131      0.2287
    134  O          2.7990   32.7210    6.4920 O.2   131  ALA131     -0.2864
    135  CB         0.0000   34.3140    5.8890 C.3   131  ALA131      0.0319
    136  N         -0.6350   37.6450    1.4530 N.3   136  LYS136     -0.1231
    137  CA        -1.6150   37.6930    2.5340 C.3   136  LYS136      0.1693
    138  C         -1.1180   38.5860    3.6640 C.2   136  LYS136      0.2592
    139  O         -1.7830   39.5520    4.0280 O.2   136  LYS136     -0.2718
    140  CB        -1.9140   36.2730    3.0410 C.3   136  LYS136      0.0285
    141  CG        -2.7950   36.1450    4.2880 C.3   136  LYS136      0.0035
    142  CD        -4.2670   36.4020    4.0330 C.3   136  LYS136      0.0206
    143  CE        -5.0730   36.4060    5.3350 C.3   136  LYS136      0.1093
    144  NZ        -6.3720   37.1620    5.2330 N.3   136  LYS136     -0.1314
    145  N          0.0530   38.2680    4.2090 N.am  137  SER137     -0.1952
    146  CA         0.6090   39.0280    5.3260 C.3   137  SER137      0.1924
    147  C          0.8620   40.4870    4.9820 C.2   137  SER137      0.2314
    148  O          0.7290   41.3600    5.8320 O.2   137  SER137     -0.2863
    149  CB         1.9110   38.4020    5.8020 C.3   137  SER137      0.2116
    150  OG         1.6640   37.3080    6.6670 O.3   137  SER137     -0.2180
    151  N         -1.4420   43.5970    5.6750 N.3   140  TYR140     -0.1241
    152  CA        -1.5890   44.0660    7.0450 C.3   140  TYR140      0.1605
    153  C         -0.5510   45.1140    7.4150 C.2   140  TYR140      0.2264
    154  O         -0.5280   45.5930    8.5490 O.2   140  TYR140     -0.2867
    155  CB        -1.5560   42.8770    8.0010 C.3   140  TYR140      0.0534
    156  CG        -2.7650   41.9960    7.8130 C.ar  140  TYR140     -0.0201
    157  CD1       -4.0030   42.3510    8.3530 C.ar  140  TYR140     -0.0009
    158  CD2       -2.6930   40.8380    7.0540 C.ar  140  TYR140     -0.0009
    159  CE1       -5.1200   41.5580    8.1580 C.ar  140  TYR140      0.0417
    160  CE2       -3.8070   40.0360    6.8640 C.ar  140  TYR140      0.0417
    161  CZ        -5.0110   40.4020    7.4150 C.ar  140  TYR140      0.1957
    162  OH        -6.1100   39.6010    7.2130 O.3   140  TYR140     -0.2866
    163  N         -4.3170   30.4150    6.8540 N.3   221  GLU221     -0.1245
    164  CA        -3.9430   31.2100    8.0000 C.3   221  GLU221      0.1567
    165  C         -3.5610   30.2310    9.0940 C.2   221  GLU221      0.2260
    166  O         -4.0770   29.1170    9.1340 O.2   221  GLU221     -0.2867
    167  CB        -5.1060   32.0730    8.4610 C.3   221  GLU221      0.0388
    168  CG        -5.7050   32.9700    7.3820 C.3   221  GLU221      0.1160
    169  CD        -6.7910   33.8950    7.9240 C.2   221  GLU221      0.3649
    170  OE1       -7.4610   34.5750    7.1000 O.co2 221  GLU221     -0.2457
    171  OE2       -6.9660   33.9360    9.1690 O.co2 221  GLU221     -0.2457
@<TRIPOS>BOND
     1   136   137    1
     2   137   140    1
     3   137   138    1
     4   140   141    1
     5    12    14   ar
     6    12    10   ar
     7     9    10   ar
     8     9     7   ar
     9    14    13   ar
    10   138   139    2
    11   138   145   am
    12    10     8   ar
    13   142   141    1
    14   142   143    1
    15   145   146    1
    16     7     6   ar
    17    13    11   ar
    18     8     6   ar
    19     8    11   ar
    20   147   146    1
    21   147   148    2
    22     6     5    1
    23   144   143    1
    24   146   149    1
    25   151   152    1
    26   149   150    1
    27   135   132    1
    28   133   134    2
    29   133   132    1
    30     5     2    1
    31   132   131    1
    32   163   164    1
    33   160   158   ar
    34   160   161   ar
    35   152   153    1
    36   152   155    1
    37   158   156   ar
    38   170   169   ar
    39   162   161    1
    40   168   169    1
    41   168   167    1
    42   161   159   ar
    43   153   154    2
    44     2     1    1
    45     2     3    1
    46   156   155    1
    47   156   157   ar
    48   169   171   ar
    49   164   167    1
    50   164   165    1
    51   131   122   am
    52   159   157   ar
    53    26    25    1
    54    26    27    1
    55     3     4    2
    56     3    15   am
    57    25    17   am
    58   123   122    2
    59   165   166    2
    60    15    16    1
    61   122   121    1
    62    17    18    2
    63    17    16    1
    64    27    28    2
    65    16    19    1
    66   121   124    1
    67   121   120    1
    68   124   125    1
    69    19    20    1
    70   120   110   am
    71   127   125   ar
    72   127   129   ar
    73   111   110    2
    74    20    21   ar
    75    20    22   ar
    76   125   126   ar
    77   110   109    1
    78   115   117   ar
    79   115   113   ar
    80    21    23   ar
    81    22    24   ar
    82   112   109    1
    83   112   113    1
    84   117   118   ar
    85   109   108    1
    86   129   130   ar
    87    23    24   ar
    88   113   114   ar
    89   126   128   ar
    90    81    80    1
    91    81    82    1
    92    83    82    2
    93   118   119    1
    94   118   116   ar
    95   130   128   ar
    96   108   102   am
    97    82    84   am
    98   114   116   ar
    99    86    85    1
   100    86    87    2
   101    84    85    1
   102    36    34    1
   103    85    88    1
   104   103   102    2
   105   102   101    1
   106    47    46    1
   107    48    46    1
   108    35    33    1
   109   106   104    1
   110    34    33    1
   111    46    45    1
   112   101   104    1
   113   101   100    1
   114    88    89    1
   115    33    30    1
   116    91    89   ar
   117    91    93   ar
   118   104   105    1
   119    89    90   ar
   120   100    98   am
   121    93    94   ar
   122    99    98    2
   123    98    97    1
   124    45    42    1
   125    90    92   ar
   126    30    31    1
   127    30    29    1
   128    94    92   ar
   129    94    95    1
   130    31    32    2
   131   105   107    1
   132    97    96    1
   133    42    41    1
   134    42    43    1
   135    41    39   am
   136    39    40    2
   137    39    38    1
   138    43    49   am
   139    43    44    2
   140    52    51    2
   141    49    50    1
   142    38    37    1
   143    72    69    1
   144    51    50    1
   145    51    60   am
   146    67    65    1
   147    50    53    1
   148    68    69    1
   149    68    62   am
   150    61    60    1
   151    61    62    1
   152    61    64    1
   153    69    70    1
   154    53    54    1
   155    62    63    2
   156    65    64    1
   157    66    64    1
   158    54    55    1
   159    59    57    1
   160    70    71    2
   161    70    73   am
   162    56    57    2
   163    56    55    1
   164    79    73    1
   165    79    78    1
   166    57    58    1
   167    73    74    1
   168    76    75    2
   169    78    77    1
   170    75    74    1
   171    74    77    1
