@<TRIPOS>MOLECULE
tmp/5ds7B01.pdb
 105 103 0 0 0
SMALL
GASTEIGER

@<TRIPOS>ATOM
      1  N         -7.5250   15.1810  -30.4140 N.3    13  ILE13      -0.1245
      2  CA        -7.0620   13.8230  -30.1690 C.3    13  ILE13       0.1561
      3  C         -6.4740   13.2750  -31.4460 C.2    13  ILE13       0.2260
      4  O         -7.1490   13.2730  -32.4670 O.2    13  ILE13      -0.2867
      5  CB        -8.2270   12.9510  -29.6660 C.3    13  ILE13       0.0252
      6  CG1       -8.7930   13.5610  -28.3760 C.3    13  ILE13       0.0019
      7  CG2       -7.7910   11.5150  -29.4420 C.3    13  ILE13       0.0019
      8  CD1      -10.1310   12.9820  -27.9790 C.3    13  ILE13       0.0001
      9  N         -5.8210    5.5830  -24.9480 N.3    41  SER41      -0.1202
     10  CA        -6.2930    4.5240  -25.8350 C.3    41  SER41       0.2020
     11  C         -7.6430    4.9200  -26.4080 C.2    41  SER41       0.2619
     12  O         -8.3000    5.8300  -25.9120 O.2    41  SER41      -0.2717
     13  CB        -6.3930    3.1880  -25.1020 C.3    41  SER41       0.2103
     14  OG        -5.1130    2.6970  -24.7530 O.3    41  SER41      -0.2182
     15  N         -8.0710    4.2540  -27.4630 N.am   42  GLY42      -0.1942
     16  CA        -9.3080    4.6700  -28.0960 C.3    42  GLY42       0.2014
     17  C         -9.8090    3.7060  -29.1410 C.2    42  GLY42       0.2639
     18  O         -9.0710    2.8650  -29.6550 O.2    42  GLY42      -0.2714
     19  N        -11.0840    3.8530  -29.4530 N.am   43  LYS43      -0.1963
     20  CA       -11.7060    3.1960  -30.5850 C.3    43  LYS43       0.1728
     21  C        -12.1520    4.2680  -31.5530 C.2    43  LYS43       0.2617
     22  O        -12.7590    5.2720  -31.1640 O.2    43  LYS43      -0.2715
     23  CB       -12.8930    2.3440  -30.1360 C.3    43  LYS43       0.0311
     24  CG       -13.8670    1.9470  -31.2440 C.3    43  LYS43       0.0038
     25  CD       -14.9180    0.9620  -30.7120 C.3    43  LYS43       0.0206
     26  CE       -15.8860    0.5000  -31.8010 C.3    43  LYS43       0.1093
     27  NZ       -16.8750    1.5630  -32.1570 N.3    43  LYS43      -0.1314
     28  N        -11.8360    4.0260  -32.8120 N.am   44  GLY44      -0.1940
     29  CA       -12.1240    4.9170  -33.9110 C.3    44  GLY44       0.2014
     30  C        -12.6450    4.1690  -35.1150 C.2    44  GLY44       0.2640
     31  O        -12.7330    2.9530  -35.1140 O.2    44  GLY44      -0.2714
     32  N        -12.9990    4.9100  -36.1480 N.am   45  SER45      -0.1935
     33  CA       -13.5340    4.3000  -37.3420 C.3    45  SER45       0.2055
     34  C        -12.5140    3.3210  -37.8890 C.2    45  SER45       0.2643
     35  O        -12.8630    2.2380  -38.3090 O.2    45  SER45      -0.2714
     36  CB       -13.8450    5.3770  -38.3780 C.3    45  SER45       0.2130
     37  OG       -12.6920    6.1230  -38.6990 O.3    45  SER45      -0.2179
     38  N        -11.2490    3.7050  -37.8630 N.am   46  HIS46      -0.1973
     39  CA       -10.1600    2.8590  -38.3490 C.3    46  HIS46       0.1656
     40  C         -9.9250    1.5590  -37.5770 C.2    46  HIS46       0.2291
     41  O         -9.6240    0.5280  -38.1700 O.2    46  HIS46      -0.2864
     42  CB        -8.8650    3.6630  -38.4210 C.3    46  HIS46       0.0771
     43  CG        -8.9900    4.9290  -39.2060 C.ar   46  HIS46       0.0820
     44  ND1       -9.7070    6.0140  -38.7580 N.ar   46  HIS46      -0.2267
     45  CD2       -8.5090    5.2740  -40.4210 C.ar   46  HIS46       0.1154
     46  CE1       -9.6460    6.9830  -39.6520 C.ar   46  HIS46       0.1986
     47  NE2       -8.9300    6.5560  -40.6750 N.ar   46  HIS46      -0.2212
     48  N         -6.7710    1.9020  -30.9520 N.3    49  TYR49      -0.1241
     49  CA        -5.4640    2.4510  -30.6480 C.3    49  TYR49       0.1605
     50  C         -5.1680    2.1190  -29.2000 C.2    49  TYR49       0.2264
     51  O         -5.8770    2.5600  -28.3180 O.2    49  TYR49      -0.2867
     52  CB        -5.4390    3.9590  -30.8610 C.3    49  TYR49       0.0534
     53  CG        -5.4090    4.3630  -32.3230 C.ar   49  TYR49      -0.0201
     54  CD1       -4.2130    4.4710  -32.9990 C.ar   49  TYR49      -0.0009
     55  CD2       -6.5770    4.6270  -33.0180 C.ar   49  TYR49      -0.0009
     56  CE1       -4.1760    4.8280  -34.3330 C.ar   49  TYR49       0.0417
     57  CE2       -6.5530    4.9910  -34.3520 C.ar   49  TYR49       0.0417
     58  CZ        -5.3460    5.0890  -35.0050 C.ar   49  TYR49       0.1957
     59  OH        -5.2910    5.4410  -36.3380 O.3    49  TYR49      -0.2866
     60  N         -1.5580    7.6200  -28.9550 N.3    61  LEU61      -0.1245
     61  CA        -2.5260    8.7070  -28.9870 C.3    61  LEU61       0.1561
     62  C         -2.3090    9.7490  -27.8870 C.2    61  LEU61       0.2260
     63  O         -1.9880    9.4020  -26.7480 O.2    61  LEU61      -0.2867
     64  CB        -3.9570    8.1750  -28.8540 C.3    61  LEU61       0.0270
     65  CG        -4.7220    7.6300  -30.0510 C.3    61  LEU61       0.0019
     66  CD1       -6.1440    7.3560  -29.6080 C.3    61  LEU61       0.0001
     67  CD2       -4.6750    8.5490  -31.2740 C.3    61  LEU61       0.0001
     68  N         -5.7640   11.6830  -41.8480 N.3    87  HIS87      -0.1226
     69  CA        -5.2360   11.0650  -40.6290 C.3    87  HIS87       0.1752
     70  C         -6.3050   10.8740  -39.5560 C.2    87  HIS87       0.2597
     71  O         -7.3200   11.5530  -39.5550 O.2    87  HIS87      -0.2718
     72  CB        -4.0930   11.9030  -40.0420 C.3    87  HIS87       0.0759
     73  CG        -2.9180   12.0670  -40.9610 C.ar   87  HIS87       0.0818
     74  ND1       -2.5900   13.2740  -41.5420 N.ar   87  HIS87      -0.2268
     75  CD2       -1.9890   11.1810  -41.3870 C.ar   87  HIS87       0.1154
     76  CE1       -1.5090   13.1270  -42.2850 C.ar   87  HIS87       0.1986
     77  NE2       -1.1270   11.8650  -42.2130 N.ar   87  HIS87      -0.2212
     78  N         -6.0480    9.9450  -38.6420 N.am   88  SER88      -0.1938
     79  CA        -6.9540    9.6660  -37.5330 C.3    88  SER88       0.2055
     80  C         -7.0790   10.8530  -36.6000 C.2    88  SER88       0.2644
     81  O         -6.1010   11.5610  -36.3870 O.2    88  SER88      -0.2714
     82  CB        -6.4620    8.4490  -36.7340 C.3    88  SER88       0.2130
     83  OG        -6.9560    7.2450  -37.2870 O.3    88  SER88      -0.2179
     84  N         -8.2700   11.0650  -36.0330 N.am   89  GLY89      -0.1939
     85  CA        -8.4320   12.0420  -34.9650 C.3    89  GLY89       0.2014
     86  C         -9.7220   12.8440  -34.9810 C.2    89  GLY89       0.2638
     87  O        -10.4990   12.7520  -35.9240 O.2    89  GLY89      -0.2714
     88  N         -9.9410   13.6490  -33.9360 N.am   90  VAL90      -0.1977
     89  CA       -11.1590   14.4560  -33.8020 C.3    90  VAL90       0.1596
     90  C        -10.8400   15.7490  -33.0560 C.2    90  VAL90       0.2287
     91  O         -9.8500   15.8090  -32.3360 O.2    90  VAL90      -0.2864
     92  CB       -12.2750   13.6870  -33.0530 C.3    90  VAL90       0.0276
     93  CG1      -12.7300   12.4910  -33.8490 C.3    90  VAL90       0.0022
     94  CG2      -11.7870   13.2390  -31.6790 C.3    90  VAL90       0.0022
     95  N        -12.9130   18.5790  -30.5340 N.3    92  PHE92      -0.1241
     96  CA       -14.1220   18.9450  -29.7970 C.3    92  PHE92       0.1605
     97  C        -14.0000   20.3950  -29.3390 C.2    92  PHE92       0.2264
     98  O        -13.0580   20.7190  -28.6320 O.2    92  PHE92      -0.2867
     99  CB       -14.3240   18.0540  -28.5610 C.3    92  PHE92       0.0534
    100  CG       -14.3960   16.5810  -28.8580 C.ar   92  PHE92      -0.0203
    101  CD1      -14.9550   16.1250  -30.0350 C.ar   92  PHE92      -0.0042
    102  CD2      -13.9070   15.6550  -27.9380 C.ar   92  PHE92      -0.0042
    103  CE1      -15.0260   14.7890  -30.3030 C.ar   92  PHE92      -0.0003
    104  CE2      -13.9640   14.3010  -28.1980 C.ar   92  PHE92      -0.0003
    105  CZ       -14.5150   13.8630  -29.3900 C.ar   92  PHE92      -0.0000
@<TRIPOS>BOND
     1    76    77   ar
     2    76    74   ar
     3    77    75   ar
     4    68    69    1
     5    74    73   ar
     6    75    73   ar
     7    73    72    1
     8    47    45   ar
     9    47    46   ar
    10    69    72    1
    11    69    70    1
    12    45    43   ar
    13    46    44   ar
    14    70    71    2
    15    70    78   am
    16    43    44   ar
    17    43    42    1
    18    37    36    1
    19    78    79    1
    20    42    39    1
    21    36    33    1
    22    39    38    1
    23    39    40    1
    24    35    34    2
    25    41    40    2
    26    34    38   am
    27    34    33    1
    28    79    82    1
    29    79    80    1
    30    33    32    1
    31    83    82    1
    32    80    81    2
    33    80    84   am
    34    59    58    1
    35    32    30   am
    36    84    85    1
    37    87    86    2
    38    30    31    2
    39    30    29    1
    40    58    57   ar
    41    58    56   ar
    42    86    85    1
    43    86    88   am
    44    57    55   ar
    45    56    54   ar
    46    88    89    1
    47    29    28    1
    48    93    92    1
    49    89    90    1
    50    89    92    1
    51    90    91    2
    52    92    94    1
    53    55    53   ar
    54    54    53   ar
    55    28    21   am
    56     4     3    2
    57    53    52    1
    58    27    26    1
    59    26    25    1
    60    21    22    2
    61    21    20    1
    62     3     2    1
    63    67    65    1
    64    24    25    1
    65    24    23    1
    66    48    49    1
    67    52    49    1
    68    49    50    1
    69    20    23    1
    70    20    19    1
    71    95    96    1
    72     1     2    1
    73   103   101   ar
    74   103   105   ar
    75     2     5    1
    76    65    66    1
    77    65    64    1
    78   101   100   ar
    79    96    97    1
    80    96    99    1
    81     5     7    1
    82     5     6    1
    83    18    17    2
    84    19    17   am
    85   105   104   ar
    86    97    98    2
    87    50    51    2
    88    17    16    1
    89    61    60    1
    90    61    64    1
    91    61    62    1
    92   100    99    1
    93   100   102   ar
    94     6     8    1
    95   104   102   ar
    96    16    15    1
    97    62    63    2
    98    15    11   am
    99    11    12    2
   100    11    10    1
   101    10    13    1
   102    10     9    1
   103    13    14    1
