@<TRIPOS>MOLECULE
tmp/5dsgB07.pdb
 144 137 0 0 0
SMALL
GASTEIGER

@<TRIPOS>ATOM
      1  N         58.2990    5.1090   97.9370 N.3    94  ASN94      -0.1240
      2  CA        57.1610    5.6090   97.1750 C.3    94  ASN94       0.1653
      3  C         56.8220    7.0310   97.6030 C.2    94  ASN94       0.2266
      4  O         56.4940    7.8840   96.7750 O.2    94  ASN94      -0.2867
      5  CB        55.9490    4.6970   97.3550 C.3    94  ASN94       0.1155
      6  CG        54.8500    4.9890   96.3600 C.2    94  ASN94       0.2627
      7  OD1       54.8430    4.4510   95.2530 O.2    94  ASN94      -0.2716
      8  ND2       53.9140    5.8490   96.7450 N.am   94  ASN94      -0.0877
      9  N         59.1970    9.3220   95.9080 N.3    97  VAL97      -0.1231
     10  CA        58.7860    9.5700   94.5270 C.3    97  VAL97       0.1692
     11  C         57.6560   10.5980   94.4590 C.2    97  VAL97       0.2591
     12  O         57.7440   11.5880   93.7230 O.2    97  VAL97      -0.2718
     13  CB        58.3280    8.2750   93.8260 C.3    97  VAL97       0.0266
     14  CG1       57.7700    8.5880   92.4460 C.3    97  VAL97       0.0020
     15  CG2       59.4780    7.2850   93.7320 C.3    97  VAL97       0.0020
     16  N         56.6030   10.3640   95.2380 N.am   98  MET98      -0.1979
     17  CA        55.4650   11.2780   95.2680 C.3    98  MET98       0.1605
     18  C         55.8830   12.6590   95.7630 C.2    98  MET98       0.2287
     19  O         55.3260   13.6730   95.3430 O.2    98  MET98      -0.2864
     20  CB        54.3450   10.7170   96.1450 C.3    98  MET98       0.0413
     21  CG        53.5620    9.5880   95.4940 C.3    98  MET98       0.0598
     22  SD        52.1380    9.0710   96.4700 S.3    98  MET98      -0.1393
     23  CE        51.0580   10.4830   96.2580 C.3    98  MET98       0.0692
     24  N         57.3480   14.3800   92.8940 N.3   101  LEU101     -0.1245
     25  CA        56.2220   14.8060   92.0680 C.3   101  LEU101      0.1561
     26  C         55.6390   16.1240   92.5750 C.2   101  LEU101      0.2260
     27  O         55.4220   17.0600   91.7980 O.2   101  LEU101     -0.2867
     28  CB        55.1390   13.7270   92.0380 C.3   101  LEU101      0.0270
     29  CG        55.3550   12.5730   91.0580 C.3   101  LEU101      0.0019
     30  CD1       54.3140   11.4860   91.2770 C.3   101  LEU101      0.0001
     31  CD2       55.3140   13.0770   89.6240 C.3   101  LEU101      0.0001
     32  N         48.7990    2.2700   99.5680 N.3   140  LEU140     -0.1231
     33  CA        49.0530    1.5670   98.3160 C.3   140  LEU140      0.1693
     34  C         50.0300    0.4050   98.4750 C.2   140  LEU140      0.2592
     35  O         49.9070   -0.6060   97.7830 O.2   140  LEU140     -0.2718
     36  CB        49.5790    2.5360   97.2540 C.3   140  LEU140      0.0284
     37  CG        48.5390    3.4370   96.5830 C.3   140  LEU140      0.0019
     38  CD1       49.2010    4.3740   95.5860 C.3   140  LEU140      0.0001
     39  CD2       47.4600    2.6040   95.9060 C.3   140  LEU140      0.0001
     40  N         50.9950    0.5370   99.3810 N.am  141  TRP141     -0.1976
     41  CA        52.0420   -0.4770   99.4770 C.3   141  TRP141      0.1640
     42  C         51.9130   -1.4410  100.6580 C.2   141  TRP141      0.2290
     43  O         52.0440   -2.6520  100.4810 O.2   141  TRP141     -0.2864
     44  CB        53.4140    0.1970   99.5220 C.3   141  TRP141      0.0576
     45  CG        53.9800    0.4360   98.1610 C.ar  141  TRP141      0.0006
     46  CD1       54.1160    1.6340   97.5250 C.ar  141  TRP141      0.0946
     47  CD2       54.4690   -0.5580   97.2560 C.ar  141  TRP141      0.0152
     48  NE1       54.6710    1.4480   96.2810 N.ar  141  TRP141     -0.2442
     49  CE2       54.8970    0.1100   96.0920 C.ar  141  TRP141      0.0810
     50  CE3       54.5930   -1.9490   97.3190 C.ar  141  TRP141      0.0012
     51  CZ2       55.4380   -0.5650   95.0010 C.ar  141  TRP141      0.0191
     52  CZ3       55.1300   -2.6180   96.2360 C.ar  141  TRP141      0.0001
     53  CH2       55.5470   -1.9260   95.0940 C.ar  141  TRP141      0.0015
     54  N         49.4670   -4.5220  100.3830 N.3   144  ALA144     -0.1245
     55  CA        49.9080   -5.4690   99.3650 C.3   144  ALA144      0.1562
     56  C         51.0900   -6.3040   99.8530 C.2   144  ALA144      0.2260
     57  O         51.2390   -7.4660   99.4780 O.2   144  ALA144     -0.2867
     58  CB        50.2710   -4.7360   98.0830 C.3   144  ALA144      0.0290
     59  N         48.9860   -9.8390  101.4530 N.3   148  TRP148     -0.1241
     60  CA        48.8840  -10.7090  100.2830 C.3   148  TRP148      0.1605
     61  C         49.0090  -12.1780  100.6720 C.2   148  TRP148      0.2264
     62  O         48.3230  -13.0380  100.1180 O.2   148  TRP148     -0.2867
     63  CB        49.9440  -10.3640   99.2400 C.3   148  TRP148      0.0550
     64  CG        49.8530  -11.2300   98.0220 C.ar  148  TRP148      0.0003
     65  CD1       50.7540  -12.1700   97.6150 C.ar  148  TRP148      0.0946
     66  CD2       48.7890  -11.2530   97.0620 C.ar  148  TRP148      0.0152
     67  NE1       50.3230  -12.7700   96.4560 N.ar  148  TRP148     -0.2442
     68  CE2       49.1190  -12.2240   96.0960 C.ar  148  TRP148      0.0810
     69  CE3       47.5910  -10.5440   96.9240 C.ar  148  TRP148      0.0012
     70  CZ2       48.2950  -12.5040   95.0070 C.ar  148  TRP148      0.0191
     71  CZ3       46.7760  -10.8230   95.8430 C.ar  148  TRP148      0.0001
     72  CH2       47.1310  -11.7940   94.8990 C.ar  148  TRP148      0.0015
     73  N         46.2530  -15.0450   99.7660 N.3   152  VAL152     -0.1245
     74  CA        46.6480  -16.3030   99.1430 C.3   152  VAL152      0.1561
     75  C         46.3950  -17.4760  100.0870 C.2   152  VAL152      0.2260
     76  O         45.9940  -18.5600   99.6600 O.2   152  VAL152     -0.2867
     77  CB        48.1360  -16.2760   98.7280 C.3   152  VAL152      0.0252
     78  CG1       48.5950  -17.6450   98.2490 C.3   152  VAL152      0.0019
     79  CG2       48.3600  -15.2350   97.6460 C.3   152  VAL152      0.0019
     80  N         56.2820  -11.1930   98.3720 N.3   165  GLN165     -0.1231
     81  CA        55.5390  -12.2870   97.7520 C.3   165  GLN165      0.1698
     82  C         54.5850  -11.7590   96.6850 C.2   165  GLN165      0.2592
     83  O         54.2990  -12.4340   95.6950 O.2   165  GLN165     -0.2718
     84  CB        54.7670  -13.0690   98.8160 C.3   165  GLN165      0.0381
     85  CG        53.9900  -14.2610   98.2890 C.3   165  GLN165      0.0905
     86  CD        53.3160  -15.0460   99.3980 C.2   165  GLN165      0.2608
     87  OE1       53.7520  -15.0140  100.5490 O.2   165  GLN165     -0.2717
     88  NE2       52.2470  -15.7570   99.0560 N.am  165  GLN165     -0.0878
     89  N         54.1030  -10.5410   96.9030 N.am  166  PHE166     -0.1976
     90  CA        53.1830   -9.8760   95.9890 C.3   166  PHE166      0.1639
     91  C         53.8260   -9.6120   94.6270 C.2   166  PHE166      0.2290
     92  O         53.1480   -9.6250   93.5990 O.2   166  PHE166     -0.2864
     93  CB        52.6990   -8.5670   96.6240 C.3   166  PHE166      0.0560
     94  CG        51.9890   -7.6480   95.6750 C.ar  166  PHE166     -0.0200
     95  CD1       50.6610   -7.8550   95.3490 C.ar  166  PHE166     -0.0042
     96  CD2       52.6480   -6.5600   95.1250 C.ar  166  PHE166     -0.0042
     97  CE1       50.0070   -7.0010   94.4840 C.ar  166  PHE166     -0.0003
     98  CE2       52.0000   -5.7050   94.2570 C.ar  166  PHE166     -0.0003
     99  CZ        50.6780   -5.9260   93.9350 C.ar  166  PHE166     -0.0000
    100  N         56.0560  -11.4560   93.0360 N.3   168  SER168     -0.1202
    101  CA        56.6930  -12.6820   92.5640 C.3   168  SER168      0.2020
    102  C         56.6660  -12.7910   91.0420 C.2   168  SER168      0.2618
    103  O         57.6580  -13.1720   90.4200 O.2   168  SER168     -0.2717
    104  CB        56.0190  -13.9050   93.1870 C.3   168  SER168      0.2103
    105  OG        56.1100  -13.8690   94.6000 O.3   168  SER168     -0.2182
    106  N         55.5250  -12.4550   90.4500 N.am  169  ASN169     -0.1974
    107  CA        55.3580  -12.5060   89.0030 C.3   169  ASN169      0.1688
    108  C         56.0240  -11.3120   88.3240 C.2   169  ASN169      0.2292
    109  O         55.7090  -10.1650   88.6410 O.2   169  ASN169     -0.2864
    110  CB        53.8690  -12.5580   88.6480 C.3   169  ASN169      0.1181
    111  CG        53.6220  -12.6300   87.1540 C.2   169  ASN169      0.2629
    112  OD1       54.4230  -13.1840   86.4040 O.2   169  ASN169     -0.2716
    113  ND2       52.5020  -12.0690   86.7150 N.am  169  ASN169     -0.0877
    114  N         53.7000   -8.5940   87.0440 N.3   172  VAL172     -0.1245
    115  CA        53.1850   -7.7490   88.1160 C.3   172  VAL172      0.1561
    116  C         54.2530   -6.7710   88.5970 C.2   172  VAL172      0.2260
    117  O         53.9690   -5.5970   88.8410 O.2   172  VAL172     -0.2867
    118  CB        52.6890   -8.5920   89.3090 C.3   172  VAL172      0.0252
    119  CG1       52.1540   -7.6940   90.4160 C.3   172  VAL172      0.0019
    120  CG2       51.6230   -9.5760   88.8540 C.3   172  VAL172      0.0019
    121  N         53.8860   -2.7660   88.1750 N.3   176  THR176     -0.1218
    122  CA        54.0710   -1.9860   89.3880 C.3   176  THR176      0.1862
    123  C         55.1750   -0.9530   89.1930 C.2   176  THR176      0.2287
    124  O         55.0500    0.1850   89.6360 O.2   176  THR176     -0.2866
    125  CB        54.4150   -2.8830   90.5920 C.3   176  THR176      0.1770
    126  OG1       53.3810   -3.8570   90.7790 O.3   176  THR176     -0.2211
    127  CG2       54.5390   -2.0500   91.8480 C.3   176  THR176      0.0375
    128  N         53.7770    1.9000   87.0770 N.3   179  ALA179     -0.1231
    129  CA        52.8960    2.7690   87.8510 C.3   179  ALA179      0.1694
    130  C         53.6580    3.5890   88.8950 C.2   179  ALA179      0.2591
    131  O         53.2450    4.6930   89.2500 O.2   179  ALA179     -0.2718
    132  CB        51.8080    1.9460   88.5230 C.3   179  ALA179      0.0304
    133  N         54.7700    3.0460   89.3800 N.am  180  ALA180     -0.1980
    134  CA        55.4980    3.6430   90.4970 C.3   180  ALA180      0.1597
    135  C         56.7180    4.4590   90.0660 C.2   180  ALA180      0.2287
    136  O         56.9960    5.5110   90.6410 O.2   180  ALA180     -0.2864
    137  CB        55.9180    2.5620   91.4850 C.3   180  ALA180      0.0319
    138  N         55.9040    8.3750   86.7940 N.3   184  PRO184     -0.2116
    139  CA        56.3280    9.5950   87.4900 C.3   184  PRO184      0.1372
    140  C         57.5890   10.2210   86.8950 C.2   184  PRO184      0.2244
    141  O         57.6880   11.4440   86.8630 O.2   184  PRO184     -0.2868
    142  CB        56.5900    9.1100   88.9190 C.3   184  PRO184      0.0268
    143  CG        55.7220    7.9240   89.0700 C.3   184  PRO184      0.0207
    144  CD        55.7550    7.2490   87.7370 C.3   184  PRO184      0.0892
@<TRIPOS>BOND
     1   112   111    2
     2   113   111   am
     3   138   139    1
     4   138   144    1
     5   141   140    2
     6   140   139    1
     7   114   115    1
     8   128   129    1
     9   111   110    1
    10   139   142    1
    11   144   143    1
    12   129   132    1
    13   129   130    1
    14   115   116    1
    15   115   118    1
    16   121   122    1
    17   108   109    2
    18   108   107    1
    19   116   117    2
    20   110   107    1
    21   120   118    1
    22   130   131    2
    23   130   133   am
    24   142   143    1
    25   107   106    1
    26   123   122    1
    27   123   124    2
    28   118   119    1
    29   133   134    1
    30   122   125    1
    31    31    29    1
    32   135   134    1
    33   135   136    2
    34   103   102    2
    35   106   102   am
    36   134   137    1
    37   125   126    1
    38   125   127    1
    39   102   101    1
    40    29    30    1
    41    29    28    1
    42    27    26    2
    43    28    25    1
    44    25    26    1
    45    25    24    1
    46    14    13    1
    47   101   100    1
    48   101   104    1
    49   104   105    1
    50    92    91    2
    51    12    11    2
    52    15    13    1
    53    13    10    1
    54    99    98   ar
    55    99    97   ar
    56    98    96   ar
    57    11    10    1
    58    11    16   am
    59    97    95   ar
    60    10     9    1
    61    91    90    1
    62    72    70   ar
    63    72    71   ar
    64    51    53   ar
    65    51    49   ar
    66    70    68   ar
    67    53    52   ar
    68    96    94   ar
    69    16    17    1
    70     7     6    2
    71    17    18    1
    72    17    20    1
    73    19    18    2
    74    95    94   ar
    75    21    20    1
    76    21    22    1
    77    38    37    1
    78    94    93    1
    79    83    82    2
    80    71    69   ar
    81    39    37    1
    82    90    93    1
    83    90    89    1
    84    49    48   ar
    85    49    47   ar
    86    68    67   ar
    87    68    66   ar
    88    52    50   ar
    89    23    22    1
    90    48    46   ar
    91     6     8   am
    92     6     5    1
    93    67    65   ar
    94    37    36    1
    95    82    89   am
    96    82    81    1
    97     4     3    2
    98    69    66   ar
    99    66    64   ar
   100     2     5    1
   101     2     3    1
   102     2     1    1
   103    36    33    1
   104    47    50   ar
   105    47    45   ar
   106    46    45   ar
   107    65    64   ar
   108    79    77    1
   109    81    80    1
   110    81    84    1
   111    35    34    2
   112    64    63    1
   113    58    55    1
   114    45    44    1
   115    78    77    1
   116    85    84    1
   117    85    86    1
   118    33    34    1
   119    33    32    1
   120    34    40   am
   121    77    74    1
   122    88    86   am
   123    74    73    1
   124    74    75    1
   125    63    60    1
   126    55    56    1
   127    55    54    1
   128    40    41    1
   129    86    87    2
   130    41    44    1
   131    41    42    1
   132    57    56    2
   133    76    75    2
   134    62    61    2
   135    60    61    1
   136    60    59    1
   137    43    42    2
