@<TRIPOS>MOLECULE
tmp/5dsgB05.pdb
 119 113 0 0 0
SMALL
GASTEIGER

@<TRIPOS>ATOM
      1  N         59.6930   22.9890  103.2080 N.3    46  TYR46      -0.1241
      2  CA        58.8070   22.0210  103.8460 C.3    46  TYR46       0.1605
      3  C         58.8410   20.7310  103.0350 C.2    46  TYR46       0.2264
      4  O         58.9880   19.6330  103.5870 O.2    46  TYR46      -0.2867
      5  CB        57.3740   22.5490  103.9570 C.3    46  TYR46       0.0534
      6  CG        57.1340   23.4770  105.1290 C.ar   46  TYR46      -0.0201
      7  CD1       57.4190   24.8320  105.0380 C.ar   46  TYR46      -0.0009
      8  CD2       56.6180   22.9950  106.3250 C.ar   46  TYR46      -0.0009
      9  CE1       57.2000   25.6830  106.1060 C.ar   46  TYR46       0.0417
     10  CE2       56.3950   23.8390  107.3990 C.ar   46  TYR46       0.0417
     11  CZ        56.6880   25.1820  107.2840 C.ar   46  TYR46       0.1957
     12  OH        56.4680   26.0260  108.3490 O.3    46  TYR46      -0.2866
     13  N         62.0580   19.1830  103.4230 N.3    49  PHE49      -0.1227
     14  CA        62.0910   18.5970  104.7590 C.3    49  PHE49       0.1736
     15  C         61.4850   17.2000  104.7450 C.2    49  PHE49       0.2596
     16  O         62.0410   16.2710  105.3320 O.2    49  PHE49      -0.2718
     17  CB        61.3460   19.4840  105.7600 C.3    49  PHE49       0.0547
     18  CG        61.4750   19.0330  107.1880 C.ar   49  PHE49      -0.0202
     19  CD1       62.5120   19.4960  107.9810 C.ar   49  PHE49      -0.0042
     20  CD2       60.5550   18.1570  107.7400 C.ar   49  PHE49      -0.0042
     21  CE1       62.6330   19.0860  109.2950 C.ar   49  PHE49      -0.0003
     22  CE2       60.6710   17.7430  109.0540 C.ar   49  PHE49      -0.0003
     23  CZ        61.7120   18.2090  109.8320 C.ar   49  PHE49      -0.0000
     24  N         60.3390   17.0600  104.0830 N.am   50  SER50      -0.1952
     25  CA        59.6990   15.7540  103.9380 C.3    50  SER50       0.1924
     26  C         60.6350   14.7630  103.2460 C.2    50  SER50       0.2314
     27  O         60.8370   13.6290  103.7160 O.2    50  SER50      -0.2863
     28  CB        58.3900   15.8830  103.1560 C.3    50  SER50       0.2116
     29  OG        57.7790   14.6190  102.9710 O.3    50  SER50      -0.2180
     30  N         63.2610   13.6480  105.4860 N.3    53  CYS53      -0.1235
     31  CA        62.7630   12.6590  106.4360 C.3    53  CYS53       0.1677
     32  C         62.7980   11.2690  105.8170 C.2    53  CYS53       0.2270
     33  O         63.2930   10.3140  106.4290 O.2    53  CYS53      -0.2867
     34  CB        61.3400   13.0010  106.8840 C.3    53  CYS53       0.0956
     35  SG        61.2030   14.5010  107.8800 S.3    53  CYS53      -0.0801
     36  N         65.1010    8.0650  107.0110 N.3    57  ILE57      -0.1245
     37  CA        64.6010    6.7300  107.3240 C.3    57  ILE57       0.1561
     38  C         65.3050    5.6730  106.4750 C.2    57  ILE57       0.2260
     39  O         65.6870    4.6150  106.9780 O.2    57  ILE57      -0.2867
     40  CB        63.0780    6.6290  107.1120 C.3    57  ILE57       0.0252
     41  CG1       62.3470    7.5980  108.0430 C.3    57  ILE57       0.0019
     42  CG2       62.5950    5.2070  107.3530 C.3    57  ILE57       0.0019
     43  CD1       60.8400    7.5570  107.9070 C.3    57  ILE57       0.0001
     44  N         58.0450   -6.0700  108.0140 N.3    84  LEU84      -0.1245
     45  CA        58.1600   -4.6920  108.4840 C.3    84  LEU84       0.1561
     46  C         59.1690   -3.9040  107.6500 C.2    84  LEU84       0.2260
     47  O         58.9150   -2.7610  107.2650 O.2    84  LEU84      -0.2867
     48  CB        58.5570   -4.6610  109.9620 C.3    84  LEU84       0.0270
     49  CG        57.5490   -5.2490  110.9510 C.3    84  LEU84       0.0019
     50  CD1       58.1050   -5.2180  112.3660 C.3    84  LEU84       0.0001
     51  CD2       56.2250   -4.5040  110.8740 C.3    84  LEU84       0.0001
     52  N         57.8540   -3.3500  103.9730 N.3    87  ALA87      -0.1231
     53  CA        56.8200   -2.3260  104.0420 C.3    87  ALA87       0.1694
     54  C         57.4370   -0.9410  104.2030 C.2    87  ALA87       0.2591
     55  O         57.1230   -0.0250  103.4440 O.2    87  ALA87      -0.2718
     56  CB        55.8600   -2.6180  105.1840 C.3    87  ALA87       0.0304
     57  N         58.3240   -0.8040  105.1860 N.am   88  LEU88      -0.1980
     58  CA        59.0220    0.4560  105.4270 C.3    88  LEU88       0.1596
     59  C         59.7260    0.9460  104.1640 C.2    88  LEU88       0.2287
     60  O         59.5120    2.0760  103.7230 O.2    88  LEU88      -0.2864
     61  CB        60.0330    0.3030  106.5640 C.3    88  LEU88       0.0297
     62  CG        60.7770    1.5790  106.9630 C.3    88  LEU88       0.0022
     63  CD1       59.8000    2.6190  107.4860 C.3    88  LEU88       0.0001
     64  CD2       61.8550    1.2830  107.9950 C.3    88  LEU88       0.0001
     65  N         57.1280    1.7660  101.1400 N.3    91  VAL91      -0.1231
     66  CA        56.2740    2.8980  101.4910 C.3    91  VAL91       0.1692
     67  C         57.0710    4.2030  101.5140 C.2    91  VAL91       0.2591
     68  O         56.6550    5.1990  100.9190 O.2    91  VAL91      -0.2718
     69  CB        55.5860    2.6960  102.8580 C.3    91  VAL91       0.0266
     70  CG1       54.9890    4.0040  103.3550 C.3    91  VAL91       0.0020
     71  CG2       54.5120    1.6220  102.7570 C.3    91  VAL91       0.0020
     72  N         58.2160    4.1950  102.1920 N.am   92  VAL92      -0.1980
     73  CA        59.0470    5.3930  102.2950 C.3    92  VAL92       0.1595
     74  C         59.5940    5.8210  100.9310 C.2    92  VAL92       0.2287
     75  O         59.5930    7.0080  100.5990 O.2    92  VAL92      -0.2864
     76  CB        60.2210    5.1850  103.2800 C.3    92  VAL92       0.0276
     77  CG1       61.2290    6.3190  103.1690 C.3    92  VAL92       0.0022
     78  CG2       59.7020    5.0760  104.7070 C.3    92  VAL92       0.0022
     79  N         51.9640   16.7630  101.4900 N.3   130  ILE130     -0.1245
     80  CA        52.9290   15.8520  102.1010 C.3   130  ILE130      0.1561
     81  C         52.2230   14.6680  102.7590 C.2   130  ILE130      0.2260
     82  O         52.5520   13.4980  102.5030 O.2   130  ILE130     -0.2867
     83  CB        53.7970   16.5770  103.1470 C.3   130  ILE130      0.0252
     84  CG1       54.5910   17.7070  102.4870 C.3   130  ILE130      0.0019
     85  CG2       54.7320   15.5990  103.8370 C.3   130  ILE130      0.0019
     86  CD1       55.3950   18.5400  103.4610 C.3   130  ILE130      0.0001
     87  N         52.5160   10.5980  101.8690 N.3   134  TRP134     -0.1241
     88  CA        52.8530    9.5290  102.8080 C.3   134  TRP134      0.1605
     89  C         51.6970    8.5470  103.0240 C.2   134  TRP134      0.2264
     90  O         51.8830    7.3270  102.9490 O.2   134  TRP134     -0.2867
     91  CB        53.2940   10.1230  104.1470 C.3   134  TRP134      0.0550
     92  CG        54.6630   10.7310  104.1030 C.ar  134  TRP134      0.0003
     93  CD1       54.9830   12.0090  103.7480 C.ar  134  TRP134      0.0946
     94  CD2       55.9000   10.0840  104.4300 C.ar  134  TRP134      0.0152
     95  NE1       56.3420   12.1980  103.8300 N.ar  134  TRP134     -0.2442
     96  CE2       56.9270   11.0320  104.2470 C.ar  134  TRP134      0.0810
     97  CE3       56.2370    8.7970  104.8580 C.ar  134  TRP134      0.0012
     98  CZ2       58.2690   10.7320  104.4780 C.ar  134  TRP134      0.0191
     99  CZ3       57.5700    8.5010  105.0870 C.ar  134  TRP134      0.0001
    100  CH2       58.5690    9.4650  104.8960 C.ar  134  TRP134      0.0015
    101  N         51.4990    4.5850  101.9650 N.3   138  PHE138     -0.1241
    102  CA        51.2040    3.5320  102.9310 C.3   138  PHE138      0.1605
    103  C         50.0200    2.6760  102.4830 C.2   138  PHE138      0.2264
    104  O         50.1060    1.4510  102.4620 O.2   138  PHE138     -0.2867
    105  CB        50.9240    4.1320  104.3120 C.3   138  PHE138      0.0534
    106  CG        50.6990    3.1030  105.3850 C.ar  138  PHE138     -0.0203
    107  CD1       51.7720    2.5150  106.0340 C.ar  138  PHE138     -0.0042
    108  CD2       49.4160    2.7240  105.7450 C.ar  138  PHE138     -0.0042
    109  CE1       51.5710    1.5680  107.0200 C.ar  138  PHE138     -0.0003
    110  CE2       49.2080    1.7770  106.7300 C.ar  138  PHE138     -0.0003
    111  CZ        50.2870    1.1990  107.3680 C.ar  138  PHE138     -0.0000
    112  N         51.8950   -6.7940  103.2520 N.3   146  LEU146     -0.1245
    113  CA        51.6110   -7.4970  104.4980 C.3   146  LEU146      0.1561
    114  C         50.4640   -8.4990  104.3740 C.2   146  LEU146      0.2260
    115  O         50.5150   -9.5810  104.9600 O.2   146  LEU146     -0.2867
    116  CB        51.2940   -6.4950  105.6120 C.3   146  LEU146      0.0270
    117  CG        52.3590   -5.4440  105.9360 C.3   146  LEU146      0.0019
    118  CD1       51.8970   -4.5470  107.0760 C.3   146  LEU146      0.0001
    119  CD2       53.6910   -6.0990  106.2700 C.3   146  LEU146      0.0001
@<TRIPOS>BOND
     1    75    74    2
     2    68    67    2
     3    74    73    1
     4    65    66    1
     5    79    80    1
     6    66    67    1
     7    66    69    1
     8    67    72   am
     9    87    88    1
    10   101   102    1
    11    80    81    1
    12    80    83    1
    13    72    73    1
    14    73    76    1
    15   104   103    2
    16   103   102    1
    17    84    83    1
    18    84    86    1
    19    82    81    2
    20    71    69    1
    21    88    89    1
    22    88    91    1
    23    69    70    1
    24   102   105    1
    25    90    89    2
    26    29    28    1
    27     3     4    2
    28     3     2    1
    29    83    85    1
    30    28    25    1
    31    77    76    1
    32     1     2    1
    33    26    27    2
    34    26    25    1
    35   112   113    1
    36    76    78    1
    37    13    14    1
    38    55    54    2
    39    60    59    2
    40    93    95   ar
    41    93    92   ar
    42    95    96   ar
    43     2     5    1
    44    25    24    1
    45     5     6    1
    46    52    53    1
    47    53    54    1
    48    53    56    1
    49    24    15   am
    50    92    91    1
    51    92    94   ar
    52    59    58    1
    53    54    57   am
    54    96    94   ar
    55    96    98   ar
    56   105   106    1
    57   114   113    1
    58   114   115    2
    59    94    97   ar
    60    98   100   ar
    61   113   116    1
    62    15    14    1
    63    15    16    2
    64    14    17    1
    65    97    99   ar
    66   100    99   ar
    67     7     6   ar
    68     7     9   ar
    69     6     8   ar
    70    57    58    1
    71   106   108   ar
    72   106   107   ar
    73    58    61    1
    74    30    31    1
    75   116   117    1
    76   108   110   ar
    77    17    18    1
    78    32    33    2
    79    32    31    1
    80   117   119    1
    81   117   118    1
    82   107   109   ar
    83     9    11   ar
    84     8    10   ar
    85    31    34    1
    86    38    39    2
    87    38    37    1
    88    61    62    1
    89   110   111   ar
    90    34    35    1
    91    62    63    1
    92    62    64    1
    93    36    37    1
    94   109   111   ar
    95    40    37    1
    96    40    42    1
    97    40    41    1
    98    18    20   ar
    99    18    19   ar
   100    47    46    2
   101    11    10   ar
   102    11    12    1
   103    46    45    1
   104    20    22   ar
   105    43    41    1
   106    19    21   ar
   107    44    45    1
   108    45    48    1
   109    22    23   ar
   110    21    23   ar
   111    48    49    1
   112    51    49    1
   113    49    50    1
