@<TRIPOS>MOLECULE
tmp/5dsgB04.pdb
 94 90 0 0 0
SMALL
GASTEIGER

@<TRIPOS>ATOM
      1  N         59.6930   22.9890  103.2080 N.3    46  TYR46      -0.1241
      2  CA        58.8070   22.0210  103.8460 C.3    46  TYR46       0.1605
      3  C         58.8410   20.7310  103.0350 C.2    46  TYR46       0.2264
      4  O         58.9880   19.6330  103.5870 O.2    46  TYR46      -0.2867
      5  CB        57.3740   22.5490  103.9570 C.3    46  TYR46       0.0534
      6  CG        57.1340   23.4770  105.1290 C.ar   46  TYR46      -0.0201
      7  CD1       57.4190   24.8320  105.0380 C.ar   46  TYR46      -0.0009
      8  CD2       56.6180   22.9950  106.3250 C.ar   46  TYR46      -0.0009
      9  CE1       57.2000   25.6830  106.1060 C.ar   46  TYR46       0.0417
     10  CE2       56.3950   23.8390  107.3990 C.ar   46  TYR46       0.0417
     11  CZ        56.6880   25.1820  107.2840 C.ar   46  TYR46       0.1957
     12  OH        56.4680   26.0260  108.3490 O.3    46  TYR46      -0.2866
     13  N         62.0580   19.1830  103.4230 N.3    49  PHE49      -0.1241
     14  CA        62.0910   18.5970  104.7590 C.3    49  PHE49       0.1605
     15  C         61.4850   17.2000  104.7450 C.2    49  PHE49       0.2264
     16  O         62.0410   16.2710  105.3320 O.2    49  PHE49      -0.2867
     17  CB        61.3460   19.4840  105.7600 C.3    49  PHE49       0.0534
     18  CG        61.4750   19.0330  107.1880 C.ar   49  PHE49      -0.0203
     19  CD1       62.5120   19.4960  107.9810 C.ar   49  PHE49      -0.0042
     20  CD2       60.5550   18.1570  107.7400 C.ar   49  PHE49      -0.0042
     21  CE1       62.6330   19.0860  109.2950 C.ar   49  PHE49      -0.0003
     22  CE2       60.6710   17.7430  109.0540 C.ar   49  PHE49      -0.0003
     23  CZ        61.7120   18.2090  109.8320 C.ar   49  PHE49      -0.0000
     24  N         58.3240   -0.8040  105.1860 N.3    88  LEU88      -0.1245
     25  CA        59.0220    0.4560  105.4270 C.3    88  LEU88       0.1561
     26  C         59.7260    0.9460  104.1640 C.2    88  LEU88       0.2260
     27  O         59.5120    2.0760  103.7230 O.2    88  LEU88      -0.2867
     28  CB        60.0330    0.3030  106.5640 C.3    88  LEU88       0.0270
     29  CG        60.7770    1.5790  106.9630 C.3    88  LEU88       0.0019
     30  CD1       59.8000    2.6190  107.4860 C.3    88  LEU88       0.0001
     31  CD2       61.8550    1.2830  107.9950 C.3    88  LEU88       0.0001
     32  N         57.1280    1.7660  101.1400 N.3    91  VAL91      -0.1245
     33  CA        56.2740    2.8980  101.4910 C.3    91  VAL91       0.1561
     34  C         57.0710    4.2030  101.5140 C.2    91  VAL91       0.2260
     35  O         56.6550    5.1990  100.9190 O.2    91  VAL91      -0.2867
     36  CB        55.5860    2.6960  102.8580 C.3    91  VAL91       0.0252
     37  CG1       54.9890    4.0040  103.3550 C.3    91  VAL91       0.0019
     38  CG2       54.5120    1.6220  102.7570 C.3    91  VAL91       0.0019
     39  N         51.1190   27.1040  103.6850 N.3   123  THR123     -0.1218
     40  CA        51.7480   25.9670  104.3460 C.3   123  THR123      0.1862
     41  C         50.7520   24.8450  104.6290 C.2   123  THR123      0.2287
     42  O         51.1290   23.6750  104.7060 O.2   123  THR123     -0.2866
     43  CB        52.4130   26.3880  105.6700 C.3   123  THR123      0.1770
     44  OG1       51.4250   26.9330  106.5520 O.3   123  THR123     -0.2211
     45  CG2       53.4910   27.4310  105.4160 C.3   123  THR123      0.0375
     46  N         51.3920   20.9640  103.6990 N.3   127  GLY127     -0.1225
     47  CA        51.2610   19.8790  104.6530 C.3   127  GLY127      0.1811
     48  C         50.2380   18.8600  104.1940 C.2   127  GLY127      0.2280
     49  O         50.4080   17.6560  104.3980 O.2   127  GLY127     -0.2866
     50  N         51.9640   16.7630  101.4900 N.3   130  ILE130     -0.1231
     51  CA        52.9290   15.8520  102.1010 C.3   130  ILE130      0.1692
     52  C         52.2230   14.6680  102.7590 C.2   130  ILE130      0.2591
     53  O         52.5520   13.4980  102.5030 O.2   130  ILE130     -0.2718
     54  CB        53.7970   16.5770  103.1470 C.3   130  ILE130      0.0266
     55  CG1       54.5910   17.7070  102.4870 C.3   130  ILE130      0.0019
     56  CG2       54.7320   15.5990  103.8370 C.3   130  ILE130      0.0020
     57  CD1       55.3950   18.5400  103.4610 C.3   130  ILE130      0.0001
     58  N         51.2460   14.9860  103.6040 N.am  131  ALA131     -0.1980
     59  CA        50.4370   13.9770  104.2720 C.3   131  ALA131      0.1597
     60  C         49.7660   13.0630  103.2550 C.2   131  ALA131      0.2287
     61  O         49.6790   11.8550  103.4600 O.2   131  ALA131     -0.2864
     62  CB        49.3960   14.6340  105.1650 C.3   131  ALA131      0.0319
     63  N         52.5160   10.5980  101.8690 N.3   134  TRP134     -0.1227
     64  CA        52.8530    9.5290  102.8080 C.3   134  TRP134      0.1737
     65  C         51.6970    8.5470  103.0240 C.2   134  TRP134      0.2595
     66  O         51.8830    7.3270  102.9490 O.2   134  TRP134     -0.2718
     67  CB        53.2940   10.1230  104.1470 C.3   134  TRP134      0.0564
     68  CG        54.6630   10.7310  104.1030 C.ar  134  TRP134      0.0003
     69  CD1       54.9830   12.0090  103.7480 C.ar  134  TRP134      0.0946
     70  CD2       55.9000   10.0840  104.4300 C.ar  134  TRP134      0.0152
     71  NE1       56.3420   12.1980  103.8300 N.ar  134  TRP134     -0.2442
     72  CE2       56.9270   11.0320  104.2470 C.ar  134  TRP134      0.0810
     73  CE3       56.2370    8.7970  104.8580 C.ar  134  TRP134      0.0012
     74  CZ2       58.2690   10.7320  104.4780 C.ar  134  TRP134      0.0191
     75  CZ3       57.5700    8.5010  105.0870 C.ar  134  TRP134      0.0001
     76  CH2       58.5690    9.4650  104.8960 C.ar  134  TRP134      0.0015
     77  N         50.5080    9.0830  103.2830 N.am  135  VAL135     -0.1980
     78  CA        49.3290    8.2550  103.5150 C.3   135  VAL135      0.1595
     79  C         49.0020    7.3930  102.2990 C.2   135  VAL135      0.2287
     80  O         48.7490    6.1970  102.4330 O.2   135  VAL135     -0.2864
     81  CB        48.0970    9.1110  103.8800 C.3   135  VAL135      0.0276
     82  CG1       46.8160    8.2980  103.7580 C.3   135  VAL135      0.0022
     83  CG2       48.2450    9.6750  105.2870 C.3   135  VAL135      0.0022
     84  N         51.4990    4.5850  101.9650 N.3   138  PHE138     -0.1241
     85  CA        51.2040    3.5320  102.9310 C.3   138  PHE138      0.1605
     86  C         50.0200    2.6760  102.4830 C.2   138  PHE138      0.2264
     87  O         50.1060    1.4510  102.4620 O.2   138  PHE138     -0.2867
     88  CB        50.9240    4.1320  104.3120 C.3   138  PHE138      0.0534
     89  CG        50.6990    3.1030  105.3850 C.ar  138  PHE138     -0.0203
     90  CD1       51.7720    2.5150  106.0340 C.ar  138  PHE138     -0.0042
     91  CD2       49.4160    2.7240  105.7450 C.ar  138  PHE138     -0.0042
     92  CE1       51.5710    1.5680  107.0200 C.ar  138  PHE138     -0.0003
     93  CE2       49.2080    1.7770  106.7300 C.ar  138  PHE138     -0.0003
     94  CZ        50.2870    1.1990  107.3680 C.ar  138  PHE138     -0.0000
@<TRIPOS>BOND
     1    35    34    2
     2    32    33    1
     3    50    51    1
     4    33    34    1
     5    33    36    1
     6    63    64    1
     7    84    85    1
     8    51    52    1
     9    51    54    1
    10    79    80    2
    11    79    78    1
    12    87    86    2
    13    86    85    1
    14    55    54    1
    15    55    57    1
    16    53    52    2
    17    38    36    1
    18    52    58   am
    19    64    65    1
    20    64    67    1
    21    36    37    1
    22    85    88    1
    23    66    65    2
    24    65    77   am
    25     3     4    2
    26     3     2    1
    27    54    56    1
    28     1     2    1
    29    60    61    2
    30    60    59    1
    31    77    78    1
    32    13    14    1
    33    78    81    1
    34    58    59    1
    35    39    40    1
    36    46    47    1
    37    27    26    2
    38    69    71   ar
    39    69    68   ar
    40    82    81    1
    41    71    72   ar
    42     2     5    1
    43    81    83    1
    44     5     6    1
    45    68    67    1
    46    68    70   ar
    47    26    25    1
    48    48    49    2
    49    48    47    1
    50    72    70   ar
    51    72    74   ar
    52    59    62    1
    53    88    89    1
    54    40    41    1
    55    40    43    1
    56    70    73   ar
    57    74    76   ar
    58    41    42    2
    59    15    14    1
    60    15    16    2
    61    14    17    1
    62    73    75   ar
    63    76    75   ar
    64     7     6   ar
    65     7     9   ar
    66     6     8   ar
    67    24    25    1
    68    89    91   ar
    69    89    90   ar
    70    45    43    1
    71    25    28    1
    72    43    44    1
    73    91    93   ar
    74    17    18    1
    75    90    92   ar
    76     9    11   ar
    77     8    10   ar
    78    28    29    1
    79    93    94   ar
    80    29    30    1
    81    29    31    1
    82    92    94   ar
    83    18    20   ar
    84    18    19   ar
    85    11    10   ar
    86    11    12    1
    87    20    22   ar
    88    19    21   ar
    89    22    23   ar
    90    21    23   ar
