@<TRIPOS>MOLECULE
tmp/5dsgB08.pdb
 96 94 0 0 0
SMALL
GASTEIGER

@<TRIPOS>ATOM
      1  N         46.1950   52.5080   79.9810 N.3   260  MET260     -0.1245
      2  CA        45.2810   53.6240   80.2250 C.3   260  MET260      0.1570
      3  C         44.9590   54.4330   78.9720 C.2   260  MET260      0.2261
      4  O         43.9870   55.1880   78.9480 O.2   260  MET260     -0.2867
      5  CB        45.8590   54.5570   81.2900 C.3   260  MET260      0.0387
      6  CG        46.0150   53.9240   82.6590 C.3   260  MET260      0.0595
      7  SD        47.1030   54.8950   83.7160 S.3   260  MET260     -0.1393
      8  CE        48.6570   54.7020   82.8510 C.3   260  MET260      0.0692
      9  N         45.0580   59.1900   78.8320 N.3   264  GLY264     -0.1225
     10  CA        45.2370   58.9450   80.2510 C.3   264  GLY264      0.1811
     11  C         46.6580   59.2000   80.7170 C.2   264  GLY264      0.2280
     12  O         46.8770   59.7630   81.7890 O.2   264  GLY264     -0.2866
     13  N         47.7970   62.8050   80.9420 N.3   267  GLY267     -0.1210
     14  CA        47.3330   63.4860   82.1360 C.3   267  GLY267      0.1956
     15  C         48.3860   63.5810   83.2240 C.2   267  GLY267      0.2612
     16  O         48.3060   64.4390   84.1020 O.2   267  GLY267     -0.2717
     17  N         49.3780   62.6980   83.1650 N.am  268  PHE268     -0.1962
     18  CA        50.4540   62.6850   84.1520 C.3   268  PHE268      0.1771
     19  C         51.5000   63.7500   83.8400 C.2   268  PHE268      0.2620
     20  O         52.6700   63.4340   83.6360 O.2   268  PHE268     -0.2715
     21  CB        51.1200   61.3070   84.2060 C.3   268  PHE268      0.0574
     22  CG        50.2110   60.2060   84.6720 C.ar  268  PHE268     -0.0200
     23  CD1       50.1570   59.8550   86.0110 C.ar  268  PHE268     -0.0042
     24  CD2       49.4170   59.5150   83.7720 C.ar  268  PHE268     -0.0042
     25  CE1       49.3250   58.8390   86.4430 C.ar  268  PHE268     -0.0003
     26  CE2       48.5830   58.4980   84.1990 C.ar  268  PHE268     -0.0003
     27  CZ        48.5370   58.1600   85.5360 C.ar  268  PHE268     -0.0000
     28  N         51.0720   65.0080   83.8210 N.am  269  THR269     -0.1937
     29  CA        51.9280   66.1210   83.4180 C.3   269  THR269      0.2028
     30  C         53.1810   66.2290   84.2820 C.2   269  THR269      0.2642
     31  O         54.2990   66.2990   83.7640 O.2   269  THR269     -0.2714
     32  CB        51.1650   67.4560   83.4750 C.3   269  THR269      0.1808
     33  OG1       50.0030   67.3800   82.6410 O.3   269  THR269     -0.2208
     34  CG2       52.0510   68.5990   83.0020 C.3   269  THR269      0.0379
     35  N         52.9850   66.2410   85.5980 N.am  270  ASN270     -0.1957
     36  CA        54.0900   66.3240   86.5450 C.3   270  ASN270      0.1819
     37  C         55.0860   65.1850   86.3570 C.2   270  ASN270      0.2622
     38  O         56.2950   65.4080   86.2880 O.2   270  ASN270     -0.2715
     39  CB        53.5630   66.3210   87.9820 C.3   270  ASN270      0.1195
     40  CG        52.6150   67.4730   88.2590 C.2   270  ASN270      0.2630
     41  OD1       52.8100   68.5860   87.7700 O.2   270  ASN270     -0.2716
     42  ND2       51.5810   67.2110   89.0500 N.am  270  ASN270     -0.0877
     43  N         54.5670   63.9650   86.2730 N.am  271  SER271     -0.1950
     44  CA        55.4030   62.7810   86.1150 C.3   271  SER271      0.1924
     45  C         56.1360   62.7800   84.7770 C.2   271  SER271      0.2314
     46  O         57.3070   62.4080   84.7070 O.2   271  SER271     -0.2863
     47  CB        54.5600   61.5120   86.2490 C.3   271  SER271      0.2116
     48  OG        53.9670   61.4280   87.5330 O.3   271  SER271     -0.2180
     49  N         55.9170   60.8150   92.3700 N.3   286  ASN286     -0.1240
     50  CA        54.7550   61.4770   91.7930 C.3   286  ASN286      0.1653
     51  C         53.8260   60.4800   91.1090 C.2   286  ASN286      0.2266
     52  O         52.6200   60.7080   91.0160 O.2   286  ASN286     -0.2867
     53  CB        55.1930   62.5540   90.7980 C.3   286  ASN286      0.1155
     54  CG        54.0370   63.4110   90.3200 C.2   286  ASN286      0.2627
     55  OD1       53.6660   64.3900   90.9680 O.2   286  ASN286     -0.2716
     56  ND2       53.4600   63.0470   89.1810 N.am  286  ASN286     -0.0877
     57  N         51.6290   58.6180   93.7450 N.3   289  LYS289     -0.1231
     58  CA        50.5430   59.4060   94.3220 C.3   289  LYS289      0.1693
     59  C         49.2760   59.3760   93.4720 C.2   289  LYS289      0.2593
     60  O         48.2450   59.9230   93.8650 O.2   289  LYS289     -0.2718
     61  CB        50.9900   60.8550   94.5330 C.3   289  LYS289      0.0285
     62  CG        52.0420   61.0250   95.6160 C.3   289  LYS289      0.0035
     63  CD        52.3830   62.4900   95.8410 C.3   289  LYS289      0.0206
     64  CE        52.8950   63.1460   94.5700 C.3   289  LYS289      0.1093
     65  NZ        53.2100   64.5860   94.7790 N.3   289  LYS289     -0.1314
     66  N         49.3540   58.7380   92.3090 N.am  290  SER290     -0.1938
     67  CA        48.2640   58.7810   91.3390 C.3   290  SER290      0.2055
     68  C         47.1600   57.7720   91.6450 C.2   290  SER290      0.2643
     69  O         47.3580   56.8300   92.4110 O.2   290  SER290     -0.2714
     70  CB        48.8070   58.5380   89.9300 C.3   290  SER290      0.2130
     71  OG        49.3860   57.2490   89.8210 O.3   290  SER290     -0.2179
     72  N         45.9960   57.9840   91.0370 N.am  291  ARG291     -0.1963
     73  CA        44.8730   57.0600   91.1660 C.3   291  ARG291      0.1729
     74  C         45.1540   55.7520   90.4350 C.2   291  ARG291      0.2616
     75  O         44.6240   54.7010   90.7980 O.2   291  ARG291     -0.2715
     76  CB        43.5880   57.6980   90.6330 C.3   291  ARG291      0.0348
     77  CG        43.0880   58.9410   91.3800 C.3   291  ARG291      0.0492
     78  CD        42.8750   58.7760   92.8840 C.3   291  ARG291      0.2205
     79  NE        42.0740   57.6030   93.2080 N.pl3 291  ARG291     -0.0865
     80  CZ        40.8040   57.4100   92.8290 C.cat 291  ARG291      0.5346
     81  NH1       40.0790   58.3390   92.2270 N.pl3 291  ARG291      0.1354
     82  NH2       40.2120   56.2620   93.1460 N.pl3 291  ARG291      0.1354
     83  N         45.9800   55.8300   89.3950 N.am  292  TRP292     -0.1974
     84  CA        46.4020   54.6510   88.6460 C.3   292  TRP292      0.1640
     85  C         47.1040   53.6670   89.5740 C.2   292  TRP292      0.2290
     86  O         46.9590   52.4520   89.4400 O.2   292  TRP292     -0.2864
     87  CB        47.3170   55.0530   87.4870 C.3   292  TRP292      0.0576
     88  CG        48.1070   53.9190   86.9070 C.ar  292  TRP292      0.0006
     89  CD1       47.6150   52.7920   86.3160 C.ar  292  TRP292      0.0946
     90  CD2       49.5350   53.8150   86.8440 C.ar  292  TRP292      0.0152
     91  NE1       48.6470   51.9870   85.8980 N.ar  292  TRP292     -0.2442
     92  CE2       49.8360   52.5930   86.2100 C.ar  292  TRP292      0.0810
     93  CE3       50.5870   54.6330   87.2660 C.ar  292  TRP292      0.0012
     94  CZ2       51.1450   52.1710   85.9870 C.ar  292  TRP292      0.0191
     95  CZ3       51.8860   54.2120   87.0440 C.ar  292  TRP292      0.0001
     96  CH2       52.1530   52.9920   86.4110 C.ar  292  TRP292      0.0015
@<TRIPOS>BOND
     1     9    10    1
     2     4     3    2
     3     3     2    1
     4     1     2    1
     5     2     5    1
     6    10    11    1
     7    11    12    2
     8    13    14    1
     9     5     6    1
    10    14    15    1
    11    33    32    1
    12     6     7    1
    13     8     7    1
    14    34    32    1
    15    17    15   am
    16    17    18    1
    17    15    16    2
    18    29    32    1
    19    29    28    1
    20    29    30    1
    21    20    19    2
    22    31    30    2
    23    24    26   ar
    24    24    22   ar
    25    28    19   am
    26    19    18    1
    27    18    21    1
    28    26    27   ar
    29    21    22    1
    30    30    35   am
    31    22    23   ar
    32    46    45    2
    33    45    44    1
    34    27    25   ar
    35    35    36    1
    36    91    92   ar
    37    91    89   ar
    38    94    92   ar
    39    94    96   ar
    40    23    25   ar
    41    44    47    1
    42    44    43    1
    43    92    90   ar
    44    47    48    1
    45    43    37   am
    46    38    37    2
    47    89    88   ar
    48    37    36    1
    49    96    95   ar
    50    36    39    1
    51    90    88   ar
    52    90    93   ar
    53    88    87    1
    54    95    93   ar
    55    87    84    1
    56    41    40    2
    57    39    40    1
    58    40    42   am
    59    84    83    1
    60    84    85    1
    61    56    54   am
    62    83    74   am
    63    86    85    2
    64    71    70    1
    65    70    67    1
    66    54    53    1
    67    54    55    2
    68    74    75    2
    69    74    73    1
    70    76    73    1
    71    76    77    1
    72    53    50    1
    73    52    51    2
    74    72    73    1
    75    72    68   am
    76    51    50    1
    77    67    68    1
    78    67    66    1
    79    77    78    1
    80    68    69    2
    81    50    49    1
    82    81    80    1
    83    66    59   am
    84    80    82    1
    85    80    79    2
    86    78    79    1
    87    59    60    2
    88    59    58    1
    89    57    58    1
    90    58    61    1
    91    61    62    1
    92    64    65    1
    93    64    63    1
    94    62    63    1
