@<TRIPOS>MOLECULE
tmp/5dsgB06.pdb
 171 168 0 0 0
SMALL
GASTEIGER

@<TRIPOS>ATOM
      1  N         69.5810   -4.0260  104.8360 N.3    66  TYR66      -0.1241
      2  CA        69.9100   -4.6280  103.5530 C.3    66  TYR66       0.1605
      3  C         71.3500   -5.1290  103.5510 C.2    66  TYR66       0.2264
      4  O         71.6560   -6.1520  102.9390 O.2    66  TYR66      -0.2867
      5  CB        69.6940   -3.6430  102.4060 C.3    66  TYR66       0.0534
      6  CG        69.7950   -4.3050  101.0530 C.ar   66  TYR66      -0.0201
      7  CD1       69.0180   -5.4130  100.7500 C.ar   66  TYR66      -0.0009
      8  CD2       70.6690   -3.8310  100.0830 C.ar   66  TYR66      -0.0009
      9  CE1       69.1030   -6.0310   99.5220 C.ar   66  TYR66       0.0417
     10  CE2       70.7590   -4.4440   98.8460 C.ar   66  TYR66       0.0417
     11  CZ        69.9720   -5.5440   98.5740 C.ar   66  TYR66       0.1957
     12  OH        70.0510   -6.1650   97.3500 O.3    66  TYR66      -0.2866
     13  N         71.4240   -8.3820  105.2630 N.3    69  TYR69      -0.1241
     14  CA        71.0100   -9.3810  104.2810 C.3    69  TYR69       0.1605
     15  C         72.1730   -9.7750  103.3640 C.2    69  TYR69       0.2264
     16  O         72.4100  -10.9590  103.1250 O.2    69  TYR69      -0.2867
     17  CB        69.8360   -8.8520  103.4490 C.3    69  TYR69       0.0534
     18  CG        68.9740   -9.9210  102.8020 C.ar   69  TYR69      -0.0201
     19  CD1       67.7630   -9.5910  102.2040 C.ar   69  TYR69      -0.0009
     20  CD2       69.3630  -11.2540  102.7960 C.ar   69  TYR69      -0.0009
     21  CE1       66.9690  -10.5580  101.6130 C.ar   69  TYR69       0.0417
     22  CE2       68.5760  -12.2270  102.2070 C.ar   69  TYR69       0.0417
     23  CZ        67.3810  -11.8740  101.6180 C.ar   69  TYR69       0.1957
     24  OH        66.5960  -12.8410  101.0330 O.3    69  TYR69      -0.2866
     25  N         60.3100   -4.5260  107.3700 N.3    85  TRP85      -0.1227
     26  CA        61.3680   -3.8860  106.5970 C.3    85  TRP85       0.1737
     27  C         60.9470   -3.6180  105.1580 C.2    85  TRP85       0.2595
     28  O         61.2040   -2.5390  104.6250 O.2    85  TRP85      -0.2718
     29  CB        62.6370   -4.7390  106.6080 C.3    85  TRP85       0.0564
     30  CG        63.6750   -4.2530  105.6460 C.ar   85  TRP85       0.0003
     31  CD1       64.2100   -3.0010  105.5830 C.ar   85  TRP85       0.0946
     32  CD2       64.2980   -5.0090  104.6010 C.ar   85  TRP85       0.0152
     33  NE1       65.1310   -2.9300  104.5670 N.ar   85  TRP85      -0.2442
     34  CE2       65.2050   -4.1500  103.9480 C.ar   85  TRP85       0.0810
     35  CE3       64.1800   -6.3290  104.1560 C.ar   85  TRP85       0.0012
     36  CZ2       65.9880   -4.5670  102.8750 C.ar   85  TRP85       0.0191
     37  CZ3       64.9580   -6.7420  103.0900 C.ar   85  TRP85       0.0001
     38  CH2       65.8510   -5.8630  102.4610 C.ar   85  TRP85       0.0015
     39  N         60.3140   -4.6020  104.5270 N.am   86  LEU86      -0.1980
     40  CA        59.8490   -4.4410  103.1520 C.3    86  LEU86       0.1596
     41  C         58.8180   -3.3200  103.0560 C.2    86  LEU86       0.2287
     42  O         58.9020   -2.4470  102.1780 O.2    86  LEU86      -0.2864
     43  CB        59.2560   -5.7490  102.6270 C.3    86  LEU86       0.0297
     44  CG        60.2310   -6.9140  102.4570 C.3    86  LEU86       0.0022
     45  CD1       59.4980   -8.1470  101.9640 C.3    86  LEU86       0.0001
     46  CD2       61.3570   -6.5400  101.5070 C.3    86  LEU86       0.0001
     47  N         59.4150    0.1450  100.8490 N.3    90  TYR90      -0.1241
     48  CA        58.6220    0.5020   99.6790 C.3    90  TYR90       0.1605
     49  C         57.6890    1.6860   99.9360 C.2    90  TYR90       0.2264
     50  O         57.4960    2.5260   99.0550 O.2    90  TYR90      -0.2867
     51  CB        57.8390   -0.7160   99.1890 C.3    90  TYR90       0.0534
     52  CG        58.6980   -1.6640   98.3780 C.ar   90  TYR90      -0.0201
     53  CD1       58.4800   -1.8410   97.0170 C.ar   90  TYR90      -0.0009
     54  CD2       59.7490   -2.3570   98.9680 C.ar   90  TYR90      -0.0009
     55  CE1       59.2700   -2.6980   96.2720 C.ar   90  TYR90       0.0417
     56  CE2       60.5450   -3.2120   98.2320 C.ar   90  TYR90       0.0417
     57  CZ        60.3020   -3.3790   96.8850 C.ar   90  TYR90       0.1957
     58  OH        61.0930   -4.2330   96.1510 O.3    90  TYR90      -0.2866
     59  N         64.0430  -13.0220  102.3470 N.3   162  CYS162     -0.1221
     60  CA        63.1560  -11.8780  102.5110 C.3   162  CYS162      0.1808
     61  C         62.8900  -11.1620  101.1900 C.2   162  CYS162      0.2601
     62  O         63.7670  -10.4850  100.6520 O.2   162  CYS162     -0.2717
     63  CB        63.7400  -10.8920  103.5250 C.3   162  CYS162      0.0970
     64  SG        62.6550   -9.4990  103.9080 S.3   162  CYS162     -0.0800
     65  N         61.6740  -11.3170  100.6770 N.am  163  PHE163     -0.1962
     66  CA        61.2560  -10.6270   99.4620 C.3   163  PHE163      0.1771
     67  C         59.7400  -10.4620   99.4460 C.2   163  PHE163      0.2619
     68  O         59.0280  -11.1290  100.1970 O.2   163  PHE163     -0.2715
     69  CB        61.7260  -11.3820   98.2140 C.3   163  PHE163      0.0574
     70  CG        61.2300  -12.8010   98.1340 C.ar  163  PHE163     -0.0200
     71  CD1       60.0050  -13.0930   97.5520 C.ar  163  PHE163     -0.0042
     72  CD2       61.9920  -13.8440   98.6340 C.ar  163  PHE163     -0.0042
     73  CE1       59.5490  -14.3960   97.4780 C.ar  163  PHE163     -0.0003
     74  CE2       61.5410  -15.1480   98.5610 C.ar  163  PHE163     -0.0003
     75  CZ        60.3190  -15.4250   97.9820 C.ar  163  PHE163     -0.0000
     76  N         59.2520   -9.5730   98.5890 N.am  164  ILE164     -0.1977
     77  CA        57.8200   -9.3250   98.4870 C.3   164  ILE164      0.1596
     78  C         57.1190  -10.4190   97.6870 C.2   164  ILE164      0.2287
     79  O         57.3330  -10.5570   96.4820 O.2   164  ILE164     -0.2864
     80  CB        57.5300   -7.9590   97.8400 C.3   164  ILE164      0.0276
     81  CG1       58.1610   -6.8360   98.6650 C.3   164  ILE164      0.0022
     82  CG2       56.0320   -7.7400   97.7060 C.3   164  ILE164      0.0022
     83  CD1       57.8200   -5.4520   98.1680 C.3   164  ILE164      0.0001
     84  N         55.1350   -9.3800   94.6270 N.3   167  LEU167     -0.1231
     85  CA        55.8630   -9.0580   93.4020 C.3   167  LEU167      0.1693
     86  C         56.6060  -10.2640   92.8310 C.2   167  LEU167      0.2592
     87  O         57.6590  -10.1130   92.2130 O.2   167  LEU167     -0.2718
     88  CB        56.8540   -7.9190   93.6580 C.3   167  LEU167      0.0284
     89  CG        56.2740   -6.5570   94.0420 C.3   167  LEU167      0.0019
     90  CD1       57.3930   -5.5740   94.3510 C.3   167  LEU167      0.0001
     91  CD2       55.3850   -6.0230   92.9310 C.3   167  LEU167      0.0001
     92  N         56.0560  -11.4560   93.0360 N.am  168  SER168     -0.1952
     93  CA        56.6930  -12.6820   92.5640 C.3   168  SER168      0.1924
     94  C         56.6660  -12.7910   91.0420 C.2   168  SER168      0.2314
     95  O         57.6580  -13.1720   90.4200 O.2   168  SER168     -0.2863
     96  CB        56.0190  -13.9050   93.1870 C.3   168  SER168      0.2116
     97  OG        56.1100  -13.8690   94.6000 O.3   168  SER168     -0.2180
     98  N         55.4820   -7.2630   88.7190 N.3   173  THR173     -0.1218
     99  CA        56.6050   -6.4350   89.1390 C.3   173  THR173      0.1862
    100  C         56.8340   -5.2940   88.1550 C.2   173  THR173      0.2287
    101  O         57.0730   -4.1510   88.5520 O.2   173  THR173     -0.2866
    102  CB        57.9020   -7.2600   89.2630 C.3   173  THR173      0.1770
    103  OG1       57.6580   -8.4280   90.0560 O.3   173  THR173     -0.2211
    104  CG2       59.0050   -6.4340   89.9090 C.3   173  THR173      0.0375
    105  N         67.9630   -0.4770   88.2890 N.3   342  TYR342     -0.1241
    106  CA        67.1410   -1.5050   88.9220 C.3   342  TYR342      0.1605
    107  C         65.8260   -1.7330   88.1820 C.2   342  TYR342      0.2264
    108  O         65.4040   -2.8730   87.9940 O.2   342  TYR342     -0.2867
    109  CB        66.8550   -1.1430   90.3820 C.3   342  TYR342      0.0534
    110  CG        65.9920   -2.1590   91.0970 C.ar  342  TYR342     -0.0201
    111  CD1       66.5450   -3.3120   91.6380 C.ar  342  TYR342     -0.0009
    112  CD2       64.6220   -1.9630   91.2330 C.ar  342  TYR342     -0.0009
    113  CE1       65.7590   -4.2440   92.2900 C.ar  342  TYR342      0.0417
    114  CE2       63.8280   -2.8880   91.8830 C.ar  342  TYR342      0.0417
    115  CZ        64.4010   -4.0260   92.4100 C.ar  342  TYR342      0.1957
    116  OH        63.6140   -4.9500   93.0600 O.3   342  TYR342     -0.2866
    117  N         64.1760   -4.7780   86.1810 N.3   346  VAL346     -0.1245
    118  CA        62.7860   -5.2020   86.3070 C.3   346  VAL346      0.1561
    119  C         62.1830   -5.4320   84.9230 C.2   346  VAL346      0.2260
    120  O         61.4210   -6.3780   84.7170 O.2   346  VAL346     -0.2867
    121  CB        61.9450   -4.1650   87.0840 C.3   346  VAL346      0.0252
    122  CG1       60.4680   -4.5220   87.0420 C.3   346  VAL346      0.0019
    123  CG2       62.4270   -4.0620   88.5220 C.3   346  VAL346      0.0019
    124  N         63.7500   -8.6040   83.3730 N.3   349  ASN349     -0.1240
    125  CA        63.2830   -9.7680   84.1200 C.3   349  ASN349      0.1653
    126  C         61.9560  -10.3220   83.5990 C.2   349  ASN349      0.2266
    127  O         61.5580  -11.4350   83.9470 O.2   349  ASN349     -0.2867
    128  CB        63.1570   -9.4090   85.6040 C.3   349  ASN349      0.1155
    129  CG        62.9270  -10.6210   86.4830 C.2   349  ASN349      0.2627
    130  OD1       63.8460  -11.4000   86.7420 O.2   349  ASN349     -0.2716
    131  ND2       61.6980  -10.7820   86.9570 N.am  349  ASN349     -0.0877
    132  N         72.3520  -12.4330   90.7400 N.3   358  ASP358     -0.1239
    133  CA        71.9760  -11.8560   92.0280 C.3   358  ASP358      0.1674
    134  C         72.8450  -10.6600   92.4110 C.2   358  ASP358      0.2266
    135  O         72.3810   -9.7350   93.0810 O.2   358  ASP358     -0.2867
    136  CB        72.0520  -12.9210   93.1240 C.3   358  ASP358      0.1410
    137  CG        71.0790  -14.0600   92.8970 C.2   358  ASP358      0.3668
    138  OD1       69.8890  -13.7850   92.6320 O.co2 358  ASP358     -0.2456
    139  OD2       71.5030  -15.2320   92.9820 O.co2 358  ASP358     -0.2456
    140  N         71.4550   -7.5670   90.6560 N.3   361  TRP361     -0.1227
    141  CA        70.2330   -7.2070   91.3700 C.3   361  TRP361      0.1737
    142  C         70.5420   -6.4540   92.6580 C.2   361  TRP361      0.2596
    143  O         69.9480   -5.4110   92.9400 O.2   361  TRP361     -0.2718
    144  CB        69.4040   -8.4520   91.6970 C.3   361  TRP361      0.0564
    145  CG        68.5620   -8.9600   90.5660 C.ar  361  TRP361      0.0003
    146  CD1       68.7370  -10.1210   89.8680 C.ar  361  TRP361      0.0946
    147  CD2       67.4010   -8.3300   90.0110 C.ar  361  TRP361      0.0152
    148  NE1       67.7590  -10.2500   88.9120 N.ar  361  TRP361     -0.2442
    149  CE2       66.9270   -9.1630   88.9780 C.ar  361  TRP361      0.0810
    150  CE3       66.7180   -7.1410   90.2860 C.ar  361  TRP361      0.0012
    151  CZ2       65.8030   -8.8450   88.2190 C.ar  361  TRP361      0.0191
    152  CZ3       65.6020   -6.8270   89.5320 C.ar  361  TRP361      0.0001
    153  CH2       65.1560   -7.6750   88.5100 C.ar  361  TRP361      0.0015
    154  N         71.4740   -6.9930   93.4370 N.am  362  SER362     -0.1952
    155  CA        71.8470   -6.3950   94.7120 C.3   362  SER362      0.1924
    156  C         72.4770   -5.0190   94.5220 C.2   362  SER362      0.2314
    157  O         72.1710   -4.0820   95.2610 O.2   362  SER362     -0.2863
    158  CB        72.8060   -7.3130   95.4720 C.3   362  SER362      0.2116
    159  OG        72.1810   -8.5450   95.7860 O.3   362  SER362     -0.2180
    160  N         69.6000   -2.5820   93.5200 N.3   365  TYR365     -0.1241
    161  CA        68.7460   -2.3480   94.6790 C.3   365  TYR365      0.1605
    162  C         69.4280   -1.4150   95.6710 C.2   365  TYR365      0.2264
    163  O         68.7990   -0.5040   96.2090 O.2   365  TYR365     -0.2867
    164  CB        68.3830   -3.6710   95.3610 C.3   365  TYR365      0.0534
    165  CG        67.2360   -3.5640   96.3430 C.ar  365  TYR365     -0.0201
    166  CD1       65.9380   -3.8720   95.9580 C.ar  365  TYR365     -0.0009
    167  CD2       67.4490   -3.1520   97.6530 C.ar  365  TYR365     -0.0009
    168  CE1       64.8860   -3.7780   96.8490 C.ar  365  TYR365      0.0417
    169  CE2       66.4020   -3.0520   98.5510 C.ar  365  TYR365      0.0417
    170  CZ        65.1220   -3.3660   98.1430 C.ar  365  TYR365      0.1957
    171  OH        64.0760   -3.2690   99.0310 O.3   365  TYR365     -0.2866
@<TRIPOS>BOND
     1   124   125    1
     2   126   127    2
     3   126   125    1
     4   125   128    1
     5   120   119    2
     6   119   118    1
     7   128   129    1
     8   117   118    1
     9   118   121    1
    10   129   130    2
    11   129   131   am
    12   122   121    1
    13   121   123    1
    14   108   107    2
    15   100   101    2
    16   100    99    1
    17   107   106    1
    18   151   153   ar
    19   151   149   ar
    20   105   106    1
    21   153   152   ar
    22    98    99    1
    23   148   149   ar
    24   148   146   ar
    25   106   109    1
    26   149   147   ar
    27    99   102    1
    28   102   104    1
    29   102   103    1
    30   152   150   ar
    31   146   145   ar
    32   147   150   ar
    33   147   145   ar
    34   109   110    1
    35    95    94    2
    36   145   144    1
    37   140   141    1
    38   132   133    1
    39    94    93    1
    40   110   112   ar
    41   110   111   ar
    42   112   114   ar
    43   141   144    1
    44   141   142    1
    45   111   113   ar
    46   114   115   ar
    47   133   134    1
    48   133   136    1
    49    87    86    2
    50   113   115   ar
    51   115   116    1
    52   134   135    2
    53    93    92    1
    54    93    96    1
    55   138   137   ar
    56   142   143    2
    57   142   154   am
    58    86    92   am
    59    86    85    1
    60   137   139   ar
    61   137   136    1
    62    91    89    1
    63    96    97    1
    64    85    88    1
    65    85    84    1
    66   154   155    1
    67   160   161    1
    68    88    89    1
    69    89    90    1
    70   156   155    1
    71   156   157    2
    72   161   164    1
    73   161   162    1
    74   155   158    1
    75   164   165    1
    76   158   159    1
    77   162   163    2
    78   166   165   ar
    79   166   168   ar
    80    58    57    1
    81    55    57   ar
    82    55    53   ar
    83   165   167   ar
    84    79    78    2
    85   168   170   ar
    86    57    56   ar
    87    53    52   ar
    88    12    11    1
    89    73    71   ar
    90    73    75   ar
    91    71    70   ar
    92   167   169   ar
    93    78    77    1
    94    82    80    1
    95    80    77    1
    96    80    81    1
    97    75    74   ar
    98    70    69    1
    99    70    72   ar
   100   170   169   ar
   101   170   171    1
   102    83    81    1
   103    69    66    1
   104    56    54   ar
   105    52    54   ar
   106    52    51    1
   107    77    76    1
   108    74    72   ar
   109    11    10   ar
   110    11     9   ar
   111    76    67   am
   112    10     8   ar
   113    50    49    2
   114    51    48    1
   115    67    66    1
   116    67    68    2
   117    66    65    1
   118     9     7   ar
   119    48    49    1
   120    48    47    1
   121     8     6   ar
   122    62    61    2
   123    65    61   am
   124     7     6   ar
   125    24    23    1
   126     6     5    1
   127    61    60    1
   128    46    44    1
   129    21    23   ar
   130    21    19   ar
   131    23    22   ar
   132    45    44    1
   133    42    41    2
   134    19    18   ar
   135    22    20   ar
   136    59    60    1
   137     5     2    1
   138    44    43    1
   139    38    36   ar
   140    38    37   ar
   141    60    63    1
   142    43    40    1
   143    20    18   ar
   144    18    17    1
   145    36    34   ar
   146     4     3    2
   147    41    40    1
   148    37    35   ar
   149    16    15    2
   150    40    39    1
   151    15    14    1
   152    17    14    1
   153    63    64    1
   154     3     2    1
   155     2     1    1
   156    34    33   ar
   157    34    32   ar
   158    35    32   ar
   159    14    13    1
   160    39    27   am
   161    33    31   ar
   162    32    30   ar
   163    28    27    2
   164    27    26    1
   165    31    30   ar
   166    30    29    1
   167    26    29    1
   168    26    25    1
