@<TRIPOS>MOLECULE
tmp/5dsgB02.pdb
 169 165 0 0 0
SMALL
GASTEIGER

@<TRIPOS>ATOM
      1  N         60.5570    0.0810  103.5890 N.3    89  ASP89      -0.1225
      2  CA        61.2890    0.3830  102.3630 C.3    89  ASP89       0.1805
      3  C         60.4010    0.9350  101.2590 C.2    89  ASP89       0.2597
      4  O         60.5990    2.0600  100.7920 O.2    89  ASP89      -0.2718
      5  CB        62.0010   -0.8690  101.8450 C.3    89  ASP89       0.1424
      6  CG        63.4570   -0.9160  102.2410 C.2    89  ASP89       0.3668
      7  OD1       64.2730   -1.4290  101.4470 O.co2  89  ASP89      -0.2456
      8  OD2       63.7830   -0.4330  103.3440 O.co2  89  ASP89      -0.2456
      9  N         59.4150    0.1450  100.8490 N.am   90  TYR90      -0.1976
     10  CA        58.6220    0.5020   99.6790 C.3    90  TYR90       0.1639
     11  C         57.6890    1.6860   99.9360 C.2    90  TYR90       0.2290
     12  O         57.4960    2.5260   99.0550 O.2    90  TYR90      -0.2864
     13  CB        57.8390   -0.7160   99.1890 C.3    90  TYR90       0.0560
     14  CG        58.6980   -1.6640   98.3780 C.ar   90  TYR90      -0.0198
     15  CD1       58.4800   -1.8410   97.0170 C.ar   90  TYR90      -0.0009
     16  CD2       59.7490   -2.3570   98.9680 C.ar   90  TYR90      -0.0009
     17  CE1       59.2700   -2.6980   96.2720 C.ar   90  TYR90       0.0417
     18  CE2       60.5450   -3.2120   98.2320 C.ar   90  TYR90       0.0417
     19  CZ        60.3020   -3.3790   96.8850 C.ar   90  TYR90       0.1957
     20  OH        61.0930   -4.2330   96.1510 O.3    90  TYR90      -0.2866
     21  N         60.0490    4.8530  100.1400 N.3    93  SER93      -0.1202
     22  CA        60.5660    5.1460   98.8040 C.3    93  SER93       0.2020
     23  C         59.4790    5.7210   97.8950 C.2    93  SER93       0.2618
     24  O         59.7080    6.7000   97.1700 O.2    93  SER93      -0.2717
     25  CB        61.1650    3.8890   98.1780 C.3    93  SER93       0.2103
     26  OG        62.3020    3.4540   98.9030 O.3    93  SER93      -0.2182
     27  N         58.2990    5.1090   97.9370 N.am   94  ASN94      -0.1974
     28  CA        57.1610    5.6090   97.1750 C.3    94  ASN94       0.1688
     29  C         56.8220    7.0310   97.6030 C.2    94  ASN94       0.2292
     30  O         56.4940    7.8840   96.7750 O.2    94  ASN94      -0.2864
     31  CB        55.9490    4.6970   97.3550 C.3    94  ASN94       0.1181
     32  CG        54.8500    4.9890   96.3600 C.2    94  ASN94       0.2629
     33  OD1       54.8430    4.4510   95.2530 O.2    94  ASN94      -0.2716
     34  ND2       53.9140    5.8490   96.7450 N.am   94  ASN94      -0.0877
     35  N         59.1970    9.3220   95.9080 N.3    97  VAL97      -0.1245
     36  CA        58.7860    9.5700   94.5270 C.3    97  VAL97       0.1561
     37  C         57.6560   10.5980   94.4590 C.2    97  VAL97       0.2260
     38  O         57.7440   11.5880   93.7230 O.2    97  VAL97      -0.2867
     39  CB        58.3280    8.2750   93.8260 C.3    97  VAL97       0.0252
     40  CG1       57.7700    8.5880   92.4460 C.3    97  VAL97       0.0019
     41  CG2       59.4780    7.2850   93.7320 C.3    97  VAL97       0.0019
     42  N         50.9950    0.5370   99.3810 N.3   141  TRP141     -0.1241
     43  CA        52.0420   -0.4770   99.4770 C.3   141  TRP141      0.1605
     44  C         51.9130   -1.4410  100.6580 C.2   141  TRP141      0.2264
     45  O         52.0440   -2.6520  100.4810 O.2   141  TRP141     -0.2867
     46  CB        53.4140    0.1970   99.5220 C.3   141  TRP141      0.0550
     47  CG        53.9800    0.4360   98.1610 C.ar  141  TRP141      0.0003
     48  CD1       54.1160    1.6340   97.5250 C.ar  141  TRP141      0.0946
     49  CD2       54.4690   -0.5580   97.2560 C.ar  141  TRP141      0.0152
     50  NE1       54.6710    1.4480   96.2810 N.ar  141  TRP141     -0.2442
     51  CE2       54.8970    0.1100   96.0920 C.ar  141  TRP141      0.0810
     52  CE3       54.5930   -1.9490   97.3190 C.ar  141  TRP141      0.0012
     53  CZ2       55.4380   -0.5650   95.0010 C.ar  141  TRP141      0.0191
     54  CZ3       55.1300   -2.6180   96.2360 C.ar  141  TRP141      0.0001
     55  CH2       55.5470   -1.9260   95.0940 C.ar  141  TRP141      0.0015
     56  N         55.1350   -9.3800   94.6270 N.3   167  LEU167     -0.1245
     57  CA        55.8630   -9.0580   93.4020 C.3   167  LEU167      0.1561
     58  C         56.6060  -10.2640   92.8310 C.2   167  LEU167      0.2260
     59  O         57.6590  -10.1130   92.2130 O.2   167  LEU167     -0.2867
     60  CB        56.8540   -7.9190   93.6580 C.3   167  LEU167      0.0270
     61  CG        56.2740   -6.5570   94.0420 C.3   167  LEU167      0.0019
     62  CD1       57.3930   -5.5740   94.3510 C.3   167  LEU167      0.0001
     63  CD2       55.3850   -6.0230   92.9310 C.3   167  LEU167      0.0001
     64  N         55.4820   -7.2630   88.7190 N.3   173  THR173     -0.1218
     65  CA        56.6050   -6.4350   89.1390 C.3   173  THR173      0.1862
     66  C         56.8340   -5.2940   88.1550 C.2   173  THR173      0.2287
     67  O         57.0730   -4.1510   88.5520 O.2   173  THR173     -0.2866
     68  CB        57.9020   -7.2600   89.2630 C.3   173  THR173      0.1770
     69  OG1       57.6580   -8.4280   90.0560 O.3   173  THR173     -0.2211
     70  CG2       59.0050   -6.4340   89.9090 C.3   173  THR173      0.0375
     71  N         53.8860   -2.7660   88.1750 N.3   176  THR176     -0.1203
     72  CA        54.0710   -1.9860   89.3880 C.3   176  THR176      0.1994
     73  C         55.1750   -0.9530   89.1930 C.2   176  THR176      0.2617
     74  O         55.0500    0.1850   89.6360 O.2   176  THR176     -0.2717
     75  CB        54.4150   -2.8830   90.5920 C.3   176  THR176      0.1784
     76  OG1       53.3810   -3.8570   90.7790 O.3   176  THR176     -0.2211
     77  CG2       54.5390   -2.0500   91.8480 C.3   176  THR176      0.0376
     78  N         56.2500   -1.3550   88.5210 N.am  177  ALA177     -0.1979
     79  CA        57.3550   -0.4450   88.2360 C.3   177  ALA177      0.1597
     80  C         56.9110    0.7020   87.3300 C.2   177  ALA177      0.2287
     81  O         57.3310    1.8450   87.5110 O.2   177  ALA177     -0.2864
     82  CB        58.5140   -1.2000   87.6050 C.3   177  ALA177      0.0319
     83  N         54.7700    3.0460   89.3800 N.3   180  ALA180     -0.1231
     84  CA        55.4980    3.6430   90.4970 C.3   180  ALA180      0.1694
     85  C         56.7180    4.4590   90.0660 C.2   180  ALA180      0.2592
     86  O         56.9960    5.5110   90.6410 O.2   180  ALA180     -0.2718
     87  CB        55.9180    2.5620   91.4850 C.3   180  ALA180      0.0304
     88  N         57.4650    3.9640   89.0840 N.am  181  PHE181     -0.1976
     89  CA        58.7000    4.6330   88.6760 C.3   181  PHE181      0.1639
     90  C         58.6330    5.3310   87.3180 C.2   181  PHE181      0.2290
     91  O         58.8860    6.5300   87.2210 O.2   181  PHE181     -0.2864
     92  CB        59.8520    3.6300   88.6620 C.3   181  PHE181      0.0560
     93  CG        61.1480    4.2050   88.1760 C.ar  181  PHE181     -0.0200
     94  CD1       61.8810    5.0630   88.9750 C.ar  181  PHE181     -0.0042
     95  CD2       61.6350    3.8850   86.9210 C.ar  181  PHE181     -0.0042
     96  CE1       63.0740    5.5920   88.5320 C.ar  181  PHE181     -0.0003
     97  CE2       62.8290    4.4100   86.4730 C.ar  181  PHE181     -0.0003
     98  CZ        63.5500    5.2640   87.2790 C.ar  181  PHE181     -0.0000
     99  N         68.1060    5.2840   90.2850 N.3   339  TRP339     -0.1241
    100  CA        67.0190    4.3060   90.2940 C.3   339  TRP339      0.1605
    101  C         66.8040    3.5880   88.9610 C.2   339  TRP339      0.2264
    102  O         66.2230    2.5020   88.9320 O.2   339  TRP339     -0.2867
    103  CB        65.7070    4.9690   90.7180 C.3   339  TRP339      0.0550
    104  CG        65.6070    5.2500   92.1850 C.ar  339  TRP339      0.0003
    105  CD1       66.6010    5.6950   93.0090 C.ar  339  TRP339      0.0946
    106  CD2       64.4470    5.0850   93.0080 C.ar  339  TRP339      0.0152
    107  NE1       66.1260    5.8280   94.2920 N.ar  339  TRP339     -0.2442
    108  CE2       64.8070    5.4590   94.3170 C.ar  339  TRP339      0.0810
    109  CE3       63.1370    4.6620   92.7630 C.ar  339  TRP339      0.0012
    110  CZ2       63.9050    5.4230   95.3780 C.ar  339  TRP339      0.0191
    111  CZ3       62.2420    4.6280   93.8160 C.ar  339  TRP339      0.0001
    112  CH2       62.6300    5.0060   95.1070 C.ar  339  TRP339      0.0015
    113  N         67.9630   -0.4770   88.2890 N.3   342  TYR342     -0.1227
    114  CA        67.1410   -1.5050   88.9220 C.3   342  TYR342      0.1736
    115  C         65.8260   -1.7330   88.1820 C.2   342  TYR342      0.2595
    116  O         65.4040   -2.8730   87.9940 O.2   342  TYR342     -0.2718
    117  CB        66.8550   -1.1430   90.3820 C.3   342  TYR342      0.0548
    118  CG        65.9920   -2.1590   91.0970 C.ar  342  TYR342     -0.0200
    119  CD1       66.5450   -3.3120   91.6380 C.ar  342  TYR342     -0.0009
    120  CD2       64.6220   -1.9630   91.2330 C.ar  342  TYR342     -0.0009
    121  CE1       65.7590   -4.2440   92.2900 C.ar  342  TYR342      0.0417
    122  CE2       63.8280   -2.8880   91.8830 C.ar  342  TYR342      0.0417
    123  CZ        64.4010   -4.0260   92.4100 C.ar  342  TYR342      0.1957
    124  OH        63.6140   -4.9500   93.0600 O.3   342  TYR342     -0.2866
    125  N         65.1750   -0.6500   87.7720 N.am  343  ASN343     -0.1974
    126  CA        63.9100   -0.7610   87.0550 C.3   343  ASN343      0.1688
    127  C         64.1110   -1.3030   85.6430 C.2   343  ASN343      0.2292
    128  O         63.2250   -1.9540   85.0830 O.2   343  ASN343     -0.2864
    129  CB        63.1990    0.5910   87.0140 C.3   343  ASN343      0.1181
    130  CG        62.7110    1.0310   88.3810 C.2   343  ASN343      0.2629
    131  OD1       61.6160    0.6650   88.8080 O.2   343  ASN343     -0.2716
    132  ND2       63.5240    1.8190   89.0750 N.am  343  ASN343     -0.0877
    133  N         64.1760   -4.7780   86.1810 N.3   346  VAL346     -0.1245
    134  CA        62.7860   -5.2020   86.3070 C.3   346  VAL346      0.1561
    135  C         62.1830   -5.4320   84.9230 C.2   346  VAL346      0.2260
    136  O         61.4210   -6.3780   84.7170 O.2   346  VAL346     -0.2867
    137  CB        61.9450   -4.1650   87.0840 C.3   346  VAL346      0.0252
    138  CG1       60.4680   -4.5220   87.0420 C.3   346  VAL346      0.0019
    139  CG2       62.4270   -4.0620   88.5220 C.3   346  VAL346      0.0019
    140  N         69.6000   -2.5820   93.5200 N.3   365  TYR365     -0.1241
    141  CA        68.7460   -2.3480   94.6790 C.3   365  TYR365      0.1605
    142  C         69.4280   -1.4150   95.6710 C.2   365  TYR365      0.2264
    143  O         68.7990   -0.5040   96.2090 O.2   365  TYR365     -0.2867
    144  CB        68.3830   -3.6710   95.3610 C.3   365  TYR365      0.0534
    145  CG        67.2360   -3.5640   96.3430 C.ar  365  TYR365     -0.0201
    146  CD1       65.9380   -3.8720   95.9580 C.ar  365  TYR365     -0.0009
    147  CD2       67.4490   -3.1520   97.6530 C.ar  365  TYR365     -0.0009
    148  CE1       64.8860   -3.7780   96.8490 C.ar  365  TYR365      0.0417
    149  CE2       66.4020   -3.0520   98.5510 C.ar  365  TYR365      0.0417
    150  CZ        65.1220   -3.3660   98.1430 C.ar  365  TYR365      0.1957
    151  OH        64.0760   -3.2690   99.0310 O.3   365  TYR365     -0.2866
    152  N         69.7150    2.2240   94.4250 N.3   368  CYS368     -0.1221
    153  CA        68.5170    3.0260   94.6600 C.3   368  CYS368      0.1808
    154  C         68.5920    3.8100   95.9750 C.2   368  CYS368      0.2601
    155  O         67.9870    4.8750   96.1020 O.2   368  CYS368     -0.2717
    156  CB        67.2730    2.1380   94.6570 C.3   368  CYS368      0.0970
    157  SG        66.8550    1.4440   93.0430 S.3   368  CYS368     -0.0800
    158  N         69.3320    3.2830   96.9470 N.am  369  TYR369     -0.1976
    159  CA        69.4810    3.9380   98.2470 C.3   369  TYR369      0.1639
    160  C         70.3240    5.2120   98.1770 C.2   369  TYR369      0.2290
    161  O         70.0810    6.1650   98.9170 O.2   369  TYR369     -0.2864
    162  CB        70.1130    2.9810   99.2620 C.3   369  TYR369      0.0560
    163  CG        69.1950    1.8930   99.7750 C.ar  369  TYR369     -0.0198
    164  CD1       67.8170    2.0520   99.7640 C.ar  369  TYR369     -0.0009
    165  CD2       69.7140    0.7080  100.2800 C.ar  369  TYR369     -0.0009
    166  CE1       66.9810    1.0570  100.2380 C.ar  369  TYR369      0.0417
    167  CE2       68.8880   -0.2910  100.7540 C.ar  369  TYR369      0.0417
    168  CZ        67.5230   -0.1130  100.7310 C.ar  369  TYR369      0.1957
    169  OH        66.6990   -1.1080  101.2050 O.3   369  TYR369     -0.2866
@<TRIPOS>BOND
     1   136   135    2
     2   135   134    1
     3   128   127    2
     4   127   126    1
     5   133   134    1
     6   134   137    1
     7    97    95   ar
     8    97    98   ar
     9    95    93   ar
    10   129   126    1
    11   129   130    1
    12   138   137    1
    13   126   125    1
    14   137   139    1
    15    91    90    2
    16    98    96   ar
    17    90    89    1
    18    80    81    2
    19    80    79    1
    20    82    79    1
    21   125   115   am
    22   116   115    2
    23    66    67    2
    24    66    65    1
    25    71    72    1
    26    93    92    1
    27    93    94   ar
    28   115   114    1
    29    79    78    1
    30   113   114    1
    31   130   131    2
    32   130   132   am
    33    78    73   am
    34    96    94   ar
    35    92    89    1
    36    89    88    1
    37    64    65    1
    38   114   117    1
    39   102   101    2
    40   101   100    1
    41    88    85   am
    42    65    68    1
    43    73    72    1
    44    73    74    2
    45    68    70    1
    46    68    69    1
    47    83    84    1
    48    72    75    1
    49    85    84    1
    50    85    86    2
    51    99   100    1
    52   100   103    1
    53   117   118    1
    54    84    87    1
    55    75    76    1
    56    75    77    1
    57   103   104    1
    58   118   120   ar
    59   118   119   ar
    60   120   122   ar
    61   119   121   ar
    62   122   123   ar
    63   104   106   ar
    64   104   105   ar
    65    59    58    2
    66   121   123   ar
    67   123   124    1
    68    40    39    1
    69   109   106   ar
    70   109   111   ar
    71    58    57    1
    72    63    61    1
    73   106   108   ar
    74   105   107   ar
    75   157   156    1
    76    57    60    1
    77    57    56    1
    78   140   141    1
    79    60    61    1
    80    38    37    2
    81    41    39    1
    82   111   112   ar
    83    39    36    1
    84    61    62    1
    85   107   108   ar
    86   108   110   ar
    87   152   153    1
    88    37    36    1
    89    36    35    1
    90   156   153    1
    91   153   154    1
    92   141   144    1
    93   141   142    1
    94    53    55   ar
    95    53    51   ar
    96    55    54   ar
    97   112   110   ar
    98    33    32    2
    99   144   145    1
   100   142   143    2
   101   146   145   ar
   102   146   148   ar
   103   154   155    2
   104   154   158   am
   105    51    50   ar
   106    51    49   ar
   107    20    19    1
   108    54    52   ar
   109    17    19   ar
   110    17    15   ar
   111    50    48   ar
   112   145   147   ar
   113    32    34   am
   114    32    31    1
   115    30    29    2
   116   148   150   ar
   117    19    18   ar
   118   158   159    1
   119    15    14   ar
   120    24    23    2
   121    28    31    1
   122    28    29    1
   123    28    27    1
   124    49    52   ar
   125    49    47   ar
   126    48    47   ar
   127   147   149   ar
   128    23    27   am
   129    23    22    1
   130   150   149   ar
   131   150   151    1
   132    47    46    1
   133   160   159    1
   134   160   161    2
   135    25    22    1
   136    25    26    1
   137    18    16   ar
   138   159   162    1
   139    14    16   ar
   140    14    13    1
   141    22    21    1
   142    12    11    2
   143    13    10    1
   144   162   163    1
   145    42    43    1
   146    43    46    1
   147    43    44    1
   148    10    11    1
   149    10     9    1
   150   164   163   ar
   151   164   166   ar
   152   163   165   ar
   153   166   168   ar
   154   165   167   ar
   155    45    44    2
   156   168   167   ar
   157   168   169    1
   158     4     3    2
   159     9     3   am
   160     3     2    1
   161     7     6   ar
   162     5     6    1
   163     5     2    1
   164     6     8   ar
   165     2     1    1
