@<TRIPOS>MOLECULE
tmp/5dsgA08.pdb
 84 81 0 0 0
SMALL
GASTEIGER

@<TRIPOS>ATOM
      1  N         51.5680  -14.3950   72.3660 N.3    50  TYR50      -0.1241
      2  CA        52.3110  -13.4330   73.1740 C.3    50  TYR50       0.1605
      3  C         52.3380  -12.1160   72.4090 C.2    50  TYR50       0.2264
      4  O         52.0450  -11.0440   72.9580 O.2    50  TYR50      -0.2867
      5  CB        53.7370  -13.9160   73.4580 C.3    50  TYR50       0.0534
      6  CG        53.8720  -14.9100   74.5910 C.ar   50  TYR50      -0.0201
      7  CD1       54.2380  -14.4950   75.8650 C.ar   50  TYR50      -0.0009
      8  CD2       53.6600  -16.2650   74.3820 C.ar   50  TYR50      -0.0009
      9  CE1       54.3740  -15.4020   76.9010 C.ar   50  TYR50       0.0417
     10  CE2       53.7900  -17.1780   75.4120 C.ar   50  TYR50       0.0417
     11  CZ        54.1470  -16.7420   76.6680 C.ar   50  TYR50       0.1957
     12  OH        54.2780  -17.6490   77.6940 O.3    50  TYR50      -0.2866
     13  N         53.9920    6.7170   70.6550 N.3    95  VAL95      -0.1245
     14  CA        54.7960    5.5990   71.1440 C.3    95  VAL95       0.1561
     15  C         54.0200    4.2860   71.0510 C.2    95  VAL95       0.2260
     16  O         54.5300    3.2920   70.5270 O.2    95  VAL95      -0.2867
     17  CB        55.2630    5.8180   72.6000 C.3    95  VAL95       0.0252
     18  CG1       55.7820    4.5180   73.2000 C.3    95  VAL95       0.0019
     19  CG2       56.3300    6.9010   72.6570 C.3    95  VAL95       0.0019
     20  N         59.9150  -18.4450   74.1320 N.3   127  THR127     -0.1203
     21  CA        59.1180  -17.3740   74.7180 C.3   127  THR127      0.1994
     22  C         60.0310  -16.2360   75.1600 C.2   127  THR127      0.2617
     23  O         59.6250  -15.0730   75.2010 O.2   127  THR127     -0.2717
     24  CB        58.2920  -17.8680   75.9190 C.3   127  THR127      0.1784
     25  OG1       59.1720  -18.3700   76.9320 O.3   127  THR127     -0.2211
     26  CG2       57.3350  -18.9710   75.4900 C.3   127  THR127      0.0376
     27  N         61.2700  -16.5900   75.4890 N.am  128  LYS128     -0.1979
     28  CA        62.2860  -15.6180   75.8700 C.3   128  LYS128      0.1596
     29  C         62.5770  -14.6660   74.7150 C.2   128  LYS128      0.2287
     30  O         62.6250  -13.4480   74.8960 O.2   128  LYS128     -0.2864
     31  CB        63.5660  -16.3320   76.3110 C.3   128  LYS128      0.0298
     32  CG        64.7410  -15.4110   76.5870 C.3   128  LYS128      0.0038
     33  CD        65.9790  -16.2090   76.9600 C.3   128  LYS128      0.0206
     34  CE        67.2020  -15.3160   77.0740 C.3   128  LYS128      0.1093
     35  NZ        68.4240  -16.0940   77.4200 N.3   128  LYS128     -0.1314
     36  N         59.4930  -12.3610   74.1500 N.3   131  GLY131     -0.1225
     37  CA        59.4940  -11.2620   75.0980 C.3   131  GLY131      0.1811
     38  C         60.5750  -10.2490   74.7830 C.2   131  GLY131      0.2280
     39  O         60.3780   -9.0440   74.9490 O.2   131  GLY131     -0.2866
     40  N         59.2640   -8.1850   71.8260 N.3   134  ILE134     -0.1231
     41  CA        58.2110   -7.2730   72.2710 C.3   134  ILE134      0.1692
     42  C         58.8030   -6.0820   73.0260 C.2   134  ILE134      0.2591
     43  O         58.5200   -4.9160   72.7080 O.2   134  ILE134     -0.2718
     44  CB        57.1880   -7.9910   73.1730 C.3   134  ILE134      0.0266
     45  CG1       56.5030   -9.1240   72.4050 C.3   134  ILE134      0.0019
     46  CG2       56.1550   -7.0070   73.7010 C.3   134  ILE134      0.0020
     47  CD1       55.5560   -9.9500   73.2460 C.3   134  ILE134      0.0001
     48  N         59.6320   -6.3900   74.0190 N.am  135  ALA135     -0.1980
     49  CA        60.3180   -5.3700   74.8010 C.3   135  ALA135      0.1597
     50  C         61.1440   -4.4610   73.9000 C.2   135  ALA135      0.2287
     51  O         61.1850   -3.2500   74.1020 O.2   135  ALA135     -0.2864
     52  CB        61.2000   -6.0140   75.8590 C.3   135  ALA135      0.0319
     53  N         58.6710   -2.0280   72.0520 N.3   138  TRP138     -0.1227
     54  CA        58.1930   -0.9470   72.9120 C.3   138  TRP138      0.1737
     55  C         59.3010    0.0460   73.2770 C.2   138  TRP138      0.2595
     56  O         59.1180    1.2630   73.1630 O.2   138  TRP138     -0.2718
     57  CB        57.5630   -1.5170   74.1830 C.3   138  TRP138      0.0564
     58  CG        56.2190   -2.1360   73.9530 C.ar  138  TRP138      0.0003
     59  CD1       55.9580   -3.4260   73.5960 C.ar  138  TRP138      0.0946
     60  CD2       54.9480   -1.4830   74.0550 C.ar  138  TRP138      0.0152
     61  NE1       54.6030   -3.6190   73.4740 N.ar  138  TRP138     -0.2442
     62  CE2       53.9610   -2.4410   73.7500 C.ar  138  TRP138      0.0810
     63  CE3       54.5500   -0.1820   74.3750 C.ar  138  TRP138      0.0012
     64  CZ2       52.6010   -2.1400   73.7580 C.ar  138  TRP138      0.0191
     65  CZ3       53.2000    0.1150   74.3820 C.ar  138  TRP138      0.0001
     66  CH2       52.2420   -0.8590   74.0760 C.ar  138  TRP138      0.0015
     67  N         60.4460   -0.4770   73.7090 N.am  139  VAL139     -0.1980
     68  CA        61.5750    0.3620   74.0980 C.3   139  VAL139      0.1595
     69  C         62.0590    1.2210   72.9330 C.2   139  VAL139      0.2287
     70  O         62.2770    2.4210   73.0920 O.2   139  VAL139     -0.2864
     71  CB        62.7510   -0.4830   74.6370 C.3   139  VAL139      0.0276
     72  CG1       64.0310    0.3380   74.6900 C.3   139  VAL139      0.0022
     73  CG2       62.4150   -1.0420   76.0120 C.3   139  VAL139      0.0022
     74  N         59.6020    4.0000   72.2360 N.3   142  PHE142     -0.1241
     75  CA        59.7640    5.0720   73.2120 C.3   142  PHE142      0.1605
     76  C         60.9900    5.9310   72.9090 C.2   142  PHE142      0.2264
     77  O         60.8980    7.1540   72.8560 O.2   142  PHE142     -0.2867
     78  CB        59.8670    4.4980   74.6260 C.3   142  PHE142      0.0534
     79  CG        59.9490    5.5450   75.7020 C.ar  142  PHE142     -0.0203
     80  CD1       58.8000    6.1380   76.1980 C.ar  142  PHE142     -0.0042
     81  CD2       61.1750    5.9360   76.2170 C.ar  142  PHE142     -0.0042
     82  CE1       58.8710    7.1020   77.1870 C.ar  142  PHE142     -0.0003
     83  CE2       61.2530    6.8990   77.2050 C.ar  142  PHE142     -0.0003
     84  CZ        60.0990    7.4820   77.6910 C.ar  142  PHE142     -0.0000
@<TRIPOS>BOND
     1    16    15    2
     2    13    14    1
     3    15    14    1
     4    14    17    1
     5    40    41    1
     6    53    54    1
     7    74    75    1
     8    41    42    1
     9    41    44    1
    10     1     2    1
    11    45    44    1
    12    45    47    1
    13     3     4    2
    14     3     2    1
    15    17    19    1
    16    17    18    1
    17    43    42    2
    18    77    76    2
    19    76    75    1
    20    54    55    1
    21    54    57    1
    22    69    70    2
    23    69    68    1
    24    42    48   am
    25    56    55    2
    26    44    46    1
    27     2     5    1
    28    75    78    1
    29    55    67   am
    30     5     6    1
    31    61    59   ar
    32    61    62   ar
    33    59    58   ar
    34    67    68    1
    35    62    64   ar
    36    62    60   ar
    37    64    66   ar
    38    50    51    2
    39    50    49    1
    40    58    60   ar
    41    58    57    1
    42    48    49    1
    43    60    63   ar
    44    66    65   ar
    45    68    71    1
    46    20    21    1
    47    36    37    1
    48    63    65   ar
    49     8     6   ar
    50     8    10   ar
    51     6     7   ar
    52    78    79    1
    53    71    72    1
    54    71    73    1
    55    29    30    2
    56    29    28    1
    57    21    22    1
    58    21    24    1
    59    38    39    2
    60    38    37    1
    61    49    52    1
    62    22    23    2
    63    22    27   am
    64    10    11   ar
    65    27    28    1
    66    26    24    1
    67    79    80   ar
    68    79    81   ar
    69     7     9   ar
    70    28    31    1
    71    24    25    1
    72    80    82   ar
    73    81    83   ar
    74    31    32    1
    75    32    33    1
    76    11     9   ar
    77    11    12    1
    78    33    34    1
    79    34    35    1
    80    82    84   ar
    81    83    84   ar
