@<TRIPOS>MOLECULE
tmp/5dsgA04.pdb
 157 148 0 0 0
SMALL
GASTEIGER

@<TRIPOS>ATOM
      1  N         43.5750  -15.0990   76.1210 N.3    38  ILE38      -0.1231
      2  CA        44.9430  -15.6060   76.0970 C.3    38  ILE38       0.1692
      3  C         45.3670  -16.0850   77.4890 C.2    38  ILE38       0.2591
      4  O         46.0820  -17.0790   77.6210 O.2    38  ILE38      -0.2718
      5  CB        45.9270  -14.5370   75.5840 C.3    38  ILE38       0.0266
      6  CG1       45.5400  -14.1100   74.1670 C.3    38  ILE38       0.0019
      7  CG2       47.3560  -15.0590   75.6060 C.3    38  ILE38       0.0020
      8  CD1       46.4370  -13.0480   73.5810 C.3    38  ILE38       0.0001
      9  N         44.9050  -15.3900   78.5240 N.am   39  LYS39      -0.1980
     10  CA        45.2610  -15.7330   79.9020 C.3    39  LYS39       0.1596
     11  C         44.6580  -17.0510   80.3930 C.2    39  LYS39       0.2287
     12  O         45.3370  -17.8420   81.0470 O.2    39  LYS39      -0.2864
     13  CB        44.8410  -14.6090   80.8530 C.3    39  LYS39       0.0298
     14  CG        45.9870  -13.7590   81.3790 C.3    39  LYS39       0.0038
     15  CD        46.9080  -13.2860   80.2730 C.3    39  LYS39       0.0206
     16  CE        48.0940  -12.5280   80.8480 C.3    39  LYS39       0.1093
     17  NZ        48.9100  -13.3790   81.7580 N.3    39  LYS39      -0.1314
     18  N         48.1190  -20.1820   74.5020 N.3    45  GLN45      -0.1245
     19  CA        49.3210  -19.6220   75.1110 C.3    45  GLN45       0.1566
     20  C         50.5720  -19.9680   74.3060 C.2    45  GLN45       0.2260
     21  O         51.4700  -20.6520   74.7960 O.2    45  GLN45      -0.2867
     22  CB        49.4680  -20.1040   76.5550 C.3    45  GLN45       0.0367
     23  CG        48.3950  -19.5690   77.4910 C.3    45  GLN45       0.0905
     24  CD        48.6270  -19.9640   78.9360 C.2    45  GLN45       0.2608
     25  OE1       49.6800  -20.4960   79.2850 O.2    45  GLN45      -0.2717
     26  NE2       47.6410  -19.7010   79.7860 N.am   45  GLN45      -0.0878
     27  N         50.6130  -15.7390   70.2210 N.3    49  ASN49      -0.1225
     28  CA        49.6220  -15.1360   71.1010 C.3    49  ASN49       0.1785
     29  C         50.2590  -14.2550   72.1720 C.2    49  ASN49       0.2597
     30  O         49.5740  -13.4620   72.8130 O.2    49  ASN49      -0.2718
     31  CB        48.7620  -16.2200   71.7510 C.3    49  ASN49       0.1169
     32  CG        47.7640  -16.8260   70.7830 C.2    49  ASN49       0.2627
     33  OD1       47.7810  -16.5290   69.5890 O.2    49  ASN49      -0.2716
     34  ND2       46.8840  -17.6740   71.2960 N.am   49  ASN49      -0.0877
     35  N         51.5680  -14.3950   72.3660 N.am   50  TYR50      -0.1976
     36  CA        52.3110  -13.4330   73.1740 C.3    50  TYR50       0.1639
     37  C         52.3380  -12.1160   72.4090 C.2    50  TYR50       0.2290
     38  O         52.0450  -11.0440   72.9580 O.2    50  TYR50      -0.2864
     39  CB        53.7370  -13.9160   73.4580 C.3    50  TYR50       0.0560
     40  CG        53.8720  -14.9100   74.5910 C.ar   50  TYR50      -0.0198
     41  CD1       54.2380  -14.4950   75.8650 C.ar   50  TYR50      -0.0009
     42  CD2       53.6600  -16.2650   74.3820 C.ar   50  TYR50      -0.0009
     43  CE1       54.3740  -15.4020   76.9010 C.ar   50  TYR50       0.0417
     44  CE2       53.7900  -17.1780   75.4120 C.ar   50  TYR50       0.0417
     45  CZ        54.1470  -16.7420   76.6680 C.ar   50  TYR50       0.1957
     46  OH        54.2780  -17.6490   77.6940 O.3    50  TYR50      -0.2866
     47  N         48.9980  -10.6690   72.3010 N.3    53  PHE53      -0.1227
     48  CA        48.7070  -10.1060   73.6140 C.3    53  PHE53       0.1736
     49  C         49.2720   -8.6950   73.7070 C.2    53  PHE53       0.2596
     50  O         48.6010   -7.7800   74.1890 O.2    53  PHE53      -0.2718
     51  CB        49.2780  -10.9820   74.7310 C.3    53  PHE53       0.0547
     52  CG        48.8650  -10.5500   76.1100 C.ar   53  PHE53      -0.0202
     53  CD1       47.7110  -11.0520   76.6890 C.ar   53  PHE53      -0.0042
     54  CD2       49.6280   -9.6450   76.8290 C.ar   53  PHE53      -0.0042
     55  CE1       47.3270  -10.6560   77.9550 C.ar   53  PHE53      -0.0003
     56  CE2       49.2500   -9.2480   78.0960 C.ar   53  PHE53      -0.0003
     57  CZ        48.0980   -9.7530   78.6590 C.ar   53  PHE53      -0.0000
     58  N         50.5110   -8.5270   73.2480 N.am   54  SER54      -0.1952
     59  CA        51.1380   -7.2070   73.2160 C.3    54  SER54       0.1924
     60  C         50.3100   -6.2210   72.3910 C.2    54  SER54       0.2314
     61  O         50.0120   -5.1010   72.8350 O.2    54  SER54      -0.2863
     62  CB        52.5570   -7.3030   72.6510 C.3    54  SER54       0.2116
     63  OG        53.1650   -6.0260   72.5680 O.3    54  SER54      -0.2180
     64  N         47.2950   -5.1840   74.1430 N.3    57  CYS57      -0.1235
     65  CA        47.6130   -4.1990   75.1710 C.3    57  CYS57       0.1677
     66  C         47.6690   -2.8090   74.5570 C.2    57  CYS57       0.2270
     67  O         47.0770   -1.8600   75.0840 O.2    57  CYS57      -0.2867
     68  CB        48.9410   -4.5270   75.8560 C.3    57  CYS57       0.0956
     69  SG        48.9250   -6.0260   76.8580 S.3    57  CYS57      -0.0801
     70  N         45.2290    0.3990   75.3550 N.3    61  ILE61      -0.1245
     71  CA        45.6990    1.7260   75.7380 C.3    61  ILE61       0.1561
     72  C         45.1230    2.7880   74.8050 C.2    61  ILE61       0.2260
     73  O         44.6980    3.8560   75.2490 O.2    61  ILE61      -0.2867
     74  CB        47.2390    1.8070   75.7250 C.3    61  ILE61       0.0252
     75  CG1       47.8320    0.8170   76.7300 C.3    61  ILE61       0.0019
     76  CG2       47.7050    3.2200   76.0410 C.3    61  ILE61       0.0019
     77  CD1       49.3440    0.8340   76.7850 C.3    61  ILE61       0.0001
     78  N         52.0120   14.5940   77.2340 N.3    88  LEU88      -0.1245
     79  CA        51.8050   13.2230   77.6870 C.3    88  LEU88       0.1561
     80  C         50.9350   12.4290   76.7130 C.2    88  LEU88       0.2260
     81  O         51.2440   11.2820   76.3820 O.2    88  LEU88      -0.2867
     82  CB        51.1770   13.2150   79.0830 C.3    88  LEU88       0.0270
     83  CG        52.0410   13.8100   80.1970 C.3    88  LEU88       0.0019
     84  CD1       51.2920   13.8130   81.5200 C.3    88  LEU88       0.0001
     85  CD2       53.3560   13.0530   80.3200 C.3    88  LEU88       0.0001
     86  N         52.8210   11.8350   73.3030 N.3    91  ALA91      -0.1231
     87  CA        53.8300   10.8120   73.5450 C.3    91  ALA91       0.1694
     88  C         53.1920    9.4290   73.6170 C.2    91  ALA91       0.2591
     89  O         53.6250    8.5060   72.9300 O.2    91  ALA91      -0.2718
     90  CB        54.5960   11.1110   74.8250 C.3    91  ALA91       0.0304
     91  N         52.1560    9.3020   74.4420 N.am   92  LEU92      -0.1980
     92  CA        51.4240    8.0470   74.5740 C.3    92  LEU92       0.1596
     93  C         50.9320    7.5430   73.2200 C.2    92  LEU92       0.2287
     94  O         51.2170    6.4100   72.8260 O.2    92  LEU92      -0.2864
     95  CB        50.2390    8.2190   75.5280 C.3    92  LEU92       0.0297
     96  CG        49.4140    6.9640   75.8170 C.3    92  LEU92       0.0022
     97  CD1       50.2660    5.9090   76.5060 C.3    92  LEU92       0.0001
     98  CD2       48.1920    7.3030   76.6570 C.3    92  LEU92       0.0001
     99  N         53.9920    6.7170   70.6550 N.3    95  VAL95      -0.1231
    100  CA        54.7960    5.5990   71.1440 C.3    95  VAL95       0.1692
    101  C         54.0200    4.2860   71.0510 C.2    95  VAL95       0.2591
    102  O         54.5300    3.2920   70.5270 O.2    95  VAL95      -0.2718
    103  CB        55.2630    5.8180   72.6000 C.3    95  VAL95       0.0266
    104  CG1       55.7820    4.5180   73.2000 C.3    95  VAL95       0.0020
    105  CG2       56.3300    6.9010   72.6570 C.3    95  VAL95       0.0020
    106  N         52.7830    4.2880   71.5440 N.am   96  VAL96      -0.1980
    107  CA        51.9600    3.0820   71.5240 C.3    96  VAL96       0.1595
    108  C         51.6440    2.6410   70.0930 C.2    96  VAL96       0.2287
    109  O         51.7190    1.4510   69.7720 O.2    96  VAL96      -0.2864
    110  CB        50.6420    3.2840   72.3060 C.3    96  VAL96       0.0276
    111  CG1       49.6740    2.1400   72.0440 C.3    96  VAL96       0.0022
    112  CG2       50.9280    3.4090   73.7950 C.3    96  VAL96       0.0022
    113  N         59.4930  -12.3610   74.1500 N.3   131  GLY131     -0.1225
    114  CA        59.4940  -11.2620   75.0980 C.3   131  GLY131      0.1811
    115  C         60.5750  -10.2490   74.7830 C.2   131  GLY131      0.2280
    116  O         60.3780   -9.0440   74.9490 O.2   131  GLY131     -0.2866
    117  N         59.2640   -8.1850   71.8260 N.3   134  ILE134     -0.1245
    118  CA        58.2110   -7.2730   72.2710 C.3   134  ILE134      0.1561
    119  C         58.8030   -6.0820   73.0260 C.2   134  ILE134      0.2260
    120  O         58.5200   -4.9160   72.7080 O.2   134  ILE134     -0.2867
    121  CB        57.1880   -7.9910   73.1730 C.3   134  ILE134      0.0252
    122  CG1       56.5030   -9.1240   72.4050 C.3   134  ILE134      0.0019
    123  CG2       56.1550   -7.0070   73.7010 C.3   134  ILE134      0.0019
    124  CD1       55.5560   -9.9500   73.2460 C.3   134  ILE134      0.0001
    125  N         58.6710   -2.0280   72.0520 N.3   138  TRP138     -0.1241
    126  CA        58.1930   -0.9470   72.9120 C.3   138  TRP138      0.1605
    127  C         59.3010    0.0460   73.2770 C.2   138  TRP138      0.2264
    128  O         59.1180    1.2630   73.1630 O.2   138  TRP138     -0.2867
    129  CB        57.5630   -1.5170   74.1830 C.3   138  TRP138      0.0550
    130  CG        56.2190   -2.1360   73.9530 C.ar  138  TRP138      0.0003
    131  CD1       55.9580   -3.4260   73.5960 C.ar  138  TRP138      0.0946
    132  CD2       54.9480   -1.4830   74.0550 C.ar  138  TRP138      0.0152
    133  NE1       54.6030   -3.6190   73.4740 N.ar  138  TRP138     -0.2442
    134  CE2       53.9610   -2.4410   73.7500 C.ar  138  TRP138      0.0810
    135  CE3       54.5500   -0.1820   74.3750 C.ar  138  TRP138      0.0012
    136  CZ2       52.6010   -2.1400   73.7580 C.ar  138  TRP138      0.0191
    137  CZ3       53.2000    0.1150   74.3820 C.ar  138  TRP138      0.0001
    138  CH2       52.2420   -0.8590   74.0760 C.ar  138  TRP138      0.0015
    139  N         59.6020    4.0000   72.2360 N.3   142  PHE142     -0.1241
    140  CA        59.7640    5.0720   73.2120 C.3   142  PHE142      0.1605
    141  C         60.9900    5.9310   72.9090 C.2   142  PHE142      0.2264
    142  O         60.8980    7.1540   72.8560 O.2   142  PHE142     -0.2867
    143  CB        59.8670    4.4980   74.6260 C.3   142  PHE142      0.0534
    144  CG        59.9490    5.5450   75.7020 C.ar  142  PHE142     -0.0203
    145  CD1       58.8000    6.1380   76.1980 C.ar  142  PHE142     -0.0042
    146  CD2       61.1750    5.9360   76.2170 C.ar  142  PHE142     -0.0042
    147  CE1       58.8710    7.1020   77.1870 C.ar  142  PHE142     -0.0003
    148  CE2       61.2530    6.8990   77.2050 C.ar  142  PHE142     -0.0003
    149  CZ        60.0990    7.4820   77.6910 C.ar  142  PHE142     -0.0000
    150  N         58.7610   15.2950   73.3310 N.3   150  LEU150     -0.1245
    151  CA        58.9040   15.9600   74.6220 C.3   150  LEU150      0.1561
    152  C         60.0830   16.9290   74.6860 C.2   150  LEU150      0.2260
    153  O         59.9790   18.0000   75.2860 O.2   150  LEU150     -0.2867
    154  CB        59.0450   14.9140   75.7320 C.3   150  LEU150      0.0270
    155  CG        57.9120   13.8920   75.8590 C.3   150  LEU150      0.0019
    156  CD1       58.1770   12.9360   77.0110 C.3   150  LEU150      0.0001
    157  CD2       56.5700   14.5830   76.0300 C.3   150  LEU150      0.0001
@<TRIPOS>BOND
     1    33    32    2
     2   109   108    2
     3   108   107    1
     4    27    28    1
     5   102   101    2
     6    99   100    1
     7    32    34   am
     8    32    31    1
     9   101   100    1
    10   101   106   am
    11    28    31    1
    12    28    29    1
    13   100   103    1
    14   107   106    1
    15   107   110    1
    16   117   118    1
    17   111   110    1
    18   125   126    1
    19    29    35   am
    20    29    30    2
    21   139   140    1
    22   118   119    1
    23   118   121    1
    24    47    48    1
    25   110   112    1
    26    35    36    1
    27    60    61    2
    28    60    59    1
    29   122   121    1
    30   122   124    1
    31    37    38    2
    32    37    36    1
    33    63    62    1
    34   103   105    1
    35   103   104    1
    36    62    59    1
    37   120   119    2
    38    94    93    2
    39   142   141    2
    40   141   140    1
    41   126   127    1
    42   126   129    1
    43    89    88    2
    44   128   127    2
    45   121   123    1
    46    36    39    1
    47   140   143    1
    48    59    58    1
    49    93    92    1
    50    58    49   am
    51    86    87    1
    52   150   151    1
    53    39    40    1
    54   133   131   ar
    55   133   134   ar
    56    87    88    1
    57    87    90    1
    58     8     6    1
    59   131   130   ar
    60    48    49    1
    61    48    51    1
    62    88    91   am
    63    49    50    2
    64   134   136   ar
    65   134   132   ar
    66   136   138   ar
    67   130   132   ar
    68   130   129    1
    69   132   135   ar
    70   138   137   ar
    71    64    65    1
    72   113   114    1
    73     6     5    1
    74    20    21    2
    75    20    19    1
    76   135   137   ar
    77    42    40   ar
    78    42    44   ar
    79    91    92    1
    80    18    19    1
    81    66    67    2
    82    66    65    1
    83    92    95    1
    84    40    41   ar
    85   151   152    1
    86   151   154    1
    87   143   144    1
    88   152   153    2
    89    51    52    1
    90   115   116    2
    91   115   114    1
    92    72    73    2
    93    72    71    1
    94    19    22    1
    95    65    68    1
    96    70    71    1
    97    44    45   ar
    98    95    96    1
    99     5     7    1
   100     5     2    1
   101   144   145   ar
   102   144   146   ar
   103    74    71    1
   104    74    76    1
   105    74    75    1
   106   154   155    1
   107    96    97    1
   108    96    98    1
   109    68    69    1
   110   155   157    1
   111   155   156    1
   112    41    43   ar
   113     2     1    1
   114     2     3    1
   115    52    53   ar
   116    52    54   ar
   117   145   147   ar
   118   146   148   ar
   119    81    80    2
   120    22    23    1
   121    45    43   ar
   122    45    46    1
   123    53    55   ar
   124    80    79    1
   125    75    77    1
   126    54    56   ar
   127   147   149   ar
   128   148   149   ar
   129    78    79    1
   130     3     4    2
   131     3     9   am
   132    23    24    1
   133    79    82    1
   134    55    57   ar
   135    56    57   ar
   136     9    10    1
   137    24    25    2
   138    24    26   am
   139    82    83    1
   140    10    11    1
   141    10    13    1
   142    83    85    1
   143    83    84    1
   144    15    16    1
   145    15    14    1
   146    11    12    2
   147    16    17    1
   148    13    14    1
