@<TRIPOS>MOLECULE
tmp/5dshA01.pdb
 218 207 0 0 0
SMALL
GASTEIGER

@<TRIPOS>ATOM
      1  N         17.6770   24.6230    9.0020 N.3    21  PHE21      -0.1228
      2  CA        18.7610   24.8700    9.9520 C.3    21  PHE21       0.1721
      3  C         19.6010   26.0730    9.4950 C.2    21  PHE21       0.2437
      4  O         20.3170   25.9920    8.4800 O.2    21  PHE21      -0.2733
      5  CB        19.6210   23.6210   10.0980 C.3    21  PHE21       0.0547
      6  CG        18.8250   22.3750   10.3650 C.ar   21  PHE21      -0.0202
      7  CD1       18.0820   22.2490   11.5320 C.ar   21  PHE21      -0.0042
      8  CD2       18.8110   21.3230    9.4450 C.ar   21  PHE21      -0.0042
      9  CE1       17.3520   21.0940   11.7820 C.ar   21  PHE21      -0.0003
     10  CE2       18.0780   20.1730    9.6900 C.ar   21  PHE21      -0.0003
     11  CZ        17.3490   20.0540   10.8620 C.ar   21  PHE21      -0.0000
     12  N         19.5240   27.1920   10.2450 N.am   22  PRO22      -0.2729
     13  CA        20.1080   28.4470    9.7710 C.3    22  PRO22       0.1401
     14  C         21.6510   28.4610    9.7480 C.2    22  PRO22       0.2269
     15  O         22.2410   29.0130    8.8080 O.2    22  PRO22      -0.2865
     16  CB        19.5470   29.4780   10.7600 C.3    22  PRO22       0.0296
     17  CG        19.3720   28.7210   12.0360 C.3    22  PRO22       0.0237
     18  CD        19.0600   27.3010   11.6460 C.3    22  PRO22       0.0939
     19  N         22.4360   25.6750   31.9120 N.3    63  PHE63      -0.1241
     20  CA        21.5260   24.5760   31.5540 C.3    63  PHE63       0.1605
     21  C         20.1430   25.0750   31.0960 C.2    63  PHE63       0.2264
     22  O         19.5270   24.4830   30.2140 O.2    63  PHE63      -0.2867
     23  CB        21.3810   23.6020   32.7270 C.3    63  PHE63       0.0534
     24  CG        20.7200   22.2920   32.3680 C.ar   63  PHE63      -0.0203
     25  CD1       19.3220   22.1480   32.4300 C.ar   63  PHE63      -0.0042
     26  CD2       21.4870   21.1930   31.9870 C.ar   63  PHE63      -0.0042
     27  CE1       18.7060   20.9400   32.1100 C.ar   63  PHE63      -0.0003
     28  CE2       20.8800   19.9830   31.6680 C.ar   63  PHE63      -0.0003
     29  CZ        19.4910   19.8530   31.7380 C.ar   63  PHE63      -0.0000
     30  N         20.9620   26.1450   27.6250 N.3    66  CYS66      -0.1221
     31  CA        21.0580   24.8940   26.8710 C.3    66  CYS66       0.1808
     32  C         19.6800   24.3250   26.5400 C.2    66  CYS66       0.2601
     33  O         19.4420   23.8360   25.4470 O.2    66  CYS66      -0.2717
     34  CB        21.8490   23.8790   27.7040 C.3    66  CYS66       0.0970
     35  SG        22.0980   22.3160   26.9390 S.3    66  CYS66      -0.0800
     36  N         18.7870   24.4030   27.5070 N.am   67  GLN67      -0.1979
     37  CA        17.4350   23.8810   27.3950 C.3    67  GLN67       0.1601
     38  C         16.5500   24.6690   26.4150 C.2    67  GLN67       0.2287
     39  O         15.8860   24.0710   25.5660 O.2    67  GLN67      -0.2864
     40  CB        16.8340   23.8780   28.7910 C.3    67  GLN67       0.0394
     41  CG        15.4570   23.2740   28.9290 C.3    67  GLN67       0.0908
     42  CD        15.1340   22.8410   30.3520 C.2    67  GLN67       0.2608
     43  OE1       14.2800   21.9910   30.5360 O.2    67  GLN67      -0.2717
     44  NE2       15.8110   23.4080   31.3570 N.am   67  GLN67      -0.0878
     45  N         17.4980   26.3460   23.9510 N.3    69  ARG69      -0.1231
     46  CA        18.0280   26.1120   22.6070 C.3    69  ARG69       0.1694
     47  C         17.7050   24.7170   22.0880 C.2    69  ARG69       0.2592
     48  O         17.4920   24.5360   20.8930 O.2    69  ARG69      -0.2718
     49  CB        19.5410   26.3690   22.5690 C.3    69  ARG69       0.0321
     50  CG        20.2030   26.2000   21.1960 C.3    69  ARG69       0.0489
     51  CD        19.6910   27.1620   20.1120 C.3    69  ARG69       0.2205
     52  NE        19.6500   26.5380   18.7740 N.pl3  69  ARG69      -0.0865
     53  CZ        19.0490   27.0510   17.6910 C.cat  69  ARG69       0.5346
     54  NH1       18.4160   28.2260   17.7430 N.pl3  69  ARG69       0.1354
     55  NH2       19.0810   26.3790   16.5370 N.pl3  69  ARG69       0.1354
     56  N         17.6910   23.7300   22.9800 N.am   70  SER70      -0.1952
     57  CA        17.2430   22.3760   22.6450 C.3    70  SER70       0.1924
     58  C         15.8480   22.3710   22.0460 C.2    70  SER70       0.2314
     59  O         15.5630   21.6170   21.1300 O.2    70  SER70      -0.2863
     60  CB        17.2400   21.4920   23.8920 C.3    70  SER70       0.2116
     61  OG        17.1790   20.1180   23.5360 O.3    70  SER70      -0.2180
     62  N         15.7870   23.5870   18.5860 N.3    73  ALA73      -0.1245
     63  CA        16.3490   22.4920   17.7970 C.3    73  ALA73       0.1562
     64  C         15.2690   21.4890   17.4060 C.2    73  ALA73       0.2260
     65  O         15.1260   21.1450   16.2260 O.2    73  ALA73      -0.2867
     66  CB        17.4700   21.8090   18.5630 C.3    73  ALA73       0.0290
     67  N         13.0050   22.9370   14.7920 N.3    76  GLU76      -0.1231
     68  CA        13.6580   22.9000   13.4750 C.3    76  GLU76       0.1699
     69  C         13.7070   21.4900   12.8970 C.2    76  GLU76       0.2592
     70  O         13.4120   21.2980   11.7040 O.2    76  GLU76      -0.2718
     71  CB        15.0720   23.4620   13.5520 C.3    76  GLU76       0.0402
     72  CG        15.1260   24.9640   13.7720 C.3    76  GLU76       0.1161
     73  CD        16.4890   25.4720   14.2340 C.2    76  GLU76       0.3649
     74  OE1       17.4400   24.6750   14.3900 O.co2  76  GLU76      -0.2457
     75  OE2       16.6140   26.6930   14.4470 O.co2  76  GLU76      -0.2457
     76  N         14.0810   20.5210   13.7440 N.am   77  ILE77      -0.1980
     77  CA        14.1630   19.1040   13.3460 C.3    77  ILE77       0.1595
     78  C         12.7890   18.5690   12.8880 C.2    77  ILE77       0.2287
     79  O         12.6860   17.9310   11.8280 O.2    77  ILE77      -0.2864
     80  CB        14.7410   18.2240   14.4800 C.3    77  ILE77       0.0276
     81  CG1       16.2190   18.5490   14.7140 C.3    77  ILE77       0.0022
     82  CG2       14.6110   16.7380   14.1570 C.3    77  ILE77       0.0022
     83  CD1       16.7520   18.0970   16.0670 C.3    77  ILE77       0.0001
     84  N         17.2090   13.6840   19.7860 N.3   104  HIS104     -0.1241
     85  CA        18.4480   13.7820   20.5600 C.3   104  HIS104      0.1621
     86  C         19.6460   13.1690   19.8400 C.2   104  HIS104      0.2264
     87  O         20.7680   13.6440   20.0090 O.2   104  HIS104     -0.2867
     88  CB        18.2740   13.2330   21.9810 C.3   104  HIS104      0.0745
     89  CG        17.5250   14.1710   22.8800 C.ar  104  HIS104      0.0817
     90  ND1       16.2930   13.8690   23.4210 N.ar  104  HIS104     -0.2268
     91  CD2       17.8150   15.4310   23.2890 C.ar  104  HIS104      0.1154
     92  CE1       15.8680   14.8910   24.1440 C.ar  104  HIS104      0.1986
     93  NE2       16.7720   15.8530   24.0770 N.ar  104  HIS104     -0.2212
     94  N         19.9500   13.3470   16.5820 N.3   106  ILE106     -0.1231
     95  CA        20.2460   14.4060   15.6160 C.3   106  ILE106      0.1692
     96  C         20.8700   15.6280   16.2790 C.2   106  ILE106      0.2591
     97  O         21.7250   16.2820   15.6910 O.2   106  ILE106     -0.2718
     98  CB        18.9710   14.8010   14.8480 C.3   106  ILE106      0.0266
     99  CG1       18.5190   13.6120   14.0150 C.3   106  ILE106      0.0019
    100  CG2       19.1930   16.0100   13.9420 C.3   106  ILE106      0.0020
    101  CD1       17.0420   13.5990   13.7630 C.3   106  ILE106      0.0001
    102  N         20.4420   15.9440   17.4930 N.am  107  ILE107     -0.1980
    103  CA        21.0100   17.0860   18.1990 C.3   107  ILE107      0.1595
    104  C         22.5050   16.8750   18.4170 C.2   107  ILE107      0.2287
    105  O         23.2980   17.7380   18.0870 O.2   107  ILE107     -0.2864
    106  CB        20.2610   17.3870   19.5150 C.3   107  ILE107      0.0276
    107  CG1       18.9180   18.0600   19.1920 C.3   107  ILE107      0.0022
    108  CG2       21.0730   18.2930   20.4330 C.3   107  ILE107      0.0022
    109  CD1       17.8690   17.9220   20.2750 C.3   107  ILE107      0.0001
    110  N         24.3260   17.0440   15.0230 N.3   110  MET110     -0.1230
    111  CA        24.5000   18.3830   14.5010 C.3   110  MET110      0.1702
    112  C         25.2990   19.3140   15.4290 C.2   110  MET110      0.2592
    113  O         25.9510   20.2350   14.9630 O.2   110  MET110     -0.2718
    114  CB        23.1380   18.9560   14.1200 C.3   110  MET110      0.0401
    115  CG        22.4630   18.1910   12.9890 C.3   110  MET110      0.0596
    116  SD        21.2970   19.1610   12.0040 S.3   110  MET110     -0.1393
    117  CE        22.4050   20.1690   11.0280 C.3   110  MET110      0.0692
    118  N         25.2610   19.0760   16.7290 N.am  111  LEU111     -0.1980
    119  CA        26.1690   19.7630   17.6510 C.3   111  LEU111      0.1596
    120  C         27.6140   19.6490   17.2320 C.2   111  LEU111      0.2287
    121  O         28.3760   20.6020   17.3620 O.2   111  LEU111     -0.2864
    122  CB        26.0750   19.2080   19.0740 C.3   111  LEU111      0.0297
    123  CG        25.3070   20.0280   20.1020 C.3   111  LEU111      0.0022
    124  CD1       25.3860   19.2930   21.4310 C.3   111  LEU111      0.0001
    125  CD2       25.8420   21.4480   20.2320 C.3   111  LEU111      0.0001
    126  N         28.9900   22.2370   15.1400 N.3   114  LEU114     -0.1245
    127  CA        29.2460   23.4230   15.9700 C.3   114  LEU114      0.1561
    128  C         30.4340   23.3400   16.9330 C.2   114  LEU114      0.2260
    129  O         30.8400   24.3710   17.4680 O.2   114  LEU114     -0.2867
    130  CB        27.9930   23.7870   16.7820 C.3   114  LEU114      0.0270
    131  CG        26.9330   24.6600   16.1100 C.3   114  LEU114      0.0019
    132  CD1       26.6550   24.2920   14.6590 C.3   114  LEU114      0.0001
    133  CD2       25.6460   24.5860   16.9260 C.3   114  LEU114      0.0001
    134  N         32.5430   24.9470   21.8270 N.3   120  VAL120     -0.1231
    135  CA        31.3330   24.8730   21.0000 C.3   120  VAL120      0.1692
    136  C         30.7840   26.2640   20.6740 C.2   120  VAL120      0.2592
    137  O         30.5840   27.0840   21.5640 O.2   120  VAL120     -0.2718
    138  CB        30.2230   24.0300   21.7010 C.3   120  VAL120      0.0266
    139  CG1       29.8630   24.5710   23.0900 C.3   120  VAL120      0.0020
    140  CG2       28.9690   23.9080   20.8280 C.3   120  VAL120      0.0020
    141  N         30.5150   26.5130   19.3970 N.am  121  LEU121     -0.1966
    142  CA        29.7900   27.7170   18.9950 C.3   121  LEU121      0.1728
    143  C         28.3520   27.7570   19.5320 C.2   121  LEU121      0.2616
    144  O         27.5800   26.8190   19.3420 O.2   121  LEU121     -0.2715
    145  CB        29.7320   27.8250   17.4810 C.3   121  LEU121      0.0311
    146  CG        31.0620   28.1040   16.7990 C.3   121  LEU121      0.0022
    147  CD1       30.8860   27.8860   15.3050 C.3   121  LEU121      0.0001
    148  CD2       31.5480   29.5200   17.0750 C.3   121  LEU121      0.0001
    149  N         28.0070   28.8720   20.1650 N.am  122  ILE122     -0.1977
    150  CA        26.6700   29.1120   20.6960 C.3   122  ILE122      0.1596
    151  C         26.0620   30.4070   20.1290 C.2   122  ILE122      0.2287
    152  O         26.7400   31.1930   19.4530 O.2   122  ILE122     -0.2864
    153  CB        26.6960   29.1790   22.2340 C.3   122  ILE122      0.0276
    154  CG1       27.6690   30.2660   22.7040 C.3   122  ILE122      0.0022
    155  CG2       27.0800   27.8280   22.8130 C.3   122  ILE122      0.0022
    156  CD1       27.3980   30.7600   24.0990 C.3   122  ILE122      0.0001
    157  N         27.7020   16.8140   31.8600 N.3   144  PHE144     -0.1227
    158  CA        26.5530   16.7680   30.9620 C.3   144  PHE144      0.1736
    159  C         27.0200   16.8790   29.5210 C.2   144  PHE144      0.2595
    160  O         26.6820   16.0230   28.7230 O.2   144  PHE144     -0.2718
    161  CB        25.5350   17.8750   31.2800 C.3   144  PHE144      0.0547
    162  CG        24.2860   17.8300   30.4200 C.ar  144  PHE144     -0.0202
    163  CD1       23.2720   16.9030   30.6740 C.ar  144  PHE144     -0.0042
    164  CD2       24.1180   18.7210   29.3640 C.ar  144  PHE144     -0.0042
    165  CE1       22.1250   16.8650   29.8870 C.ar  144  PHE144     -0.0003
    166  CE2       22.9790   18.6880   28.5780 C.ar  144  PHE144     -0.0003
    167  CZ        21.9820   17.7570   28.8380 C.ar  144  PHE144     -0.0000
    168  N         27.8110   17.9080   29.2090 N.am  145  MET145     -0.1979
    169  CA        28.2330   18.1940   27.8180 C.3   145  MET145      0.1605
    170  C         29.4910   17.4500   27.3220 C.2   145  MET145      0.2287
    171  O         29.7480   17.3880   26.1110 O.2   145  MET145     -0.2864
    172  CB        28.4250   19.7090   27.6160 C.3   145  MET145      0.0413
    173  CG        27.1360   20.4910   27.3760 C.3   145  MET145      0.0598
    174  SD        26.2940   20.1270   25.8120 S.3   145  MET145     -0.1393
    175  CE        27.4590   20.7980   24.6300 C.3   145  MET145      0.0692
    176  N         29.1320   14.6710   24.6850 N.3   148  LYS148     -0.1245
    177  CA        28.8280   15.2380   23.3620 C.3   148  LYS148      0.1561
    178  C         30.1170   15.6380   22.6710 C.2   148  LYS148      0.2260
    179  O         30.2870   15.4060   21.4840 O.2   148  LYS148     -0.2867
    180  CB        27.9220   16.4790   23.3950 C.3   148  LYS148      0.0271
    181  CG        26.9680   16.6830   24.5600 C.3   148  LYS148      0.0035
    182  CD        26.0060   15.5500   24.7640 C.3   148  LYS148      0.0206
    183  CE        25.2110   15.6910   26.0540 C.3   148  LYS148      0.1093
    184  NZ        24.9910   14.3680   26.7130 N.3   148  LYS148     -0.1314
    185  N         22.5580   10.0680   27.9450 N.3   230  HIS230     -0.1241
    186  CA        22.0710   11.4470   28.0230 C.3   230  HIS230      0.1621
    187  C         20.7000   11.4990   28.6860 C.2   230  HIS230      0.2264
    188  O         20.4910   12.2950   29.5960 O.2   230  HIS230     -0.2867
    189  CB        22.0590   12.0770   26.6120 C.3   230  HIS230      0.0745
    190  CG        21.2360   13.3290   26.4790 C.ar  230  HIS230      0.0817
    191  ND1       21.7510   14.5960   26.6630 N.ar  230  HIS230     -0.2268
    192  CD2       19.9410   13.5010   26.1230 C.ar  230  HIS230      0.1154
    193  CE1       20.8010   15.4900   26.4550 C.ar  230  HIS230      0.1986
    194  NE2       19.6930   14.8520   26.1270 N.ar  230  HIS230     -0.2212
    195  N         19.3620   13.3110   32.3260 N.3   234  LEU234     -0.1245
    196  CA        18.1890   14.1910   32.4760 C.3   234  LEU234      0.1561
    197  C         17.2780   13.6950   33.5920 C.2   234  LEU234      0.2260
    198  O         16.7500   14.4940   34.3600 O.2   234  LEU234     -0.2867
    199  CB        17.3790   14.3200   31.1690 C.3   234  LEU234      0.0270
    200  CG        17.9680   15.0710   29.9640 C.3   234  LEU234      0.0019
    201  CD1       16.9190   15.1660   28.8510 C.3   234  LEU234      0.0001
    202  CD2       18.5020   16.4490   30.3530 C.3   234  LEU234      0.0001
    203  N         12.3970   21.5120   34.2910 N.3   246  LEU246     -0.1245
    204  CA        12.5340   21.0070   32.9240 C.3   246  LEU246      0.1561
    205  C         11.4800   21.6720   32.0610 C.2   246  LEU246      0.2260
    206  O         10.4260   22.0570   32.5620 O.2   246  LEU246     -0.2867
    207  CB        12.3840   19.4850   32.8410 C.3   246  LEU246      0.0270
    208  CG        13.1780   18.8720   31.6790 C.3   246  LEU246      0.0019
    209  CD1       14.6630   18.8130   32.0230 C.3   246  LEU246      0.0001
    210  CD2       12.6730   17.4880   31.3020 C.3   246  LEU246      0.0001
    211  N         10.5680   19.0350   26.3380 N.3   250  LEU250     -0.1245
    212  CA        11.6310   18.1070   26.7070 C.3   250  LEU250      0.1561
    213  C         11.1160   16.9710   27.5950 C.2   250  LEU250      0.2260
    214  O         11.5930   15.8370   27.4660 O.2   250  LEU250     -0.2867
    215  CB        12.8070   18.8380   27.3580 C.3   250  LEU250      0.0270
    216  CG        13.4010   20.0260   26.5770 C.3   250  LEU250      0.0019
    217  CD1       14.8420   20.2100   27.0080 C.3   250  LEU250      0.0001
    218  CD2       13.3460   19.9340   25.0540 C.3   250  LEU250      0.0001
@<TRIPOS>BOND
     1     4     3    2
     2    15    14    2
     3     1     2    1
     4     8    10   ar
     5     8     6   ar
     6     3     2    1
     7     3    12   am
     8    10    11   ar
     9    14    13    1
    10    13    12    1
    11    13    16    1
    12     2     5    1
    13     5     6    1
    14    12    18    1
    15     6     7   ar
    16    16    17    1
    17    11     9   ar
    18   117   116    1
    19     7     9   ar
    20    18    17    1
    21    70    69    2
    22    79    78    2
    23   116   115    1
    24    78    77    1
    25    69    68    1
    26    69    76   am
    27   115   114    1
    28    77    76    1
    29    77    80    1
    30    68    71    1
    31    68    67    1
    32    71    72    1
    33   101    99    1
    34    72    73    1
    35   100    98    1
    36    99    98    1
    37   114   111    1
    38    82    80    1
    39    73    74   ar
    40    73    75   ar
    41    80    81    1
    42   111   110    1
    43   111   112    1
    44   132   131    1
    45    81    83    1
    46    98    95    1
    47   113   112    2
    48   126   127    1
    49   147   146    1
    50   112   118   am
    51    95    96    1
    52    95    94    1
    53    97    96    2
    54   127   130    1
    55   127   128    1
    56   131   130    1
    57   131   133    1
    58    65    64    2
    59    96   102   am
    60    55    53    1
    61   118   119    1
    62   146   148    1
    63   146   145    1
    64   128   129    2
    65   120   121    2
    66   120   119    1
    67    64    63    1
    68   145   142    1
    69   102   103    1
    70   119   122    1
    71    53    54    1
    72    53    52    2
    73    63    66    1
    74    63    62    1
    75   105   104    2
    76   103   104    1
    77   103   106    1
    78    52    51    1
    79   142   141    1
    80   142   143    1
    81   122   123    1
    82   107   106    1
    83   107   109    1
    84   144   143    2
    85   141   136   am
    86   152   151    2
    87   106   108    1
    88   143   149   am
    89    84    85    1
    90    86    87    2
    91    86    85    1
    92   123   125    1
    93   123   124    1
    94    51    50    1
    95   151   150    1
    96   149   150    1
    97    85    88    1
    98   136   135    1
    99   136   137    2
   100   150   153    1
   101   140   138    1
   102    48    47    2
   103   135   138    1
   104   135   134    1
   105    59    58    2
   106    50    49    1
   107   179   178    2
   108   138   139    1
   109    88    89    1
   110    58    57    1
   111    47    46    1
   112    47    56   am
   113   153   154    1
   114   153   155    1
   115    49    46    1
   116    46    45    1
   117    57    56    1
   118    57    60    1
   119   178   177    1
   120   154   156    1
   121    89    91   ar
   122    89    90   ar
   123    91    93   ar
   124   177   180    1
   125   177   176    1
   126   180   181    1
   127    90    92   ar
   128    61    60    1
   129    93    92   ar
   130   181   182    1
   131   175   174    1
   132   182   183    1
   133   218   216    1
   134    33    32    2
   135    39    38    2
   136   174   173    1
   137   183   184    1
   138   171   170    2
   139   192   194   ar
   140   192   190   ar
   141   194   193   ar
   142   211   212    1
   143    38    37    1
   144   193   191   ar
   145   190   189    1
   146   190   191   ar
   147    32    31    1
   148    32    36   am
   149   216   217    1
   150   216   215    1
   151   189   186    1
   152   212   215    1
   153   212   213    1
   154    31    30    1
   155    31    34    1
   156    35    34    1
   157   170   169    1
   158   173   172    1
   159    37    36    1
   160    37    40    1
   161   214   213    2
   162   172   169    1
   163   169   168    1
   164   185   186    1
   165   186   187    1
   166   166   167   ar
   167   166   164   ar
   168   187   188    2
   169   160   159    2
   170    40    41    1
   171   167   165   ar
   172   201   200    1
   173    41    42    1
   174   168   159   am
   175   164   162   ar
   176   159   158    1
   177   165   163   ar
   178   200   202    1
   179   200   199    1
   180    22    21    2
   181    42    43    2
   182    42    44   am
   183   162   163   ar
   184   162   161    1
   185   158   161    1
   186   158   157    1
   187    21    20    1
   188   199   196    1
   189   210   208    1
   190    20    19    1
   191    20    23    1
   192    28    29   ar
   193    28    26   ar
   194   208   209    1
   195   208   207    1
   196    29    27   ar
   197    26    24   ar
   198   205   206    2
   199   205   204    1
   200    27    25   ar
   201   195   196    1
   202    24    25   ar
   203    24    23    1
   204   196   197    1
   205   207   204    1
   206   204   203    1
   207   197   198    2
