@<TRIPOS>MOLECULE
tmp/5dsxA00.pdb
 206 200 0 0 0
SMALL
GASTEIGER

@<TRIPOS>ATOM
      1  N         34.1730  -15.2580   23.4300 N.3   116  GLU116     -0.1231
      2  CA        33.4760  -14.9170   22.1930 C.3   116  GLU116      0.1684
      3  C         33.8140  -15.8740   21.0150 C.2   116  GLU116      0.2434
      4  O         34.9560  -16.3650   20.9140 O.2   116  GLU116     -0.2733
      5  CB        33.6680  -13.4410   21.7980 C.3   116  GLU116      0.0402
      6  CG        33.2880  -12.4760   22.9250 C.3   116  GLU116      0.1161
      7  CD        33.7490  -11.0530   22.6540 C.2   116  GLU116      0.3649
      8  OE1       34.2170  -10.7950   21.5140 O.co2 116  GLU116     -0.2457
      9  OE2       33.6070  -10.2270   23.5790 O.co2 116  GLU116     -0.2457
     10  N         32.8380  -16.1650   20.1080 N.am  117  PRO117     -0.2718
     11  CA        33.1470  -17.0710   18.9830 C.3   117  PRO117      0.1535
     12  C         33.9990  -16.4290   17.8810 C.2   117  PRO117      0.2598
     13  O         34.6250  -17.1730   17.1160 O.2   117  PRO117     -0.2715
     14  CB        31.7670  -17.5180   18.4870 C.3   117  PRO117      0.0310
     15  CG        30.8590  -16.3910   18.8350 C.3   117  PRO117      0.0237
     16  CD        31.4330  -15.6950   20.0510 C.3   117  PRO117      0.0939
     17  N         34.0340  -15.0620   17.8050 N.am  118  PHE118     -0.1974
     18  CA        34.8300  -14.3350   16.8090 C.3   118  PHE118      0.1639
     19  C         35.9790  -13.4940   17.4440 C.2   118  PHE118      0.2290
     20  O         36.2900  -12.3880   16.9840 O.2   118  PHE118     -0.2864
     21  CB        33.9290  -13.4970   15.8860 C.3   118  PHE118      0.0560
     22  CG        33.1520  -14.3050   14.8760 C.ar  118  PHE118     -0.0200
     23  CD1       33.7970  -14.9150   13.8000 C.ar  118  PHE118     -0.0042
     24  CD2       31.7740  -14.4530   14.9930 C.ar  118  PHE118     -0.0042
     25  CE1       33.0740  -15.6590   12.8610 C.ar  118  PHE118     -0.0003
     26  CE2       31.0510  -15.1970   14.0520 C.ar  118  PHE118     -0.0003
     27  CZ        31.7070  -15.7980   12.9950 C.ar  118  PHE118     -0.0000
     28  N         39.9870  -12.4200   18.7350 N.3   120  PRO120     -0.2116
     29  CA        41.2710  -12.3210   18.0180 C.3   120  PRO120      0.1372
     30  C         42.0540  -13.6310   17.9170 C.2   120  PRO120      0.2244
     31  O         42.7210  -13.8590   16.9180 O.2   120  PRO120     -0.2868
     32  CB        42.0440  -11.2730   18.8320 C.3   120  PRO120      0.0268
     33  CG        40.9880  -10.4250   19.4480 C.3   120  PRO120      0.0207
     34  CD        39.8880  -11.3840   19.7890 C.3   120  PRO120      0.0892
     35  N         41.1130  -15.5610   14.6930 N.3   123  TYR123     -0.1241
     36  CA        41.0710  -14.7420   13.4860 C.3   123  TYR123      0.1605
     37  C         41.3420  -15.5380   12.2360 C.2   123  TYR123      0.2264
     38  O         40.6620  -15.3370   11.2370 O.2   123  TYR123     -0.2867
     39  CB        42.0530  -13.5540   13.5880 C.3   123  TYR123      0.0534
     40  CG        41.9480  -12.6150   12.4020 C.ar  123  TYR123     -0.0201
     41  CD1       40.9560  -11.6350   12.3480 C.ar  123  TYR123     -0.0009
     42  CD2       42.8150  -12.7320   11.3120 C.ar  123  TYR123     -0.0009
     43  CE1       40.8230  -10.7960   11.2400 C.ar  123  TYR123      0.0417
     44  CE2       42.7070  -11.8830   10.2080 C.ar  123  TYR123      0.0417
     45  CZ        41.7140  -10.9110   10.1820 C.ar  123  TYR123      0.1957
     46  OH        41.5930  -10.0790    9.1070 O.3   123  TYR123     -0.2866
     47  N         37.5100  -15.3610   10.0530 N.3   127  SER127     -0.1217
     48  CA        37.6620  -13.9720    9.6400 C.3   127  SER127      0.1889
     49  C         38.6950  -13.7450    8.5530 C.2   127  SER127      0.2288
     50  O         38.4530  -12.9140    7.6770 O.2   127  SER127     -0.2866
     51  CB        37.9310  -13.0710   10.8400 C.3   127  SER127      0.2089
     52  OG        36.8580  -13.2120   11.7590 O.3   127  SER127     -0.2183
     53  N         37.3550  -14.6130    5.0800 N.3   130  LEU130     -0.1231
     54  CA        36.2890  -13.6800    4.7970 C.3   130  LEU130      0.1693
     55  C         36.8430  -12.3260    4.4200 C.2   130  LEU130      0.2591
     56  O         36.3900  -11.7450    3.4300 O.2   130  LEU130     -0.2718
     57  CB        35.3380  -13.5880    5.9850 C.3   130  LEU130      0.0284
     58  CG        34.0590  -12.7970    5.7720 C.3   130  LEU130      0.0019
     59  CD1       33.2430  -13.3370    4.5840 C.3   130  LEU130      0.0001
     60  CD2       33.2510  -12.7710    7.0470 C.3   130  LEU130      0.0001
     61  N         37.8620  -11.8390    5.1600 N.am  131  VAL131     -0.1980
     62  CA        38.5260  -10.5700    4.8630 C.3   131  VAL131      0.1595
     63  C         39.2280  -10.6870    3.4820 C.2   131  VAL131      0.2287
     64  O         39.1800   -9.7430    2.6900 O.2   131  VAL131     -0.2864
     65  CB        39.4690  -10.1270    6.0290 C.3   131  VAL131      0.0276
     66  CG1       40.3980   -8.9810    5.6070 C.3   131  VAL131      0.0022
     67  CG2       38.6590   -9.7380    7.2770 C.3   131  VAL131      0.0022
     68  N         36.5910   -9.9970    0.9500 N.3   134  MET134     -0.1245
     69  CA        36.2520   -8.5800    0.9610 C.3   134  MET134      0.1570
     70  C         37.2940   -7.8170    0.1810 C.2   134  MET134      0.2261
     71  O         36.9360   -6.9490   -0.6100 O.2   134  MET134     -0.2867
     72  CB        36.0970   -8.0410    2.3970 C.3   134  MET134      0.0387
     73  CG        34.9600   -8.7150    3.1570 C.3   134  MET134      0.0595
     74  SD        34.6710   -8.4400    4.9510 S.3   134  MET134     -0.1393
     75  CE        36.0200   -7.6850    5.4180 C.3   134  MET134      0.0692
     76  N         39.6280    0.8460    9.3180 N.3   148  ASP148     -0.1239
     77  CA        38.8720   -0.1840   10.0300 C.3   148  ASP148      0.1674
     78  C         38.4610    0.4590   11.3590 C.2   148  ASP148      0.2266
     79  O         39.3270    0.7950   12.1740 O.2   148  ASP148     -0.2867
     80  CB        39.6900   -1.4700   10.2380 C.3   148  ASP148      0.1410
     81  CG        38.9360   -2.5660   10.9680 C.2   148  ASP148      0.3668
     82  OD1       37.7080   -2.6940   10.7570 O.co2 148  ASP148     -0.2456
     83  OD2       39.5630   -3.2800   11.7570 O.co2 148  ASP148     -0.2456
     84  N         37.2030    0.5190   14.8330 N.3   150  GLY150     -0.1210
     85  CA        37.1590   -0.4270   15.9400 C.3   150  GLY150      0.1956
     86  C         38.0510   -1.5820   15.5360 C.2   150  GLY150      0.2613
     87  O         37.6000   -2.7170   15.3990 O.2   150  GLY150     -0.2717
     88  N         39.3280   -1.2670   15.2880 N.am  151  SER151     -0.1938
     89  CA        40.3310   -2.1740   14.7610 C.3   151  SER151      0.2055
     90  C         40.8520   -3.2380   15.7170 C.2   151  SER151      0.2644
     91  O         41.5730   -4.1390   15.2640 O.2   151  SER151     -0.2714
     92  CB        41.4980   -1.3900   14.1690 C.3   151  SER151      0.2130
     93  OG        41.9950   -0.4450   15.0990 O.3   151  SER151     -0.2179
     94  N         40.4740   -3.1640   16.9870 N.am  152  GLY152     -0.1939
     95  CA        40.9150   -4.1340   17.9790 C.3   152  GLY152      0.2014
     96  C         42.4250   -4.2240   18.0830 C.2   152  GLY152      0.2638
     97  O         43.0960   -3.1910   18.2330 O.2   152  GLY152     -0.2714
     98  N         42.9770   -5.4610   17.9530 N.am  153  VAL153     -0.1977
     99  CA        44.4330   -5.6700   18.0120 C.3   153  VAL153      0.1596
    100  C         45.0830   -5.3770   16.6410 C.2   153  VAL153      0.2287
    101  O         46.3080   -5.4320   16.5240 O.2   153  VAL153     -0.2864
    102  CB        44.8880   -7.0270   18.6360 C.3   153  VAL153      0.0276
    103  CG1       44.3720   -7.1640   20.0630 C.3   153  VAL153      0.0022
    104  CG2       44.4780   -8.2320   17.7870 C.3   153  VAL153      0.0022
    105  N         44.2860   -6.8270   13.4140 N.3   155  GLN155     -0.1231
    106  CA        44.3450   -7.9490   12.4660 C.3   155  GLN155      0.1698
    107  C         43.8290   -7.6410   11.0450 C.2   155  GLN155      0.2592
    108  O         44.5020   -7.9960   10.0780 O.2   155  GLN155     -0.2718
    109  CB        43.6430   -9.1780   13.0450 C.3   155  GLN155      0.0381
    110  CG        44.4280   -9.7650   14.2100 C.3   155  GLN155      0.0905
    111  CD        43.5940  -10.6250   15.1380 C.2   155  GLN155      0.2608
    112  OE1       42.5150  -10.2440   15.6220 O.2   155  GLN155     -0.2717
    113  NE2       44.1300  -11.7760   15.4720 N.am  155  GLN155     -0.0878
    114  N         42.6770   -6.9750   10.9150 N.am  156  VAL156     -0.1980
    115  CA        42.1180   -6.6370    9.6070 C.3   156  VAL156      0.1595
    116  C         43.0080   -5.6100    8.8970 C.2   156  VAL156      0.2287
    117  O         43.3300   -5.8050    7.7250 O.2   156  VAL156     -0.2864
    118  CB        40.6250   -6.2110    9.7120 C.3   156  VAL156      0.0276
    119  CG1       40.0980   -5.6520    8.3950 C.3   156  VAL156      0.0022
    120  CG2       39.7640   -7.3750   10.1880 C.3   156  VAL156      0.0022
    121  N         35.7620   -0.0970    6.6740 N.3   226  PHE226     -0.1227
    122  CA        35.3880   -1.4290    7.1310 C.3   226  PHE226      0.1736
    123  C         34.9310   -1.2310    8.5710 C.2   226  PHE226      0.2595
    124  O         35.6150   -0.5710    9.3330 O.2   226  PHE226     -0.2718
    125  CB        36.5680   -2.4240    7.0720 C.3   226  PHE226      0.0547
    126  CG        36.7550   -3.1780    5.7730 C.ar  226  PHE226     -0.0202
    127  CD1       36.4910   -2.5690    4.5480 C.ar  226  PHE226     -0.0042
    128  CD2       37.3310   -4.4420    5.7650 C.ar  226  PHE226     -0.0042
    129  CE1       36.7390   -3.2340    3.3400 C.ar  226  PHE226     -0.0003
    130  CE2       37.6270   -5.0920    4.5430 C.ar  226  PHE226     -0.0003
    131  CZ        37.2830   -4.5010    3.3460 C.ar  226  PHE226     -0.0000
    132  N         33.7630   -1.7490    8.9290 N.am  227  VAL227     -0.1966
    133  CA        33.2890   -1.5990   10.2900 C.3   227  VAL227      0.1727
    134  C         32.5310   -2.8500   10.7510 C.2   227  VAL227      0.2616
    135  O         31.5390   -3.2370   10.1350 O.2   227  VAL227     -0.2715
    136  CB        32.4930   -0.2580   10.5150 C.3   227  VAL227      0.0290
    137  CG1       31.3320   -0.0810    9.5230 C.3   227  VAL227      0.0023
    138  CG2       32.0270   -0.1300   11.9690 C.3   227  VAL227      0.0023
    139  N         33.0100   -3.4890   11.8240 N.am  228  ASN228     -0.1972
    140  CA        32.3010   -4.6410   12.3920 C.3   228  ASN228      0.1688
    141  C         31.2780   -4.0530   13.3660 C.2   228  ASN228      0.2292
    142  O         31.5760   -3.8700   14.5450 O.2   228  ASN228     -0.2864
    143  CB        33.2480   -5.5940   13.1100 C.3   228  ASN228      0.1181
    144  CG        32.5850   -6.8810   13.5070 C.2   228  ASN228      0.2629
    145  OD1       31.4120   -7.1280   13.2310 O.2   228  ASN228     -0.2716
    146  ND2       33.3330   -7.7670   14.0970 N.am  228  ASN228     -0.0877
    147  N         28.3590   -5.2420   14.1520 N.3   230  PHE230     -0.1227
    148  CA        27.5050   -6.2960   14.6630 C.3   230  PHE230      0.1736
    149  C         26.9320   -6.0370   16.0590 C.2   230  PHE230      0.2595
    150  O         25.7280   -6.2260   16.2560 O.2   230  PHE230     -0.2718
    151  CB        28.2520   -7.6450   14.6220 C.3   230  PHE230      0.0547
    152  CG        27.2880   -8.7930   14.5520 C.ar  230  PHE230     -0.0202
    153  CD1       26.8200   -9.2510   13.3250 C.ar  230  PHE230     -0.0042
    154  CD2       26.8010   -9.3860   15.7130 C.ar  230  PHE230     -0.0042
    155  CE1       25.8960  -10.2940   13.2590 C.ar  230  PHE230     -0.0003
    156  CE2       25.8840  -10.4400   15.6510 C.ar  230  PHE230     -0.0003
    157  CZ        25.4390  -10.8850   14.4260 C.ar  230  PHE230     -0.0000
    158  N         27.7830   -5.5870   17.0150 N.am  231  ALA231     -0.1980
    159  CA        27.3880   -5.3380   18.4090 C.3   231  ALA231      0.1597
    160  C         27.0550   -3.8770   18.7490 C.2   231  ALA231      0.2287
    161  O         26.8030   -3.5760   19.9060 O.2   231  ALA231     -0.2864
    162  CB        28.4640   -5.8630   19.3440 C.3   231  ALA231      0.0319
    163  N         32.0050   -1.3710    4.2040 N.3   254  VAL254     -0.1231
    164  CA        31.8710   -2.8150    4.3170 C.3   254  VAL254      0.1692
    165  C         31.6340   -3.1130    5.7900 C.2   254  VAL254      0.2593
    166  O         32.4490   -2.7380    6.6480 O.2   254  VAL254     -0.2718
    167  CB        33.0780   -3.5540    3.7100 C.3   254  VAL254      0.0266
    168  CG1       32.9430   -5.0770    3.8850 C.3   254  VAL254      0.0020
    169  CG2       33.2540   -3.1760    2.2290 C.3   254  VAL254      0.0020
    170  N         30.4740   -3.7070    6.0910 N.am  255  SER255     -0.1938
    171  CA        30.0690   -3.9800    7.4590 C.3   255  SER255      0.2055
    172  C         29.4840   -5.3780    7.6810 C.2   255  SER255      0.2643
    173  O         29.2360   -6.1190    6.7340 O.2   255  SER255     -0.2714
    174  CB        29.0920   -2.8940    7.9120 C.3   255  SER255      0.2130
    175  OG        27.8430   -3.0560    7.2760 O.3   255  SER255     -0.2179
    176  N         29.2870   -5.7460    8.9450 N.am  256  SER256     -0.1949
    177  CA        28.7330   -7.0480    9.3280 C.3   256  SER256      0.1924
    178  C         27.1870   -7.0470    9.3730 C.2   256  SER256      0.2314
    179  O         26.5840   -8.0990    9.1850 O.2   256  SER256     -0.2863
    180  CB        29.3550   -7.5450   10.6290 C.3   256  SER256      0.2116
    181  OG        29.4380   -6.4890   11.5620 O.3   256  SER256     -0.2180
    182  N         28.5360  -17.0100    6.0030 N.3   294  VAL294     -0.1231
    183  CA        28.5670  -15.6460    6.5190 C.3   294  VAL294      0.1692
    184  C         28.4660  -14.5910    5.3990 C.2   294  VAL294      0.2593
    185  O         29.0010  -14.7910    4.3070 O.2   294  VAL294     -0.2718
    186  CB        29.8130  -15.4750    7.4110 C.3   294  VAL294      0.0266
    187  CG1       31.0890  -15.6740    6.5970 C.3   294  VAL294      0.0020
    188  CG2       29.8150  -14.1320    8.1390 C.3   294  VAL294      0.0020
    189  N         27.7480  -13.5000    5.6590 N.am  295  SER295     -0.1938
    190  CA        27.5570  -12.4230    4.7020 C.3   295  SER295      0.2055
    191  C         28.2490  -11.1420    5.1570 C.2   295  SER295      0.2643
    192  O         28.5130  -10.9290    6.3460 O.2   295  SER295     -0.2714
    193  CB        26.0720  -12.1400    4.5040 C.3   295  SER295      0.2130
    194  OG        25.4740  -13.1130    3.6710 O.3   295  SER295     -0.2179
    195  N         28.5290  -10.2870    4.2010 N.am  296  TYR296     -0.1973
    196  CA        29.0330   -8.9420    4.4680 C.3   296  TYR296      0.1639
    197  C         28.2320   -7.9860    3.6100 C.2   296  TYR296      0.2290
    198  O         27.6040   -8.4130    2.6270 O.2   296  TYR296     -0.2864
    199  CB        30.5610   -8.7930    4.3440 C.3   296  TYR296      0.0560
    200  CG        31.1240   -9.0540    2.9720 C.ar  296  TYR296     -0.0198
    201  CD1       31.4370  -10.3480    2.5590 C.ar  296  TYR296     -0.0009
    202  CD2       31.4370   -8.0020    2.1150 C.ar  296  TYR296     -0.0009
    203  CE1       32.0220  -10.5900    1.3160 C.ar  296  TYR296      0.0417
    204  CE2       32.0360   -8.2300    0.8740 C.ar  296  TYR296      0.0417
    205  CZ        32.3060   -9.5270    0.4720 C.ar  296  TYR296      0.1957
    206  OH        32.9130   -9.7410   -0.7400 O.3   296  TYR296     -0.2866
@<TRIPOS>BOND
     1   206   205    1
     2    71    70    2
     3    70    69    1
     4   205   204   ar
     5   205   203   ar
     6   204   202   ar
     7    68    69    1
     8    69    72    1
     9   203   201   ar
    10   202   200   ar
    11   169   167    1
    12    72    73    1
    13   201   200   ar
    14   198   197    2
    15    64    63    2
    16   200   199    1
    17    73    74    1
    18   129   131   ar
    19   129   127   ar
    20   131   130   ar
    21    56    55    2
    22    63    62    1
    23   197   196    1
    24   194   193    1
    25   167   168    1
    26   167   164    1
    27   195   196    1
    28   195   191   am
    29   163   164    1
    30   185   184    2
    31   164   165    1
    32   199   196    1
    33    55    54    1
    34    55    61   am
    35   193   190    1
    36   130   128   ar
    37   127   126   ar
    38    59    58    1
    39   190   191    1
    40   190   189    1
    41    54    53    1
    42    54    57    1
    43    62    61    1
    44    62    65    1
    45    74    75    1
    46   191   192    2
    47   184   189   am
    48   184   183    1
    49    66    65    1
    50   128   126   ar
    51    58    57    1
    52    58    60    1
    53   126   125    1
    54   165   170   am
    55   165   166    2
    56   182   183    1
    57    65    67    1
    58   170   171    1
    59   183   186    1
    60   187   186    1
    61   121   122    1
    62   173   172    2
    63   125   122    1
    64   122   123    1
    65   175   174    1
    66   186   188    1
    67   171   172    1
    68   171   174    1
    69    50    49    2
    70   172   176   am
    71   117   116    2
    72   119   118    1
    73    49    48    1
    74   123   132   am
    75   123   124    2
    76   116   115    1
    77   132   133    1
    78   176   177    1
    79    46    45    1
    80   179   178    2
    81    76    77    1
    82   177   178    1
    83   177   180    1
    84   137   136    1
    85   115   118    1
    86   115   114    1
    87    48    47    1
    88    48    51    1
    89   118   120    1
    90    77    80    1
    91    77    78    1
    92   108   107    2
    93   135   134    2
    94    45    44   ar
    95    45    43   ar
    96    44    42   ar
    97    80    81    1
    98   133   136    1
    99   133   134    1
   100   136   138    1
   101   180   181    1
   102   134   139   am
   103    82    81   ar
   104    51    52    1
   105   114   107   am
   106    81    83   ar
   107   107   106    1
   108    38    37    2
   109    43    41   ar
   110    42    40   ar
   111    78    79    2
   112   139   140    1
   113    37    36    1
   114    41    40   ar
   115   140   143    1
   116   140   141    1
   117    40    39    1
   118   106   109    1
   119   106   105    1
   120    25    27   ar
   121    25    23   ar
   122    27    26   ar
   123   109   110    1
   124   143   144    1
   125   145   144    2
   126   155   153   ar
   127   155   157   ar
   128   153   152   ar
   129   141   142    2
   130    36    39    1
   131    36    35    1
   132   144   146   am
   133    23    22   ar
   134    26    24   ar
   135   147   148    1
   136    92    89    1
   137    92    93    1
   138   110   111    1
   139   157   156   ar
   140   152   151    1
   141   152   154   ar
   142   151   148    1
   143   148   149    1
   144    89    88    1
   145    89    90    1
   146    84    85    1
   147    22    24   ar
   148    22    21    1
   149   111   113   am
   150   111   112    2
   151    91    90    2
   152    88    86   am
   153    87    86    2
   154    86    85    1
   155   156   154   ar
   156    90    94   am
   157    21    18    1
   158   149   150    2
   159   149   158   am
   160   101   100    2
   161   100    99    1
   162    18    19    1
   163    18    17    1
   164    31    30    2
   165    20    19    2
   166    94    95    1
   167   158   159    1
   168    13    12    2
   169   104   102    1
   170    17    12   am
   171    12    11    1
   172    30    29    1
   173    98    99    1
   174    98    96   am
   175    95    96    1
   176    99   102    1
   177    29    28    1
   178    29    32    1
   179    96    97    2
   180   159   160    1
   181   159   162    1
   182    14    15    1
   183    14    11    1
   184   102   103    1
   185    28    34    1
   186   160   161    2
   187    32    33    1
   188    15    16    1
   189    11    10    1
   190    33    34    1
   191    16    10    1
   192    10     3   am
   193     4     3    2
   194     3     2    1
   195     8     7   ar
   196     5     2    1
   197     5     6    1
   198     2     1    1
   199     7     6    1
   200     7     9   ar
