@<TRIPOS>MOLECULE
tmp/5dsyD00.pdb
 203 203 0 0 0
SMALL
GASTEIGER

@<TRIPOS>ATOM
      1  N        -25.0140    3.6160    0.3570 N.3    93  TRP93      -0.1227
      2  CA       -24.3740    4.1150    1.5680 C.3    93  TRP93       0.1737
      3  C        -25.3850    4.5230    2.6240 C.2    93  TRP93       0.2595
      4  O        -26.4050    5.1640    2.3330 O.2    93  TRP93      -0.2718
      5  CB       -23.4900    5.3300    1.2620 C.3    93  TRP93       0.0564
      6  CG       -22.3520    5.1180    0.2940 C.ar   93  TRP93       0.0003
      7  CD1      -22.3060    5.5330   -1.0080 C.ar   93  TRP93       0.0946
      8  CD2      -21.0820    4.4940    0.5600 C.ar   93  TRP93       0.0152
      9  NE1      -21.1030    5.1890   -1.5710 N.ar   93  TRP93      -0.2442
     10  CE2      -20.3340    4.5470   -0.6350 C.ar   93  TRP93       0.0810
     11  CE3      -20.5130    3.8810    1.6850 C.ar   93  TRP93       0.0012
     12  CZ2      -19.0420    4.0180   -0.7360 C.ar   93  TRP93       0.0191
     13  CZ3      -19.2300    3.3580    1.5830 C.ar   93  TRP93       0.0001
     14  CH2      -18.5110    3.4280    0.3770 C.ar   93  TRP93       0.0015
     15  N        -25.0580    4.2180    3.8660 N.am   94  HIS94      -0.1961
     16  CA       -25.7980    4.7650    4.9850 C.3    94  HIS94       0.1787
     17  C        -24.8320    5.1360    6.0880 C.2    94  HIS94       0.2621
     18  O        -24.0850    4.2750    6.5740 O.2    94  HIS94      -0.2715
     19  CB       -26.8370    3.7790    5.5240 C.3    94  HIS94       0.0785
     20  CG       -27.6890    4.3610    6.6030 C.ar   94  HIS94       0.0821
     21  ND1      -28.8740    5.0130    6.3410 N.ar   94  HIS94      -0.2267
     22  CD2      -27.4970    4.4500    7.9410 C.ar   94  HIS94       0.1154
     23  CE1      -29.3960    5.4450    7.4750 C.ar   94  HIS94       0.1986
     24  NE2      -28.5800    5.1170    8.4610 N.ar   94  HIS94      -0.2212
     25  N        -24.8540    6.4130    6.4770 N.am   95  GLY95      -0.1940
     26  CA       -24.0620    6.9240    7.5900 C.3    95  GLY95       0.2014
     27  C        -24.9440    7.2950    8.7740 C.2    95  GLY95       0.2639
     28  O        -26.1460    7.5420    8.6240 O.2    95  GLY95      -0.2714
     29  N        -24.3500    7.2990    9.9630 N.am   96  SER96      -0.1949
     30  CA       -25.0590    7.6430   11.1970 C.3    96  SER96       0.1924
     31  C        -24.1030    7.9900   12.3230 C.2    96  SER96       0.2314
     32  O        -22.9220    7.6770   12.2420 O.2    96  SER96      -0.2863
     33  CB       -25.9500    6.4910   11.6450 C.3    96  SER96       0.2116
     34  OG       -26.9770    6.9680   12.4910 O.3    96  SER96      -0.2180
     35  N        -25.3280    5.1910   17.2970 N.3   100  ASN100     -0.1240
     36  CA       -26.3830    4.4040   16.6890 C.3   100  ASN100      0.1653
     37  C        -25.8990    3.0450   16.1960 C.2   100  ASN100      0.2266
     38  O        -26.6940    2.1760   15.8580 O.2   100  ASN100     -0.2867
     39  CB       -26.9830    5.1790   15.5240 C.3   100  ASN100      0.1155
     40  CG       -27.7700    6.3770   15.9730 C.2   100  ASN100      0.2627
     41  OD1      -28.1890    6.4600   17.1310 O.2   100  ASN100     -0.2716
     42  ND2      -27.9690    7.3280   15.0650 N.am  100  ASN100     -0.0877
     43  N        -27.1000    0.0110   18.0820 N.3   103  GLY103     -0.1210
     44  CA       -28.4890   -0.1760   17.7330 C.3   103  GLY103      0.1956
     45  C        -28.6640   -0.7610   16.3470 C.2   103  GLY103      0.2611
     46  O        -29.4170   -1.7150   16.1670 O.2   103  GLY103     -0.2717
     47  N        -27.9250   -0.2260   15.3770 N.am  104  ILE104     -0.1979
     48  CA       -28.0990   -0.6110   13.9820 C.3   104  ILE104      0.1595
     49  C        -27.6690   -2.0520   13.7440 C.2   104  ILE104      0.2287
     50  O        -28.4050   -2.8380   13.1450 O.2   104  ILE104     -0.2864
     51  CB       -27.3410    0.3570   13.0510 C.3   104  ILE104      0.0276
     52  CG1      -28.0940    1.7000   12.9920 C.3   104  ILE104      0.0022
     53  CG2      -27.2580   -0.2020   11.6610 C.3   104  ILE104      0.0022
     54  CD1      -27.2640    2.8910   12.4980 C.3   104  ILE104      0.0001
     55  N        -30.2730   -4.6550   15.6030 N.3   107  HIS107     -0.1226
     56  CA       -31.6400   -4.8660   15.1640 C.3   107  HIS107      0.1752
     57  C        -31.8310   -4.6020   13.6760 C.2   107  HIS107      0.2597
     58  O        -32.9460   -4.6770   13.1820 O.2   107  HIS107     -0.2718
     59  CB       -32.5880   -3.9810   15.9780 C.3   107  HIS107      0.0759
     60  CG       -32.4160   -4.1180   17.4610 C.ar  107  HIS107      0.0818
     61  ND1      -32.2280   -3.0320   18.2920 N.ar  107  HIS107     -0.2268
     62  CD2      -32.3660   -5.2130   18.2580 C.ar  107  HIS107      0.1154
     63  CE1      -32.0970   -3.4480   19.5400 C.ar  107  HIS107      0.1986
     64  NE2      -32.1670   -4.7680   19.5440 N.ar  107  HIS107     -0.2212
     65  N        -30.7470   -4.2930   12.9650 N.am  108  GLY108     -0.1942
     66  CA       -30.8370   -3.9090   11.5640 C.3   108  GLY108      0.2014
     67  C        -31.3740   -2.5020   11.4160 C.2   108  GLY108      0.2639
     68  O        -31.7370   -1.8790   12.4000 O.2   108  GLY108     -0.2714
     69  N        -31.4240   -1.9840   10.1970 N.am  109  LEU109     -0.1963
     70  CA       -31.9270   -0.6320   10.0150 C.3   109  LEU109      0.1728
     71  C        -33.4380   -0.5690   10.1810 C.2   109  LEU109      0.2616
     72  O        -34.1770   -1.3460    9.5770 O.2   109  LEU109     -0.2715
     73  CB       -31.5620   -0.0750    8.6420 C.3   109  LEU109      0.0311
     74  CG       -30.1060    0.3110    8.4030 C.3   109  LEU109      0.0022
     75  CD1      -29.9000    0.6580    6.9250 C.3   109  LEU109      0.0001
     76  CD2      -29.6380    1.4170    9.3610 C.3   109  LEU109      0.0001
     77  N        -33.8790    0.3950   10.9770 N.am  110  ARG110     -0.1963
     78  CA       -35.2860    0.6580   11.2260 C.3   110  ARG110      0.1729
     79  C        -35.7290    1.8640   10.4200 C.2   110  ARG110      0.2616
     80  O        -34.9030    2.7140   10.0760 O.2   110  ARG110     -0.2715
     81  CB       -35.5040    0.9550   12.6970 C.3   110  ARG110      0.0348
     82  CG       -35.0760   -0.1150   13.6810 C.3   110  ARG110      0.0492
     83  CD       -35.4740    0.4390   15.0320 C.3   110  ARG110      0.2205
     84  NE       -35.5830   -0.5050   16.1320 N.pl3 110  ARG110     -0.0865
     85  CZ       -35.3370   -0.1560   17.3910 C.cat 110  ARG110      0.5346
     86  NH1      -34.9510    1.0940   17.6620 N.pl3 110  ARG110      0.1354
     87  NH2      -35.4540   -1.0490   18.3730 N.pl3 110  ARG110      0.1354
     88  N        -37.0200    1.9700   10.1240 N.am  111  ILE111     -0.1963
     89  CA       -37.4840    3.1730    9.4650 C.3   111  ILE111      0.1727
     90  C        -37.4660    4.3500   10.4370 C.2   111  ILE111      0.2616
     91  O        -37.2670    4.1920   11.6400 O.2   111  ILE111     -0.2715
     92  CB       -38.8780    3.0200    8.8840 C.3   111  ILE111      0.0290
     93  CG1      -39.9180    2.8870    9.9940 C.3   111  ILE111      0.0022
     94  CG2      -38.8910    1.8680    7.9000 C.3   111  ILE111      0.0023
     95  CD1      -41.2940    3.1990    9.5350 C.3   111  ILE111      0.0001
     96  N        -37.6310    5.5420    9.8840 N.am  112  ALA112     -0.1964
     97  CA       -37.6330    6.7730   10.6610 C.3   112  ALA112      0.1713
     98  C        -38.7050    6.7920   11.7550 C.2   112  ALA112      0.2458
     99  O        -39.8320    6.3460   11.5440 O.2   112  ALA112     -0.2730
    100  CB       -37.8110    7.9590    9.7390 C.3   112  ALA112      0.0333
    101  N        -38.3320    7.2600   12.9440 N.am  113  PRO113     -0.2727
    102  CA       -39.2240    7.3510   14.0970 C.3   113  PRO113      0.1402
    103  C        -40.5510    8.0710   13.7990 C.2   113  PRO113      0.2269
    104  O        -40.5790    9.0710   13.0860 O.2   113  PRO113     -0.2865
    105  CB       -38.4030    8.1550   15.0980 C.3   113  PRO113      0.0296
    106  CG       -37.0150    7.8800   14.7250 C.3   113  PRO113      0.0237
    107  CD       -36.9820    7.7410   13.2540 C.3   113  PRO113      0.0939
    108  N        -40.1030   14.5160    7.7110 N.3   121  TYR121     -0.1227
    109  CA       -39.0070   13.8780    6.9800 C.3   121  TYR121      0.1736
    110  C        -39.0840   14.2440    5.5200 C.2   121  TYR121      0.2595
    111  O        -40.1530   14.5540    5.0050 O.2   121  TYR121     -0.2718
    112  CB       -39.0050   12.3650    7.1210 C.3   121  TYR121      0.0548
    113  CG       -38.8740   11.9030    8.5370 C.ar  121  TYR121     -0.0200
    114  CD1      -37.7130   12.1460    9.2500 C.ar  121  TYR121     -0.0009
    115  CD2      -39.8850   11.1790    9.1490 C.ar  121  TYR121     -0.0009
    116  CE1      -37.5730   11.7160   10.5400 C.ar  121  TYR121      0.0417
    117  CE2      -39.7520   10.7370   10.4490 C.ar  121  TYR121      0.0417
    118  CZ       -38.5910   11.0110   11.1400 C.ar  121  TYR121      0.1957
    119  OH       -38.4410   10.5920   12.4370 O.3   121  TYR121     -0.2866
    120  N        -37.9420   14.2220    4.8550 N.am  122  MET122     -0.1979
    121  CA       -37.8970   14.6880    3.4920 C.3   122  MET122      0.1605
    122  C        -38.7280   13.8260    2.5380 C.2   122  MET122      0.2287
    123  O        -39.3320   14.3480    1.5980 O.2   122  MET122     -0.2864
    124  CB       -36.4560   14.7810    3.0060 C.3   122  MET122      0.0413
    125  CG       -36.3510   15.4220    1.6290 C.3   122  MET122      0.0598
    126  SD       -34.6930   15.9980    1.2700 S.3   122  MET122     -0.1393
    127  CE       -34.3360   16.9030    2.7740 C.3   122  MET122      0.0692
    128  N        -39.2080    6.3850    6.1800 N.3   126  GLY126     -0.1210
    129  CA       -38.5650    5.2190    5.5910 C.3   126  GLY126      0.1956
    130  C        -37.1090    5.0610    6.0230 C.2   126  GLY126      0.2612
    131  O        -36.6810    5.6150    7.0360 O.2   126  GLY126     -0.2717
    132  N        -36.3530    4.2620    5.2820 N.am  127  ILE127     -0.1965
    133  CA       -34.9110    4.1810    5.4750 C.3   127  ILE127      0.1727
    134  C        -34.1600    4.8260    4.3010 C.2   127  ILE127      0.2616
    135  O        -34.3720    4.4590    3.1430 O.2   127  ILE127     -0.2715
    136  CB       -34.4860    2.7450    5.6480 C.3   127  ILE127      0.0290
    137  CG1      -35.2380    2.1700    6.8460 C.3   127  ILE127      0.0022
    138  CG2      -33.0110    2.6670    5.9080 C.3   127  ILE127      0.0023
    139  CD1      -35.1240    0.6850    6.9790 C.3   127  ILE127      0.0001
    140  N        -33.2610    5.7640    4.6080 N.am  128  TYR128     -0.1960
    141  CA       -32.6500    6.6140    3.5750 C.3   128  TYR128      0.1771
    142  C        -31.2690    6.1610    3.2270 C.2   128  TYR128      0.2620
    143  O        -30.5110    5.7610    4.1030 O.2   128  TYR128     -0.2715
    144  CB       -32.5760    8.0860    4.0240 C.3   128  TYR128      0.0574
    145  CG       -33.9060    8.7970    4.1420 C.ar  128  TYR128     -0.0198
    146  CD1      -34.8330    8.4390    5.1130 C.ar  128  TYR128     -0.0009
    147  CD2      -34.2270    9.8260    3.2800 C.ar  128  TYR128     -0.0009
    148  CE1      -36.0530    9.0860    5.2010 C.ar  128  TYR128      0.0417
    149  CE2      -35.4280   10.4810    3.3690 C.ar  128  TYR128      0.0417
    150  CZ       -36.3460   10.1110    4.3260 C.ar  128  TYR128      0.1957
    151  OH       -37.5510   10.7790    4.3950 O.3   128  TYR128     -0.2866
    152  N        -30.9440    6.2260    1.9420 N.am  129  PHE129     -0.1960
    153  CA       -29.6150    5.8650    1.4680 C.3   129  PHE129      0.1771
    154  C        -29.0690    6.8860    0.4750 C.2   129  PHE129      0.2619
    155  O        -29.8210    7.6430   -0.1420 O.2   129  PHE129     -0.2715
    156  CB       -29.6270    4.4850    0.8220 C.3   129  PHE129      0.0574
    157  CG       -29.9870    3.3670    1.7640 C.ar  129  PHE129     -0.0200
    158  CD1      -28.9830    2.6630    2.4340 C.ar  129  PHE129     -0.0042
    159  CD2      -31.3150    3.0070    1.9830 C.ar  129  PHE129     -0.0042
    160  CE1      -29.2880    1.6320    3.3000 C.ar  129  PHE129     -0.0003
    161  CE2      -31.6250    1.9710    2.8610 C.ar  129  PHE129     -0.0003
    162  CZ       -30.6110    1.2880    3.5160 C.ar  129  PHE129     -0.0000
    163  N        -27.7490    6.8700    0.2990 N.am  130  ALA130     -0.1977
    164  CA       -27.0880    7.7170   -0.6910 C.3   130  ALA130      0.1597
    165  C        -26.2460    6.8610   -1.6140 C.2   130  ALA130      0.2287
    166  O        -25.8500    5.7550   -1.2410 O.2   130  ALA130     -0.2864
    167  CB       -26.2120    8.7420    0.0010 C.3   130  ALA130      0.0319
    168  N        -22.0610   12.2430    1.0100 N.3   135  LYS135     -0.1231
    169  CA       -23.3700   12.6770    1.4580 C.3   135  LYS135      0.1693
    170  C        -23.7300   11.9380    2.7460 C.2   135  LYS135      0.2592
    171  O        -24.2260   12.5400    3.7000 O.2   135  LYS135     -0.2718
    172  CB       -24.4430   12.4550    0.3990 C.3   135  LYS135      0.0285
    173  CG       -25.7890   12.9740    0.8410 C.3   135  LYS135      0.0035
    174  CD       -26.8130   12.8660   -0.2330 C.3   135  LYS135      0.0206
    175  CE       -28.1640   13.2900    0.3040 C.3   135  LYS135      0.1093
    176  NZ       -29.2170   13.2850   -0.7390 N.3   135  LYS135     -0.1314
    177  N        -23.4990   10.6320    2.7500 N.am  136  SER136     -0.1952
    178  CA       -23.7100    9.7980    3.9250 C.3   136  SER136      0.1924
    179  C        -22.7630   10.1200    5.0960 C.2   136  SER136      0.2314
    180  O        -23.1660   10.1250    6.2510 O.2   136  SER136     -0.2863
    181  CB       -23.5610    8.3480    3.5350 C.3   136  SER136      0.2116
    182  OG       -24.7230    7.9610    2.8350 O.3   136  SER136     -0.2180
    183  N        -23.5200   12.5300    7.6390 N.3   139  TYR139     -0.1241
    184  CA       -24.4090   12.0740    8.7140 C.3   139  TYR139      0.1605
    185  C        -23.6630   11.3380    9.8090 C.2   139  TYR139      0.2264
    186  O        -24.2790   10.7730   10.7050 O.2   139  TYR139     -0.2867
    187  CB       -25.5220   11.1660    8.1940 C.3   139  TYR139      0.0534
    188  CG       -26.6080   11.9190    7.5130 C.ar  139  TYR139     -0.0201
    189  CD1      -27.5810   12.5570    8.2550 C.ar  139  TYR139     -0.0009
    190  CD2      -26.6930   11.9630    6.1300 C.ar  139  TYR139     -0.0009
    191  CE1      -28.6050   13.2620    7.6530 C.ar  139  TYR139      0.0417
    192  CE2      -27.7290   12.6720    5.4970 C.ar  139  TYR139      0.0417
    193  CZ       -28.6770   13.3140    6.2770 C.ar  139  TYR139      0.1957
    194  OH       -29.6960   14.0240    5.7020 O.3   139  TYR139     -0.2866
    195  N        -31.0170   10.7360   -3.3000 N.3   224  GLU224     -0.1245
    196  CA       -31.2230    9.8670   -2.1320 C.3   224  GLU224      0.1567
    197  C        -32.3200    8.8620   -2.4230 C.2   224  GLU224      0.2260
    198  O        -33.2380    9.1120   -3.2120 O.2   224  GLU224     -0.2867
    199  CB       -31.5200   10.6330   -0.8250 C.3   224  GLU224      0.0388
    200  CG       -32.4820   11.8000   -0.8820 C.3   224  GLU224      0.1160
    201  CD       -32.3560   12.7330    0.3400 C.2   224  GLU224      0.3649
    202  OE1      -33.1610   12.5850    1.2850 O.co2 224  GLU224     -0.2457
    203  OE2      -31.4760   13.6330    0.3440 O.co2 224  GLU224     -0.2457
@<TRIPOS>BOND
     1   195   196    1
     2   198   197    2
     3   197   196    1
     4   196   199    1
     5   165   166    2
     6   165   164    1
     7     9     7   ar
     8     9    10   ar
     9     7     6   ar
    10   200   199    1
    11   200   201    1
    12   176   175    1
    13    12    10   ar
    14    12    14   ar
    15   164   167    1
    16   164   163    1
    17    10     8   ar
    18   174   175    1
    19   174   173    1
    20   155   154    2
    21     6     8   ar
    22     6     5    1
    23   163   154   am
    24   201   203   ar
    25   201   202   ar
    26     1     2    1
    27    14    13   ar
    28   172   173    1
    29   172   169    1
    30   154   153    1
    31     8    11   ar
    32   156   153    1
    33   156   157    1
    34   168   169    1
    35     5     2    1
    36   126   125    1
    37   126   127    1
    38   169   170    1
    39   153   152    1
    40     2     3    1
    41    13    11   ar
    42   123   122    2
    43   125   124    1
    44   157   159   ar
    45   157   158   ar
    46   152   142   am
    47   159   161   ar
    48     4     3    2
    49   158   160   ar
    50   122   121    1
    51     3    15   am
    52   170   177   am
    53   170   171    2
    54   177   178    1
    55   182   181    1
    56   161   162   ar
    57   124   121    1
    58   135   134    2
    59   142   141    1
    60   142   143    2
    61   147   149   ar
    62   147   145   ar
    63   160   162   ar
    64   149   150   ar
    65   121   120    1
    66   181   178    1
    67   141   144    1
    68   141   140    1
    69    15    16    1
    70   178   179    1
    71   144   145    1
    72   145   146   ar
    73   134   140   am
    74   134   133    1
    75   150   151    1
    76   150   148   ar
    77   120   110   am
    78    16    19    1
    79    16    17    1
    80   111   110    2
    81   179   180    2
    82   146   148   ar
    83   132   133    1
    84   132   130   am
    85   133   136    1
    86   192   190   ar
    87   192   193   ar
    88   110   109    1
    89    19    20    1
    90   129   130    1
    91   129   128    1
    92   136   138    1
    93   136   137    1
    94   194   193    1
    95   130   131    2
    96    17    25   am
    97    17    18    2
    98   190   188   ar
    99   193   191   ar
   100    21    20   ar
   101    21    23   ar
   102    25    26    1
   103    20    22   ar
   104   137   139    1
   105    75    74    1
   106   109   112    1
   107   109   108    1
   108   112   113    1
   109    23    24   ar
   110   188   187    1
   111   188   189   ar
   112    26    27    1
   113   183   184    1
   114   191   189   ar
   115    94    92    1
   116    22    24   ar
   117   187   184    1
   118    74    73    1
   119    74    76    1
   120   113   115   ar
   121   113   114   ar
   122    28    27    2
   123    73    70    1
   124   184   185    1
   125    27    29   am
   126    92    89    1
   127    92    93    1
   128   115   117   ar
   129   114   116   ar
   130    89    88    1
   131    89    90    1
   132    95    93    1
   133    72    71    2
   134   100    97    1
   135   185   186    2
   136    96    90   am
   137    96    97    1
   138    29    30    1
   139    70    71    1
   140    70    69    1
   141    80    79    2
   142    88    79   am
   143    71    77   am
   144    69    67   am
   145    79    78    1
   146    90    91    2
   147   117   118   ar
   148   116   118   ar
   149    97    98    1
   150    77    78    1
   151   118   119    1
   152    30    33    1
   153    30    31    1
   154    78    81    1
   155    67    66    1
   156    67    68    2
   157    99    98    2
   158    66    65    1
   159    33    34    1
   160    53    51    1
   161    98   101   am
   162    32    31    2
   163    54    52    1
   164    81    82    1
   165   101   107    1
   166   101   102    1
   167    65    57   am
   168    52    51    1
   169    51    48    1
   170   104   103    2
   171    50    49    2
   172    58    57    2
   173   107   106    1
   174    57    56    1
   175    82    83    1
   176    49    48    1
   177   103   102    1
   178    48    47    1
   179   102   105    1
   180   106   105    1
   181    83    84    1
   182    42    40   am
   183    56    55    1
   184    56    59    1
   185    47    45   am
   186    39    40    1
   187    39    36    1
   188    38    37    2
   189    40    41    2
   190    59    60    1
   191    84    85    2
   192    46    45    2
   193    37    36    1
   194    45    44    1
   195    36    35    1
   196    85    86    1
   197    85    87    1
   198    60    62   ar
   199    60    61   ar
   200    44    43    1
   201    62    64   ar
   202    61    63   ar
   203    63    64   ar
