@<TRIPOS>MOLECULE
tmp/5dt0A00.pdb
 153 144 0 0 0
SMALL
GASTEIGER

@<TRIPOS>ATOM
      1  N          5.5970  -27.6030    4.5340 N.3    11  ARG11      -0.1245
      2  CA         4.7300  -27.8150    3.3720 C.3    11  ARG11       0.1563
      3  C          3.2900  -27.3320    3.5370 C.2    11  ARG11       0.2260
      4  O          2.6620  -27.6860    4.5400 O.2    11  ARG11      -0.2867
      5  CB         4.6930  -29.3160    3.0080 C.3    11  ARG11       0.0307
      6  CG         3.9160  -29.6020    1.7260 C.3    11  ARG11       0.0489
      7  CD         3.9450  -31.0300    1.2720 C.3    11  ARG11       0.2205
      8  NE         3.3910  -31.9320    2.2740 N.pl3  11  ARG11      -0.0865
      9  CZ         2.1880  -32.4700    2.2000 C.cat  11  ARG11       0.5346
     10  NH1        1.3740  -32.1550    1.2030 N.pl3  11  ARG11       0.1354
     11  NH2        1.7810  -33.3280    3.1270 N.pl3  11  ARG11       0.1354
     12  N         -0.6330  -27.6750    3.3350 N.3    13  LEU13      -0.1231
     13  CA        -1.5630  -28.8020    3.4420 C.3    13  LEU13       0.1693
     14  C         -2.9080  -28.5030    2.7650 C.2    13  LEU13       0.2592
     15  O         -3.6180  -29.4260    2.3900 O.2    13  LEU13      -0.2718
     16  CB        -1.7710  -29.1840    4.9350 C.3    13  LEU13       0.0284
     17  CG        -0.4980  -29.6000    5.7610 C.3    13  LEU13       0.0019
     18  CD1       -0.8410  -29.8350    7.2280 C.3    13  LEU13       0.0001
     19  CD2        0.1710  -30.9020    5.1990 C.3    13  LEU13       0.0001
     20  N         -3.2330  -27.2160    2.6160 N.am   14  GLY14      -0.1957
     21  CA        -4.4680  -26.7410    1.9900 C.3    14  GLY14       0.1869
     22  C         -4.4550  -25.2450    1.7600 C.2    14  GLY14       0.2309
     23  O         -3.7650  -24.5220    2.4820 O.2    14  GLY14      -0.2863
     24  N         -3.3370  -23.6250    5.2140 N.3    21  VAL21      -0.1245
     25  CA        -2.9750  -24.5050    6.3250 C.3    21  VAL21       0.1561
     26  C         -1.5800  -25.0140    5.9720 C.2    21  VAL21       0.2260
     27  O         -1.3630  -25.4760    4.8620 O.2    21  VAL21      -0.2867
     28  CB        -3.9670  -25.6730    6.6110 C.3    21  VAL21       0.0252
     29  CG1       -3.5170  -26.5110    7.8210 C.3    21  VAL21       0.0019
     30  CG2       -5.3950  -25.1640    6.8120 C.3    21  VAL21       0.0019
     31  N         -0.4420  -28.6090   12.5910 N.3    34  ALA34      -0.1245
     32  CA        -0.8950  -27.9070   11.3890 C.3    34  ALA34       0.1562
     33  C         -1.3140  -26.5060   11.8180 C.2    34  ALA34       0.2260
     34  O         -2.0750  -26.3360   12.7710 O.2    34  ALA34      -0.2867
     35  CB        -2.0630  -28.6350   10.7470 C.3    34  ALA34       0.0290
     36  N         -3.2020  -23.1680   10.6450 N.3    36  LYS36      -0.1245
     37  CA        -4.1630  -22.5140    9.7490 C.3    36  LYS36       0.1561
     38  C         -3.9110  -21.0210    9.9150 C.2    36  LYS36       0.2260
     39  O         -3.9840  -20.5090   11.0270 O.2    36  LYS36      -0.2867
     40  CB        -5.5920  -22.8850   10.1260 C.3    36  LYS36       0.0271
     41  CG        -6.6540  -22.4640    9.1190 C.3    36  LYS36       0.0035
     42  CD        -8.0590  -22.6410    9.7180 C.3    36  LYS36       0.0206
     43  CE        -8.5480  -24.0500    9.6850 C.3    36  LYS36       0.1093
     44  NZ        -9.9280  -24.1380   10.1790 N.3    36  LYS36      -0.1314
     45  N        -11.0470  -33.4690   15.2980 N.3    68  LEU68      -0.1245
     46  CA        -9.7790  -32.7810   15.2340 C.3    68  LEU68       0.1561
     47  C         -9.6010  -31.7710   16.3780 C.2    68  LEU68       0.2260
     48  O        -10.4260  -30.8700   16.5580 O.2    68  LEU68      -0.2867
     49  CB        -9.6350  -32.0980   13.8760 C.3    68  LEU68       0.0270
     50  CG        -8.2070  -31.6500   13.5090 C.3    68  LEU68       0.0019
     51  CD1       -7.3640  -32.8550   13.0230 C.3    68  LEU68       0.0001
     52  CD2       -8.2750  -30.5640   12.4570 C.3    68  LEU68       0.0001
     53  N         -3.6470  -26.4760   15.0650 N.3    84  LEU84      -0.1231
     54  CA        -4.4690  -27.6700   14.9160 C.3    84  LEU84       0.1693
     55  C         -3.6690  -28.9340   15.0300 C.2    84  LEU84       0.2592
     56  O         -2.4710  -28.9500   14.7670 O.2    84  LEU84      -0.2718
     57  CB        -5.1920  -27.6620   13.5220 C.3    84  LEU84       0.0284
     58  CG        -6.0110  -26.4100   13.1130 C.3    84  LEU84       0.0019
     59  CD1       -6.3820  -26.4740   11.6710 C.3    84  LEU84       0.0001
     60  CD2       -7.3120  -26.3060   13.8860 C.3    84  LEU84       0.0001
     61  N         -4.3660  -30.0280   15.3340 N.am   85  GLU85      -0.1966
     62  CA        -3.8100  -31.3660   15.3160 C.3    85  GLU85       0.1733
     63  C         -3.5380  -31.6380   13.8230 C.2    85  GLU85       0.2616
     64  O         -4.3590  -31.2750   12.9690 O.2    85  GLU85      -0.2715
     65  CB        -4.8640  -32.3340   15.8560 C.3    85  GLU85       0.0429
     66  CG        -4.5620  -33.8050   15.6380 C.3    85  GLU85       0.1163
     67  CD        -5.6830  -34.7530   16.0310 C.2    85  GLU85       0.3649
     68  OE1       -6.6980  -34.3110   16.6170 O.co2  85  GLU85      -0.2457
     69  OE2       -5.5270  -35.9620   15.7830 O.co2  85  GLU85      -0.2457
     70  N         -2.3760  -32.2340   13.5150 N.am   86  TYR86      -0.1960
     71  CA        -2.0620  -32.5660   12.1450 C.3    86  TYR86       0.1771
     72  C         -2.5700  -33.9860   11.9020 C.2    86  TYR86       0.2619
     73  O         -2.2250  -34.8980   12.6440 O.2    86  TYR86      -0.2715
     74  CB        -0.5500  -32.4480   11.8940 C.3    86  TYR86       0.0574
     75  CG        -0.0110  -33.2540   10.7270 C.ar   86  TYR86      -0.0198
     76  CD1       -0.3940  -32.9710    9.4150 C.ar   86  TYR86      -0.0009
     77  CD2        0.9640  -34.2260   10.9230 C.ar   86  TYR86      -0.0009
     78  CE1        0.1350  -33.6840    8.3350 C.ar   86  TYR86       0.0417
     79  CE2        1.5170  -34.9210    9.8520 C.ar   86  TYR86       0.0417
     80  CZ         1.0940  -34.6470    8.5620 C.ar   86  TYR86       0.1957
     81  OH         1.6190  -35.3300    7.5130 O.3    86  TYR86      -0.2866
     82  N         -3.4310  -34.1430   10.8980 N.am   87  ALA87      -0.1964
     83  CA        -3.9830  -35.4380   10.4720 C.3    87  ALA87       0.1713
     84  C         -3.0440  -35.9350    9.3580 C.2    87  ALA87       0.2458
     85  O         -3.0130  -35.3000    8.3160 O.2    87  ALA87      -0.2730
     86  CB        -5.4030  -35.2360    9.9540 C.3    87  ALA87       0.0333
     87  N         -2.1900  -36.9770    9.5630 N.am   88  PRO88      -0.2716
     88  CA        -1.1860  -37.3150    8.5220 C.3    88  PRO88       0.1536
     89  C         -1.6740  -37.8970    7.2040 C.2    88  PRO88       0.2598
     90  O         -0.9520  -37.7970    6.1980 O.2    88  PRO88      -0.2715
     91  CB        -0.2400  -38.3240    9.2090 C.3    88  PRO88       0.0310
     92  CG        -0.6270  -38.3190   10.6650 C.3    88  PRO88       0.0237
     93  CD        -2.0380  -37.8260   10.7630 C.3    88  PRO88       0.0939
     94  N         -2.8360  -38.5470    7.1940 N.am   89  LEU89      -0.1964
     95  CA        -3.2730  -39.2310    5.9790 C.3    89  LEU89       0.1728
     96  C         -4.1820  -38.3760    5.0700 C.2    89  LEU89       0.2617
     97  O         -4.7270  -38.8800    4.1040 O.2    89  LEU89      -0.2715
     98  CB        -3.8830  -40.5970    6.3160 C.3    89  LEU89       0.0311
     99  CG        -2.9240  -41.6560    6.9270 C.3    89  LEU89       0.0022
    100  CD1       -3.5470  -43.0410    6.8990 C.3    89  LEU89       0.0001
    101  CD2       -1.6020  -41.6960    6.2090 C.3    89  LEU89       0.0001
    102  N         -4.2720  -37.0760    5.3540 N.am   90  GLY90      -0.1940
    103  CA        -4.9850  -36.1060    4.5330 C.3    90  GLY90       0.2014
    104  C         -6.4850  -36.1220    4.6040 C.2    90  GLY90       0.2639
    105  O         -7.0350  -36.6310    5.5650 O.2    90  GLY90      -0.2714
    106  N         -7.1450  -35.5220    3.5940 N.am   91  THR91      -0.1950
    107  CA        -8.5980  -35.4340    3.5330 C.3    91  THR91       0.1897
    108  C         -9.2170  -36.6750    2.8900 C.2    91  THR91       0.2313
    109  O         -8.6330  -37.2860    1.9960 O.2    91  THR91      -0.2863
    110  CB        -9.0710  -34.1740    2.7760 C.3    91  THR91       0.1794
    111  OG1       -8.7840  -34.3140    1.3810 O.3    91  THR91      -0.2208
    112  CG2       -8.5220  -32.8820    3.3390 C.3    91  THR91       0.0378
    113  N         -9.5880  -36.0550   -0.8320 N.3    94  ARG94      -0.1245
    114  CA        -8.4580  -36.5110   -1.6200 C.3    94  ARG94       0.1563
    115  C         -8.4440  -38.0300   -1.7860 C.2    94  ARG94       0.2260
    116  O         -8.1100  -38.5010   -2.8660 O.2    94  ARG94      -0.2867
    117  CB        -7.1120  -35.9980   -1.0640 C.3    94  ARG94       0.0307
    118  CG        -5.9900  -36.0240   -2.1290 C.3    94  ARG94       0.0489
    119  CD        -4.6030  -36.1260   -1.5490 C.3    94  ARG94       0.2205
    120  NE        -3.5880  -36.3920   -2.5770 N.pl3  94  ARG94      -0.0865
    121  CZ        -2.6390  -35.5370   -2.9520 C.cat  94  ARG94       0.5346
    122  NH1       -2.5390  -34.3470   -2.3710 N.pl3  94  ARG94       0.1354
    123  NH2       -1.7650  -35.8760   -3.8870 N.pl3  94  ARG94       0.1354
    124  N        -14.2100  -32.6480    2.3210 N.3   134  GLU134     -0.1245
    125  CA       -13.1590  -31.6160    2.4720 C.3   134  GLU134      0.1567
    126  C        -12.9020  -31.2620    3.9490 C.2   134  GLU134      0.2260
    127  O        -11.8520  -30.7020    4.2530 O.2   134  GLU134     -0.2867
    128  CB       -13.5640  -30.3030    1.7700 C.3   134  GLU134      0.0388
    129  CG       -13.9030  -30.4230    0.2990 C.3   134  GLU134      0.1160
    130  CD       -15.3870  -30.6100    0.0280 C.2   134  GLU134      0.3649
    131  OE1      -16.0600  -29.6070   -0.2980 O.co2 134  GLU134     -0.2457
    132  OE2      -15.8770  -31.7550    0.1360 O.co2 134  GLU134     -0.2457
    133  N        -10.7980  -35.4470    7.9180 N.3   137  LEU137     -0.1245
    134  CA        -9.3850  -35.7820    7.8300 C.3   137  LEU137      0.1561
    135  C         -9.1260  -37.1940    8.2870 C.2   137  LEU137      0.2260
    136  O        -10.0040  -37.8150    8.8760 O.2   137  LEU137     -0.2867
    137  CB        -8.5670  -34.7560    8.6150 C.3   137  LEU137      0.0270
    138  CG        -8.5370  -33.3490    8.0320 C.3   137  LEU137      0.0019
    139  CD1       -8.0640  -32.3580    9.0720 C.3   137  LEU137      0.0001
    140  CD2       -7.6410  -33.2750    6.8190 C.3   137  LEU137      0.0001
    141  N        -13.1490  -31.9590   11.0500 N.3   147  ALA147     -0.1231
    142  CA       -12.2400  -30.8060   11.1640 C.3   147  ALA147      0.1694
    143  C        -12.8030  -29.3870   11.2440 C.2   147  ALA147      0.2592
    144  O        -12.1720  -28.5810   11.9320 O.2   147  ALA147     -0.2718
    145  CB       -11.2500  -30.8340   10.0190 C.3   147  ALA147      0.0304
    146  N        -13.7830  -28.9800   10.4650 N.am  148  ASP148     -0.1974
    147  CA       -14.0780  -27.5080   10.4670 C.3   148  ASP148      0.1709
    148  C        -15.4130  -27.1100   11.1310 C.2   148  ASP148      0.2293
    149  O        -16.4700  -27.1220   10.4990 O.2   148  ASP148     -0.2864
    150  CB       -14.0010  -26.9290    9.0410 C.3   148  ASP148      0.1436
    151  CG       -12.5960  -26.7130    8.4730 C.2   148  ASP148      0.3671
    152  OD1      -11.7290  -26.1910    9.2050 O.co2 148  ASP148     -0.2456
    153  OD2      -12.4050  -26.9390    7.2580 O.co2 148  ASP148     -0.2456
@<TRIPOS>BOND
     1   123   121    1
     2   121   120    2
     3   121   122    1
     4   116   115    2
     5   120   119    1
     6   118   119    1
     7   118   117    1
     8   115   114    1
     9   114   117    1
    10   114   113    1
    11   131   130   ar
    12   130   132   ar
    13   130   129    1
    14   129   128    1
    15    10     9    1
    16     7     6    1
    17     7     8    1
    18   111   110    1
    19     6     5    1
    20    22    21    1
    21    22    23    2
    22   128   125    1
    23    21    20    1
    24   109   108    2
    25     9     8    2
    26     9    11    1
    27   124   125    1
    28    15    14    2
    29   125   126    1
    30    20    14   am
    31    14    13    1
    32   110   112    1
    33   110   107    1
    34   108   107    1
    35     5     2    1
    36    12    13    1
    37     2     3    1
    38     2     1    1
    39    13    16    1
    40   107   106    1
    41     3     4    2
    42   106   104   am
    43   126   127    2
    44    97    96    2
    45   103   104    1
    46   103   102    1
    47   104   105    2
    48    27    26    2
    49    16    17    1
    50    96   102   am
    51    96    95    1
    52    19    17    1
    53    24    25    1
    54    17    18    1
    55    26    25    1
    56    95    98    1
    57    95    94    1
    58    90    89    2
    59   101    99    1
    60    98    99    1
    61    25    28    1
    62    28    30    1
    63    28    29    1
    64   140   138    1
    65   100    99    1
    66    94    89   am
    67    89    88    1
    68   153   151   ar
    69    81    80    1
    70   134   133    1
    71   134   135    1
    72   134   137    1
    73   138   137    1
    74   138   139    1
    75   135   136    2
    76    85    84    2
    77    78    80   ar
    78    78    76   ar
    79   151   150    1
    80   151   152   ar
    81    88    91    1
    82    88    87    1
    83    80    79   ar
    84   150   147    1
    85    41    42    1
    86    41    40    1
    87    91    92    1
    88    84    87   am
    89    84    83    1
    90    76    75   ar
    91    87    93    1
    92    43    42    1
    93    43    44    1
    94    37    38    1
    95    37    40    1
    96    37    36    1
    97    79    77   ar
    98    38    39    2
    99    86    83    1
   100   145   142    1
   101   146   147    1
   102   146   143   am
   103   147   148    1
   104    83    82    1
   105   149   148    2
   106    92    93    1
   107    75    77   ar
   108    75    74    1
   109    35    32    1
   110    82    72   am
   111   141   142    1
   112   142   143    1
   113   143   144    2
   114    32    33    1
   115    32    31    1
   116    59    58    1
   117    33    34    2
   118    74    71    1
   119    72    71    1
   120    72    73    2
   121    71    70    1
   122    52    50    1
   123    64    63    2
   124    51    50    1
   125    58    57    1
   126    58    60    1
   127    50    49    1
   128    70    63   am
   129    57    54    1
   130    63    62    1
   131    49    46    1
   132    56    55    2
   133    54    55    1
   134    54    53    1
   135    55    61   am
   136    46    45    1
   137    46    47    1
   138    62    61    1
   139    62    65    1
   140    66    65    1
   141    66    67    1
   142    69    67   ar
   143    67    68   ar
   144    47    48    2
