@<TRIPOS>MOLECULE
tmp/5dt2B00.pdb
 185 179 0 0 0
SMALL
GASTEIGER

@<TRIPOS>ATOM
      1  N         48.1920  -31.5790   18.5800 N.3   117  PRO117     -0.2102
      2  CA        47.9720  -31.0350   17.2290 C.3   117  PRO117      0.1504
      3  C         46.7630  -31.6950   16.5570 C.2   117  PRO117      0.2575
      4  O         46.5040  -32.8880   16.7840 O.2   117  PRO117     -0.2718
      5  CB        49.2850  -31.3630   16.5020 C.3   117  PRO117      0.0282
      6  CG        49.7820  -32.6250   17.1760 C.3   117  PRO117      0.0208
      7  CD        49.1520  -32.7060   18.5650 C.3   117  PRO117      0.0893
      8  N         46.0220  -30.9220   15.7470 N.am  118  PHE118     -0.1977
      9  CA        44.8130  -31.3770   15.0470 C.3   118  PHE118      0.1639
     10  C         43.8280  -32.0720   15.9930 C.2   118  PHE118      0.2290
     11  O         43.4590  -33.2390   15.7900 O.2   118  PHE118     -0.2864
     12  CB        45.1390  -32.2300   13.8000 C.3   118  PHE118      0.0560
     13  CG        46.1500  -31.5770   12.8900 C.ar  118  PHE118     -0.0200
     14  CD1       45.7640  -30.5800   11.9960 C.ar  118  PHE118     -0.0042
     15  CD2       47.4960  -31.9200   12.9620 C.ar  118  PHE118     -0.0042
     16  CE1       46.7070  -29.9560   11.1670 C.ar  118  PHE118     -0.0003
     17  CE2       48.4360  -31.3020   12.1320 C.ar  118  PHE118     -0.0003
     18  CZ        48.0350  -30.3370   11.2250 C.ar  118  PHE118     -0.0000
     19  N         38.5190  -29.7560   14.3990 N.3   123  TYR123     -0.1241
     20  CA        38.5110  -30.5450   13.1670 C.3   123  TYR123      0.1605
     21  C         38.0900  -29.7290   11.9550 C.2   123  TYR123      0.2264
     22  O         38.7890  -29.7640   10.9370 O.2   123  TYR123     -0.2867
     23  CB        37.6240  -31.7990   13.3100 C.3   123  TYR123      0.0534
     24  CG        37.7220  -32.7360   12.1220 C.ar  123  TYR123     -0.0201
     25  CD1       38.7270  -33.7080   12.0500 C.ar  123  TYR123     -0.0009
     26  CD2       36.8180  -32.6500   11.0620 C.ar  123  TYR123     -0.0009
     27  CE1       38.8560  -34.5370   10.9340 C.ar  123  TYR123      0.0417
     28  CE2       36.9390  -33.4740    9.9420 C.ar  123  TYR123      0.0417
     29  CZ        37.9590  -34.4160    9.8830 C.ar  123  TYR123      0.1957
     30  OH        38.0640  -35.2440    8.7900 O.3   123  TYR123     -0.2866
     31  N         40.9510  -27.0290   11.2490 N.3   126  THR126     -0.1203
     32  CA        42.3270  -27.3660   10.8880 C.3   126  THR126      0.1994
     33  C         42.5140  -28.7290   10.1820 C.2   126  THR126      0.2618
     34  O         43.5750  -28.9640    9.5860 O.2   126  THR126     -0.2717
     35  CB        43.2480  -27.2430   12.1190 C.3   126  THR126      0.1784
     36  OG1       42.8440  -28.1720   13.1220 O.3   126  THR126     -0.2211
     37  CG2       43.2890  -25.8110   12.6890 C.3   126  THR126      0.0376
     38  N         41.5130  -29.6100   10.2250 N.am  127  SER127     -0.1951
     39  CA        41.6740  -30.9300    9.6130 C.3   127  SER127      0.1924
     40  C         40.8200  -31.1470    8.3950 C.2   127  SER127      0.2314
     41  O         41.2600  -31.8080    7.4680 O.2   127  SER127     -0.2863
     42  CB        41.4230  -32.0380   10.6340 C.3   127  SER127      0.2116
     43  OG        42.3110  -31.9560   11.7400 O.3   127  SER127     -0.2180
     44  N         42.1910  -30.4170    4.7820 N.3   130  LEU130     -0.1231
     45  CA        43.2700  -31.3190    4.4160 C.3   130  LEU130      0.1693
     46  C         42.6840  -32.6840    4.0200 C.2   130  LEU130      0.2591
     47  O         42.9930  -33.1910    2.9400 O.2   130  LEU130     -0.2718
     48  CB        44.3400  -31.4170    5.5180 C.3   130  LEU130      0.0284
     49  CG        45.5580  -32.3020    5.1790 C.3   130  LEU130      0.0019
     50  CD1       46.2270  -31.9060    3.8530 C.3   130  LEU130      0.0001
     51  CD2       46.5430  -32.3030    6.2900 C.3   130  LEU130      0.0001
     52  N         41.7860  -33.2210    4.8410 N.am  131  VAL131     -0.1980
     53  CA        41.0700  -34.4630    4.5520 C.3   131  VAL131      0.1595
     54  C         40.3120  -34.3830    3.2060 C.2   131  VAL131      0.2287
     55  O         40.3840  -35.3200    2.4080 O.2   131  VAL131     -0.2864
     56  CB        40.1520  -34.8850    5.7270 C.3   131  VAL131      0.0276
     57  CG1       39.3650  -36.1540    5.3690 C.3   131  VAL131      0.0022
     58  CG2       40.9800  -35.0940    6.9980 C.3   131  VAL131      0.0022
     59  N         42.7540  -34.7640    0.4020 N.3   134  MET134     -0.1245
     60  CA        43.1750  -36.1560    0.3060 C.3   134  MET134      0.1570
     61  C         42.1010  -36.9700   -0.4220 C.2   134  MET134      0.2261
     62  O         42.4390  -37.7380   -1.3240 O.2   134  MET134     -0.2867
     63  CB        43.4660  -36.7420    1.6920 C.3   134  MET134      0.0387
     64  CG        44.6990  -36.1490    2.3600 C.3   134  MET134      0.0595
     65  SD        44.9650  -36.9270    3.9710 S.3   134  MET134     -0.1393
     66  CE        44.3800  -35.7740    4.9110 C.3   134  MET134      0.0692
     67  N         40.4430  -46.3800    8.4000 N.3   148  ASP148     -0.1239
     68  CA        41.1990  -45.3670    9.1110 C.3   148  ASP148      0.1674
     69  C         41.7510  -46.0530   10.3700 C.2   148  ASP148      0.2266
     70  O         40.9730  -46.4090   11.2580 O.2   148  ASP148     -0.2867
     71  CB        40.3340  -44.1390    9.4450 C.3   148  ASP148      0.1410
     72  CG        41.1260  -42.9880   10.0440 C.2   148  ASP148      0.3668
     73  OD1       42.3310  -42.8570    9.7180 O.co2 148  ASP148     -0.2456
     74  OD2       40.5510  -42.2320   10.8460 O.co2 148  ASP148     -0.2456
     75  N         43.2370  -46.0980   13.7500 N.3   150  GLY150     -0.1210
     76  CA        43.3470  -45.1360   14.8460 C.3   150  GLY150      0.1956
     77  C         42.4530  -43.9700   14.4950 C.2   150  GLY150      0.2613
     78  O         42.9100  -42.8480   14.2390 O.2   150  GLY150     -0.2717
     79  N         41.1530  -44.2710   14.4280 N.am  151  SER151     -0.1938
     80  CA        40.1220  -43.3560   13.9930 C.3   151  SER151      0.2055
     81  C         39.6520  -42.3400   15.0260 C.2   151  SER151      0.2643
     82  O         38.9340  -41.4190   14.6390 O.2   151  SER151     -0.2714
     83  CB        38.9410  -44.1390   13.4440 C.3   151  SER151      0.2130
     84  OG        38.4780  -45.0740   14.3980 O.3   151  SER151     -0.2179
     85  N         40.0570  -42.4780   16.2920 N.am  152  GLY152     -0.1954
     86  CA        39.6570  -41.5580   17.3600 C.3   152  GLY152      0.1869
     87  C         38.1520  -41.5130   17.5770 C.2   152  GLY152      0.2309
     88  O         37.5240  -42.5650   17.7770 O.2   152  GLY152     -0.2863
     89  N         35.7890  -38.7540   13.0480 N.3   155  GLN155     -0.1231
     90  CA        35.6000  -37.6480   12.1040 C.3   155  GLN155      0.1698
     91  C         36.1210  -37.9040   10.6890 C.2   155  GLN155      0.2592
     92  O         35.4540  -37.5560    9.7300 O.2   155  GLN155     -0.2718
     93  CB        36.2090  -36.3620   12.6690 C.3   155  GLN155      0.0381
     94  CG        35.4680  -35.8500   13.8990 C.3   155  GLN155      0.0905
     95  CD        36.2960  -34.9330   14.7550 C.2   155  GLN155      0.2608
     96  OE1       37.4530  -35.2140   15.0870 O.2   155  GLN155     -0.2717
     97  NE2       35.6880  -33.8420   15.1920 N.am  155  GLN155     -0.0878
     98  N         37.3010  -38.4960   10.5500 N.am  156  VAL156     -0.1980
     99  CA        37.8600  -38.7580    9.2300 C.3   156  VAL156      0.1595
    100  C         36.9960  -39.7740    8.4900 C.2   156  VAL156      0.2287
    101  O         36.6460  -39.5360    7.3330 O.2   156  VAL156     -0.2864
    102  CB        39.3790  -39.1240    9.3000 C.3   156  VAL156      0.0276
    103  CG1       39.9060  -39.6370    7.9630 C.3   156  VAL156      0.0022
    104  CG2       40.1960  -37.9200    9.7630 C.3   156  VAL156      0.0022
    105  N         44.1280  -45.2990    5.5330 N.3   226  PHE226     -0.1227
    106  CA        44.5220  -43.9800    5.9870 C.3   226  PHE226      0.1736
    107  C         45.0540  -44.2180    7.3950 C.2   226  PHE226      0.2595
    108  O         44.4390  -44.9560    8.1790 O.2   226  PHE226     -0.2718
    109  CB        43.3350  -43.0080    6.0210 C.3   226  PHE226      0.0547
    110  CG        43.0960  -42.2180    4.7590 C.ar  226  PHE226     -0.0202
    111  CD1       43.3730  -42.7690    3.5090 C.ar  226  PHE226     -0.0042
    112  CD2       42.4500  -40.9820    4.8060 C.ar  226  PHE226     -0.0042
    113  CE1       43.0930  -42.0600    2.3340 C.ar  226  PHE226     -0.0003
    114  CE2       42.1380  -40.2940    3.6340 C.ar  226  PHE226     -0.0003
    115  CZ        42.4820  -40.8270    2.4040 C.ar  226  PHE226     -0.0000
    116  N         46.2010  -43.6360    7.7130 N.am  227  VAL227     -0.1966
    117  CA        46.7730  -43.8480    9.0380 C.3   227  VAL227      0.1727
    118  C         47.5310  -42.6080    9.4990 C.2   227  VAL227      0.2616
    119  O         48.5060  -42.2000    8.8690 O.2   227  VAL227     -0.2715
    120  CB        47.5990  -45.1730    9.1710 C.3   227  VAL227      0.0290
    121  CG1       48.6830  -45.3070    8.1130 C.3   227  VAL227      0.0023
    122  CG2       48.1610  -45.3620   10.5720 C.3   227  VAL227      0.0023
    123  N         47.0500  -41.9790   10.5730 N.am  228  ASN228     -0.1972
    124  CA        47.7870  -40.8520   11.1140 C.3   228  ASN228      0.1688
    125  C         48.8460  -41.4760   12.0490 C.2   228  ASN228      0.2292
    126  O         48.5690  -41.7670   13.2170 O.2   228  ASN228     -0.2864
    127  CB        46.8590  -39.8760   11.8310 C.3   228  ASN228      0.1181
    128  CG        47.6000  -38.8120   12.5810 C.2   228  ASN228      0.2629
    129  OD1       48.7620  -38.5270   12.3020 O.2   228  ASN228     -0.2716
    130  ND2       46.9540  -38.2170   13.5700 N.am  228  ASN228     -0.0877
    131  N         51.7870  -40.0770   12.8270 N.3   230  PHE230     -0.1241
    132  CA        52.6400  -39.0060   13.3560 C.3   230  PHE230      0.1605
    133  C         53.1660  -39.2610   14.7740 C.2   230  PHE230      0.2264
    134  O         54.3530  -39.0590   15.0170 O.2   230  PHE230     -0.2867
    135  CB        51.9370  -37.6450   13.2730 C.3   230  PHE230      0.0534
    136  CG        52.7930  -36.4700   13.7010 C.ar  230  PHE230     -0.0203
    137  CD1       53.7310  -35.9180   12.8310 C.ar  230  PHE230     -0.0042
    138  CD2       52.6360  -35.8930   14.9630 C.ar  230  PHE230     -0.0042
    139  CE1       54.5120  -34.8250   13.2250 C.ar  230  PHE230     -0.0003
    140  CE2       53.4150  -34.7970   15.3520 C.ar  230  PHE230     -0.0003
    141  CZ        54.3410  -34.2700   14.4800 C.ar  230  PHE230     -0.0000
    142  N         47.8170  -44.1330    2.8880 N.3   254  VAL254     -0.1231
    143  CA        47.9530  -42.6910    3.0040 C.3   254  VAL254      0.1692
    144  C         48.2250  -42.3820    4.4820 C.2   254  VAL254      0.2593
    145  O         47.4270  -42.7240    5.3650 O.2   254  VAL254     -0.2718
    146  CB        46.7390  -41.9160    2.4320 C.3   254  VAL254      0.0266
    147  CG1       46.9950  -40.4080    2.4800 C.3   254  VAL254      0.0020
    148  CG2       46.4230  -42.3610    1.0070 C.3   254  VAL254      0.0020
    149  N         49.3750  -41.7660    4.7430 N.am  255  SER255     -0.1938
    150  CA        49.8090  -41.4680    6.1020 C.3   255  SER255      0.2055
    151  C         50.3340  -40.0420    6.2970 C.2   255  SER255      0.2643
    152  O         50.5680  -39.3380    5.3220 O.2   255  SER255     -0.2714
    153  CB        50.8430  -42.5020    6.5380 C.3   255  SER255      0.2130
    154  OG        52.0070  -42.3200    5.7500 O.3   255  SER255     -0.2179
    155  N         50.5220  -39.6290    7.5670 N.am  256  SER256     -0.1949
    156  CA        51.0290  -38.3010    7.9270 C.3   256  SER256      0.1924
    157  C         52.5870  -38.2650    7.9560 C.2   256  SER256      0.2314
    158  O         53.1860  -37.2060    7.7590 O.2   256  SER256     -0.2863
    159  CB        50.3940  -37.8090    9.2250 C.3   256  SER256      0.2116
    160  OG        50.4790  -38.7850   10.2510 O.3   256  SER256     -0.2180
    161  N         51.3200  -28.6290    5.0480 N.3   295  VAL295     -0.1231
    162  CA        51.3480  -30.0100    5.5210 C.3   295  VAL295      0.1692
    163  C         51.2300  -30.9810    4.3400 C.2   295  VAL295      0.2593
    164  O         50.4600  -30.7460    3.3970 O.2   295  VAL295     -0.2718
    165  CB        50.2720  -30.1970    6.6420 C.3   295  VAL295      0.0266
    166  CG1       48.9340  -29.6260    6.2030 C.3   295  VAL295      0.0020
    167  CG2       50.1200  -31.6430    7.1190 C.3   295  VAL295      0.0020
    168  N         52.0470  -32.0470    4.3810 N.am  296  SER296     -0.1938
    169  CA        52.1100  -33.0900    3.3600 C.3   296  SER296      0.2055
    170  C         51.4490  -34.3750    3.8310 C.2   296  SER296      0.2643
    171  O         51.3070  -34.6010    5.0320 O.2   296  SER296     -0.2714
    172  CB        53.5640  -33.3890    3.0040 C.3   296  SER296      0.2130
    173  OG        54.1480  -32.3980    2.1760 O.3   296  SER296     -0.2179
    174  N         51.0670  -35.2220    2.8820 N.am  297  TYR297     -0.1973
    175  CA        50.5700  -36.5690    3.1500 C.3   297  TYR297      0.1639
    176  C         51.3410  -37.5120    2.2420 C.2   297  TYR297      0.2290
    177  O         51.9080  -37.0720    1.2310 O.2   297  TYR297     -0.2864
    178  CB        49.0390  -36.7300    3.0780 C.3   297  TYR297      0.0560
    179  CG        48.3990  -36.2380    1.8040 C.ar  297  TYR297     -0.0198
    180  CD1       48.1330  -34.8840    1.6130 C.ar  297  TYR297     -0.0009
    181  CD2       47.9560  -37.1350    0.8340 C.ar  297  TYR297     -0.0009
    182  CE1       47.5080  -34.4270    0.4580 C.ar  297  TYR297      0.0417
    183  CE2       47.3080  -36.6890   -0.3190 C.ar  297  TYR297      0.0417
    184  CZ        47.1100  -35.3330   -0.5140 C.ar  297  TYR297      0.1957
    185  OH        46.5000  -34.8740   -1.6560 O.3   297  TYR297     -0.2866
@<TRIPOS>BOND
     1   185   184    1
     2    62    61    2
     3   184   183   ar
     4   184   182   ar
     5    61    60    1
     6   183   181   ar
     7    60    59    1
     8    60    63    1
     9   182   180   ar
    10   181   179   ar
    11   148   146    1
    12   177   176    2
    13   180   179   ar
    14    63    64    1
    15   179   178    1
    16   173   172    1
    17   176   175    1
    18   113   115   ar
    19   113   111   ar
    20    64    65    1
    21   115   114   ar
    22    55    54    2
    23   146   147    1
    24   146   143    1
    25   174   175    1
    26   174   170   am
    27   142   143    1
    28    47    46    2
    29   143   144    1
    30   172   169    1
    31   178   175    1
    32    54    53    1
    33   169   170    1
    34   169   168    1
    35   164   163    2
    36   111   110   ar
    37   114   112   ar
    38   170   171    2
    39    50    49    1
    40    65    66    1
    41    46    45    1
    42    46    52   am
    43   163   168   am
    44   163   162    1
    45    45    44    1
    46    45    48    1
    47   144   149   am
    48   144   145    2
    49    53    52    1
    50    53    56    1
    51   149   150    1
    52   110   112   ar
    53   110   109    1
    54   161   162    1
    55    49    48    1
    56    49    51    1
    57   152   151    2
    58    57    56    1
    59   162   165    1
    60   105   106    1
    61    56    58    1
    62   154   153    1
    63   106   109    1
    64   106   107    1
    65   150   151    1
    66   150   153    1
    67   166   165    1
    68   151   155   am
    69   165   167    1
    70   101   100    2
    71   107   116   am
    72   107   108    2
    73    41    40    2
    74   155   156    1
    75   116   117    1
    76   158   157    2
    77   156   157    1
    78   156   159    1
    79   103   102    1
    80   121   120    1
    81    40    39    1
    82    67    68    1
    83   100    99    1
    84    30    29    1
    85   119   118    2
    86   117   120    1
    87   117   118    1
    88    68    71    1
    89    68    69    1
    90   120   122    1
    91   159   160    1
    92    99   102    1
    93    99    98    1
    94   102   104    1
    95    71    72    1
    96   118   123   am
    97    34    33    2
    98    39    38    1
    99    39    42    1
   100    73    72   ar
   101    92    91    2
   102    29    28   ar
   103    29    27   ar
   104    28    26   ar
   105    72    74   ar
   106    33    38   am
   107    33    32    1
   108    69    70    2
   109    98    91   am
   110   123   124    1
   111    42    43    1
   112    91    90    1
   113    32    31    1
   114    32    35    1
   115    27    25   ar
   116    22    21    2
   117    26    24   ar
   118   124   127    1
   119   124   125    1
   120    16    18   ar
   121    16    14   ar
   122    18    17   ar
   123   127   128    1
   124    21    20    1
   125    14    13   ar
   126   125   126    2
   127    25    24   ar
   128    90    93    1
   129    90    89    1
   130    35    37    1
   131    35    36    1
   132    24    23    1
   133    17    15   ar
   134   129   128    2
   135   128   130   am
   136    93    94    1
   137   131   132    1
   138   137   139   ar
   139   137   136   ar
   140    13    15   ar
   141    13    12    1
   142    20    23    1
   143    20    19    1
   144   139   141   ar
   145   135   132    1
   146   135   136    1
   147   132   133    1
   148    83    80    1
   149    83    84    1
   150   136   138   ar
   151    75    76    1
   152    12     9    1
   153    94    95    1
   154    80    79    1
   155    80    81    1
   156    78    77    2
   157    79    77   am
   158   141   140   ar
   159    77    76    1
   160    82    81    2
   161    95    96    2
   162    95    97   am
   163   133   134    2
   164   138   140   ar
   165    81    85   am
   166     9     8    1
   167     9    10    1
   168     8     3   am
   169    11    10    2
   170    85    86    1
   171     5     6    1
   172     5     2    1
   173     3     4    2
   174     3     2    1
   175     6     7    1
   176     2     1    1
   177    86    87    1
   178    87    88    2
   179     7     1    1
