@<TRIPOS>MOLECULE
tmp/5dtbA00.pdb
 116 110 0 0 0
SMALL
GASTEIGER

@<TRIPOS>ATOM
      1  N        -31.5590   19.0570    4.9380 N.3    60  TYR60      -0.1241
      2  CA       -30.1900   19.5460    4.8150 C.3    60  TYR60       0.1605
      3  C        -29.9730   20.7910    5.6630 C.2    60  TYR60       0.2264
      4  O        -28.9770   20.8990    6.3870 O.2    60  TYR60      -0.2867
      5  CB       -29.8720   19.8240    3.3460 C.3    60  TYR60       0.0534
      6  CG       -29.6940   18.5510    2.5470 C.ar   60  TYR60      -0.0201
      7  CD1      -30.7810   17.8800    2.0190 C.ar   60  TYR60      -0.0009
      8  CD2      -28.4320   18.0220    2.3410 C.ar   60  TYR60      -0.0009
      9  CE1      -30.6160   16.6990    1.3160 C.ar   60  TYR60       0.0417
     10  CE2      -28.2590   16.8550    1.6740 C.ar   60  TYR60       0.0417
     11  CZ       -29.3410   16.2000    1.1400 C.ar   60  TYR60       0.1957
     12  OH       -29.1430   15.0250    0.4580 O.3    60  TYR60      -0.2866
     13  N        -23.5770   15.3680    1.8260 N.3    88  ASP88      -0.1225
     14  CA       -23.6760   16.1180    0.5730 C.3    88  ASP88       0.1805
     15  C        -24.3550   17.4510    0.8700 C.2    88  ASP88       0.2598
     16  O        -25.4830   17.7240    0.4520 O.2    88  ASP88      -0.2718
     17  CB       -24.4140   15.3140   -0.4890 C.3    88  ASP88       0.1424
     18  CG       -25.7590   14.8170   -0.0250 C.2    88  ASP88       0.3668
     19  OD1      -25.9230   14.4760    1.1750 O.co2  88  ASP88      -0.2456
     20  OD2      -26.6670   14.7550   -0.8650 O.co2  88  ASP88      -0.2456
     21  N        -23.6420   18.2560    1.6740 N.am   89  LEU89      -0.1966
     22  CA       -24.1070   19.5450    2.1570 C.3    89  LEU89       0.1728
     23  C        -23.3900   20.6490    1.4040 C.2    89  LEU89       0.2616
     24  O        -22.1670   20.7990    1.5250 O.2    89  LEU89      -0.2715
     25  CB       -23.8680   19.6760    3.6700 C.3    89  LEU89       0.0311
     26  CG       -24.2610   20.9780    4.3290 C.3    89  LEU89       0.0022
     27  CD1      -25.7540   21.1030    4.3250 C.3    89  LEU89       0.0001
     28  CD2      -23.6990   21.0400    5.7680 C.3    89  LEU89       0.0001
     29  N        -24.1580   21.4170    0.6380 N.am   90  THR90      -0.1951
     30  CA       -23.6040   22.4770   -0.1920 C.3    90  THR90       0.1897
     31  C        -23.1490   23.6600    0.6420 C.2    90  THR90       0.2313
     32  O        -23.8620   24.1230    1.5500 O.2    90  THR90      -0.2863
     33  CB       -24.6620   22.9100   -1.1980 C.3    90  THR90       0.1794
     34  OG1      -25.0770   21.7500   -1.9120 O.3    90  THR90      -0.2208
     35  CG2      -24.1210   23.9540   -2.1270 C.3    90  THR90       0.0378
     36  N        -25.8350   29.8020    4.1540 N.3    95  ARG95      -0.1245
     37  CA       -25.3990   28.9890    5.2850 C.3    95  ARG95       0.1563
     38  C        -24.1320   29.5450    5.9180 C.2    95  ARG95       0.2260
     39  O        -23.9860   29.5250    7.1480 O.2    95  ARG95      -0.2867
     40  CB       -25.1850   27.5460    4.8480 C.3    95  ARG95       0.0307
     41  CG       -26.4730   26.8100    4.5720 C.3    95  ARG95       0.0489
     42  CD       -26.2430   25.5000    3.8520 C.3    95  ARG95       0.2205
     43  NE       -27.5000   24.7780    3.6430 N.pl3  95  ARG95      -0.0865
     44  CZ       -27.6720   23.8280    2.7210 C.cat  95  ARG95       0.5346
     45  NH1      -26.6720   23.4850    1.9230 N.pl3  95  ARG95       0.1354
     46  NH2      -28.8470   23.2200    2.5870 N.pl3  95  ARG95       0.1354
     47  N        -35.3600   18.8810   -4.9610 N.3   137  LEU137     -0.1245
     48  CA       -35.4880   18.6000   -3.5330 C.3   137  LEU137      0.1561
     49  C        -35.9890   19.8320   -2.7860 C.2   137  LEU137      0.2260
     50  O        -35.4170   20.9200   -2.8870 O.2   137  LEU137     -0.2867
     51  CB       -34.1440   18.1510   -2.9840 C.3   137  LEU137      0.0270
     52  CG       -34.0870   17.5130   -1.6060 C.3   137  LEU137      0.0019
     53  CD1      -33.1030   16.3550   -1.6360 C.3   137  LEU137      0.0001
     54  CD2      -33.6130   18.5270   -0.6180 C.3   137  LEU137      0.0001
     55  N        -33.6630   22.5680   -0.5380 N.3   140  GLY140     -0.1210
     56  CA       -32.2480   22.4420   -0.7870 C.3   140  GLY140      0.1956
     57  C        -31.6690   23.5730   -1.6370 C.2   140  GLY140      0.2613
     58  O        -32.3430   24.5060   -2.0890 O.2   140  GLY140     -0.2717
     59  N        -30.3530   23.4810   -1.8200 N.am  141  SER141     -0.1938
     60  CA       -29.6270   24.4900   -2.5810 C.3   141  SER141      0.2055
     61  C        -29.9940   24.4770   -4.0640 C.2   141  SER141      0.2643
     62  O        -29.8480   25.5030   -4.7360 O.2   141  SER141     -0.2714
     63  CB       -28.1290   24.2980   -2.4110 C.3   141  SER141      0.2130
     64  OG       -27.6520   23.0640   -2.8840 O.3   141  SER141     -0.2179
     65  N        -30.4320   23.3410   -4.6110 N.am  142  THR142     -0.1950
     66  CA       -30.8500   23.3340   -6.0120 C.3   142  THR142      0.1897
     67  C        -32.1090   24.1740   -6.1870 C.2   142  THR142      0.2313
     68  O        -32.1680   25.0570   -7.0490 O.2   142  THR142     -0.2863
     69  CB       -31.0570   21.8950   -6.4870 C.3   142  THR142      0.1794
     70  OG1      -29.7950   21.2170   -6.4310 O.3   142  THR142     -0.2208
     71  CG2      -31.6450   21.8400   -7.9480 C.3   142  THR142      0.0378
     72  N        -33.3030   13.1010   -2.5600 N.3   173  ASN173     -0.1240
     73  CA       -32.8530   12.6910   -3.8880 C.3   173  ASN173      0.1653
     74  C        -33.4710   11.3570   -4.3050 C.2   173  ASN173      0.2266
     75  O        -33.8890   11.1860   -5.4570 O.2   173  ASN173     -0.2867
     76  CB       -31.3270   12.5950   -3.9280 C.3   173  ASN173      0.1155
     77  CG       -30.6510   13.9400   -4.1350 C.2   173  ASN173      0.2627
     78  OD1      -31.2620   14.9030   -4.5990 O.2   173  ASN173     -0.2716
     79  ND2      -29.3540   13.9880   -3.8500 N.am  173  ASN173     -0.0877
     80  N        -34.3070   17.8440  -11.1410 N.3   190  LEU190     -0.1231
     81  CA       -33.1330   18.6930  -10.9970 C.3   190  LEU190      0.1693
     82  C        -32.3400   18.2550   -9.7560 C.2   190  LEU190      0.2592
     83  O        -32.8850   18.1400   -8.6460 O.2   190  LEU190     -0.2718
     84  CB       -33.5670   20.1540  -10.8940 C.3   190  LEU190      0.0284
     85  CG       -34.3000   20.6610  -12.1320 C.3   190  LEU190      0.0019
     86  CD1      -35.0890   21.9310  -11.7790 C.3   190  LEU190      0.0001
     87  CD2      -33.2890   20.9230  -13.1870 C.3   190  LEU190      0.0001
     88  N        -31.0540   17.9950   -9.9550 N.am  191  MET191     -0.1965
     89  CA       -30.2870   17.1760   -9.0350 C.3   191  MET191      0.1736
     90  C        -28.8180   17.5110   -9.2050 C.2   191  MET191      0.2616
     91  O        -28.3660   17.8920  -10.2960 O.2   191  MET191     -0.2715
     92  CB       -30.5300   15.6830   -9.3240 C.3   191  MET191      0.0427
     93  CG       -29.8840   14.6990   -8.3430 C.3   191  MET191      0.0599
     94  SD       -30.4720   12.9940   -8.7280 S.3   191  MET191     -0.1393
     95  CE       -29.7560   12.0160   -7.4220 C.3   191  MET191      0.0692
     96  N        -28.0790   17.3210   -8.1260 N.am  192  GLU192     -0.1977
     97  CA       -26.6550   17.6190   -8.1160 C.3   192  GLU192      0.1602
     98  C        -25.9080   16.5660   -8.9330 C.2   192  GLU192      0.2287
     99  O        -26.2210   15.3730   -8.8590 O.2   192  GLU192     -0.2864
    100  CB       -26.1580   17.7060   -6.6660 C.3   192  GLU192      0.0415
    101  CG       -26.6390   19.0310   -6.0200 C.3   192  GLU192      0.1163
    102  CD       -26.3780   19.1940   -4.5620 C.2   192  GLU192      0.3649
    103  OE1      -26.2350   18.1790   -3.8290 O.co2 192  GLU192     -0.2457
    104  OE2      -26.3590   20.3990   -4.1640 O.co2 192  GLU192     -0.2457
    105  N        -19.3140   20.7770   -1.8120 N.3   218  TYR218     -0.1241
    106  CA       -19.6250   20.2950   -0.4760 C.3   218  TYR218      0.1605
    107  C        -18.4450   20.5680    0.4560 C.2   218  TYR218      0.2264
    108  O        -17.2860   20.4040    0.0740 O.2   218  TYR218     -0.2867
    109  CB       -19.8930   18.7900   -0.4790 C.3   218  TYR218      0.0534
    110  CG       -20.9830   18.2700   -1.3970 C.ar  218  TYR218     -0.0201
    111  CD1      -22.1800   18.9610   -1.5890 C.ar  218  TYR218     -0.0009
    112  CD2      -20.8290   17.0530   -2.0260 C.ar  218  TYR218     -0.0009
    113  CE1      -23.1710   18.4510   -2.3960 C.ar  218  TYR218      0.0417
    114  CE2      -21.8180   16.5470   -2.8590 C.ar  218  TYR218      0.0417
    115  CZ       -22.9680   17.2560   -3.0450 C.ar  218  TYR218      0.1957
    116  OH       -23.9310   16.7280   -3.8510 O.3   218  TYR218     -0.2866
@<TRIPOS>BOND
     1    87    85    1
     2    85    86    1
     3    85    84    1
     4    80    81    1
     5    81    84    1
     6    81    82    1
     7    91    90    2
     8    88    82   am
     9    88    89    1
    10    82    83    2
    11    92    89    1
    12    92    93    1
    13    90    89    1
    14    90    96   am
    15    98    99    2
    16    98    97    1
    17    94    93    1
    18    94    95    1
    19    96    97    1
    20    97   100    1
    21    71    69    1
    22    68    67    2
    23   100   101    1
    24    69    70    1
    25    69    66    1
    26    67    66    1
    27   101   102    1
    28    66    65    1
    29    75    74    2
    30    47    48    1
    31    62    61    2
    32    65    61   am
    33    78    77    2
    34   102   104   ar
    35   102   103   ar
    36    74    73    1
    37    77    76    1
    38    77    79   am
    39    61    60    1
    40    76    73    1
    41    73    72    1
    42   116   115    1
    43    48    51    1
    44    48    49    1
    45   115   114   ar
    46   115   113   ar
    47    51    52    1
    48    50    49    2
    49    64    63    1
    50   114   112   ar
    51    60    63    1
    52    60    59    1
    53   113   111   ar
    54    35    33    1
    55    58    57    2
    56   112   110   ar
    57    34    33    1
    58    59    57   am
    59   105   106    1
    60    57    56    1
    61    53    52    1
    62    52    54    1
    63   111   110   ar
    64   110   109    1
    65    33    30    1
    66    20    18   ar
    67    56    55    1
    68    17    18    1
    69    17    14    1
    70   109   106    1
    71   106   107    1
    72    30    29    1
    73    30    31    1
    74    18    19   ar
    75   108   107    2
    76    16    15    2
    77    12    11    1
    78    14    15    1
    79    14    13    1
    80    29    23   am
    81    31    32    2
    82    15    21   am
    83    11     9   ar
    84    11    10   ar
    85     9     7   ar
    86    23    24    2
    87    23    22    1
    88    21    22    1
    89    10     8   ar
    90    45    44    1
    91     7     6   ar
    92    22    25    1
    93     8     6   ar
    94     6     5    1
    95    46    44    1
    96    44    43    2
    97     5     2    1
    98    43    42    1
    99    25    26    1
   100    42    41    1
   101    36    37    1
   102    27    26    1
   103    26    28    1
   104    41    40    1
   105     2     1    1
   106     2     3    1
   107    40    37    1
   108    37    38    1
   109     3     4    2
   110    38    39    2
