@<TRIPOS>MOLECULE
tmp/5dteB00.pdb
 129 121 0 0 0
SMALL
GASTEIGER

@<TRIPOS>ATOM
      1  N          7.2460   -9.2250   28.0580 N.3    10  LYS10      -0.1245
      2  CA         6.7200   -9.0340   26.7100 C.3    10  LYS10       0.1561
      3  C          5.7440   -7.8460   26.5920 C.2    10  LYS10       0.2260
      4  O          5.5450   -7.3070   25.4920 O.2    10  LYS10      -0.2867
      5  CB         6.0550  -10.3370   26.2270 C.3    10  LYS10       0.0271
      6  CG         4.8000  -10.7740   26.9860 C.3    10  LYS10       0.0035
      7  CD         4.4690  -12.2360   26.7120 C.3    10  LYS10       0.0206
      8  CE         2.9920  -12.5340   26.8710 C.3    10  LYS10       0.1093
      9  NZ         2.6850  -13.9400   26.4740 N.3    10  LYS10      -0.1314
     10  N         -0.8020   -4.5500   30.0410 N.3    14  ASN14      -0.1240
     11  CA        -1.7050   -5.5220   30.6210 C.3    14  ASN14       0.1653
     12  C         -1.5840   -5.4720   32.1500 C.2    14  ASN14       0.2266
     13  O         -0.4820   -5.5480   32.6830 O.2    14  ASN14      -0.2867
     14  CB        -1.3520   -6.9100   30.0730 C.3    14  ASN14       0.1155
     15  CG        -2.1860   -8.0250   30.6650 C.2    14  ASN14       0.2627
     16  OD1       -3.1480   -7.8000   31.3980 O.2    14  ASN14      -0.2716
     17  ND2       -1.8200   -9.2530   30.3270 N.am   14  ASN14      -0.0877
     18  N         -2.1680   -7.6890   34.2460 N.3    16  TYR16      -0.1227
     19  CA        -1.6190   -8.9540   34.7180 C.3    16  TYR16       0.1736
     20  C         -0.1040   -8.8490   34.9350 C.2    16  TYR16       0.2595
     21  O          0.3780   -9.0180   36.0590 O.2    16  TYR16      -0.2718
     22  CB        -1.9410  -10.1000   33.7420 C.3    16  TYR16       0.0548
     23  CG        -1.3430  -11.4010   34.2010 C.ar   16  TYR16      -0.0200
     24  CD1       -1.9690  -12.1600   35.1580 C.ar   16  TYR16      -0.0009
     25  CD2       -0.1130  -11.8380   33.7250 C.ar   16  TYR16      -0.0009
     26  CE1       -1.4180  -13.3280   35.6040 C.ar   16  TYR16       0.0417
     27  CE2        0.4490  -13.0110   34.1730 C.ar   16  TYR16       0.0417
     28  CZ        -0.2120  -13.7500   35.1180 C.ar   16  TYR16       0.1957
     29  OH         0.3250  -14.9290   35.5780 O.3    16  TYR16      -0.2866
     30  N          0.6380   -8.5560   33.8690 N.am   17  PHE17      -0.1976
     31  CA         2.0970   -8.4150   33.9480 C.3    17  PHE17       0.1639
     32  C          2.5810   -7.2750   34.8560 C.2    17  PHE17       0.2290
     33  O          3.5530   -7.4530   35.5710 O.2    17  PHE17      -0.2864
     34  CB         2.6700   -8.2410   32.5460 C.3    17  PHE17       0.0560
     35  CG         2.7190   -9.5160   31.7710 C.ar   17  PHE17      -0.0200
     36  CD1        3.2600  -10.6550   32.3390 C.ar   17  PHE17      -0.0042
     37  CD2        2.1850   -9.5960   30.4960 C.ar   17  PHE17      -0.0042
     38  CE1        3.3000  -11.8470   31.6390 C.ar   17  PHE17      -0.0003
     39  CE2        2.2160  -10.7940   29.7910 C.ar   17  PHE17      -0.0003
     40  CZ         2.7760  -11.9180   30.3650 C.ar   17  PHE17      -0.0000
     41  N          3.5160   -6.5180   22.0320 N.3    43  GLU43      -0.1245
     42  CA         3.3710   -7.7960   22.7140 C.3    43  GLU43       0.1567
     43  C          3.8420   -8.9770   21.8650 C.2    43  GLU43       0.2260
     44  O          4.2670  -10.0080   22.3990 O.2    43  GLU43      -0.2867
     45  CB         1.9120   -7.9840   23.1280 C.3    43  GLU43       0.0388
     46  CG         1.5990   -9.3460   23.7010 C.3    43  GLU43       0.1160
     47  CD         0.9210   -9.2660   25.0520 C.2    43  GLU43       0.3649
     48  OE1        0.1740   -8.2900   25.3020 O.co2  43  GLU43      -0.2457
     49  OE2        1.1460  -10.1850   25.8670 O.co2  43  GLU43      -0.2457
     50  N          6.4740  -17.7760   32.5480 N.3    92  ASP92      -0.1225
     51  CA         5.1600  -17.6600   31.8920 C.3    92  ASP92       0.1805
     52  C          4.9580  -18.5680   30.6760 C.2    92  ASP92       0.2597
     53  O          4.3830  -19.6480   30.8040 O.2    92  ASP92      -0.2718
     54  CB         4.9000  -16.2130   31.4770 C.3    92  ASP92       0.1424
     55  CG         3.4970  -16.0010   30.9320 C.2    92  ASP92       0.3668
     56  OD1        2.5250  -16.5100   31.5430 O.co2  92  ASP92      -0.2456
     57  OD2        3.3770  -15.3070   29.8970 O.co2  92  ASP92      -0.2456
     58  N          5.4050  -18.1120   29.5040 N.am   93  VAL93      -0.1980
     59  CA         5.2660  -18.8530   28.2460 C.3    93  VAL93       0.1595
     60  C          6.4120  -19.8560   28.0390 C.2    93  VAL93       0.2287
     61  O          7.5760  -19.4830   27.9970 O.2    93  VAL93      -0.2864
     62  CB         5.2090  -17.8780   27.0460 C.3    93  VAL93       0.0276
     63  CG1        5.2580  -18.6210   25.7340 C.3    93  VAL93       0.0022
     64  CG2        3.9740  -16.9820   27.1340 C.3    93  VAL93       0.0022
     65  N          0.2750  -17.8570   20.3800 N.3   144  VAL144     -0.1245
     66  CA         0.7000  -18.1060   21.7670 C.3   144  VAL144      0.1561
     67  C          0.2410  -19.4330   22.3850 C.2   144  VAL144      0.2260
     68  O         -0.9330  -19.8000   22.3340 O.2   144  VAL144     -0.2867
     69  CB         0.2320  -16.9370   22.6750 C.3   144  VAL144      0.0252
     70  CG1        0.3510  -17.2870   24.1570 C.3   144  VAL144      0.0019
     71  CG2        1.0020  -15.6500   22.3280 C.3   144  VAL144      0.0019
     72  N          0.1470  -20.5250   25.5930 N.3   146  ASN146     -0.1240
     73  CA        -0.7180  -20.4370   26.7570 C.3   146  ASN146      0.1653
     74  C         -2.1950  -20.2940   26.3850 C.2   146  ASN146      0.2266
     75  O         -3.0750  -20.8500   27.0450 O.2   146  ASN146     -0.2867
     76  CB        -0.2690  -19.2730   27.6420 C.3   146  ASN146      0.1155
     77  CG         1.0410  -19.5550   28.3330 C.2   146  ASN146      0.2627
     78  OD1        1.7550  -20.4800   27.9600 O.2   146  ASN146     -0.2716
     79  ND2        1.3620  -18.7730   29.3500 N.am  146  ASN146     -0.0877
     80  N         -5.1370  -23.4520   27.1490 N.3   150  ARG150     -0.1245
     81  CA        -6.3780  -23.1500   27.8710 C.3   150  ARG150      0.1563
     82  C         -7.6620  -23.5010   27.0860 C.2   150  ARG150      0.2260
     83  O         -8.6240  -24.0370   27.6540 O.2   150  ARG150     -0.2867
     84  CB        -6.3970  -21.6670   28.2750 C.3   150  ARG150      0.0307
     85  CG        -5.2660  -21.2510   29.2210 C.3   150  ARG150      0.0489
     86  CD        -5.1370  -19.7480   29.3150 C.3   150  ARG150      0.2205
     87  NE        -3.9010  -19.3470   29.9780 N.pl3 150  ARG150     -0.0865
     88  CZ        -3.4830  -18.0820   30.1130 C.cat 150  ARG150      0.5346
     89  NH1       -4.1980  -17.0600   29.6320 N.pl3 150  ARG150      0.1354
     90  NH2       -2.3320  -17.8320   30.7310 N.pl3 150  ARG150      0.1354
     91  N         -5.9950  -11.2210   23.5090 N.3   174  TRP174     -0.1241
     92  CA        -5.6460  -10.7760   24.8650 C.3   174  TRP174      0.1605
     93  C         -6.1280   -9.3660   25.2220 C.2   174  TRP174      0.2264
     94  O         -5.7840   -8.8330   26.2810 O.2   174  TRP174     -0.2867
     95  CB        -4.1240  -10.8380   25.0930 C.3   174  TRP174      0.0550
     96  CG        -3.4440  -12.1520   24.8190 C.ar  174  TRP174      0.0003
     97  CD1       -2.3500  -12.3470   24.0220 C.ar  174  TRP174      0.0946
     98  CD2       -3.7870  -13.4460   25.3500 C.ar  174  TRP174      0.0152
     99  NE1       -1.9920  -13.6740   24.0200 N.ar  174  TRP174     -0.2442
    100  CE2       -2.8590  -14.3700   24.8220 C.ar  174  TRP174      0.0810
    101  CE3       -4.7880  -13.9130   26.2130 C.ar  174  TRP174      0.0012
    102  CZ2       -2.9040  -15.7270   25.1260 C.ar  174  TRP174      0.0191
    103  CZ3       -4.8290  -15.2630   26.5150 C.ar  174  TRP174      0.0001
    104  CH2       -3.8950  -16.1520   25.9750 C.ar  174  TRP174      0.0015
    105  N         -8.1890  -14.9320   28.8790 N.3   200  ASN200     -0.1240
    106  CA        -7.5880  -14.1030   29.9150 C.3   200  ASN200      0.1653
    107  C         -8.6110  -13.1210   30.4600 C.2   200  ASN200      0.2266
    108  O         -9.7060  -12.9750   29.9060 O.2   200  ASN200     -0.2867
    109  CB        -6.3190  -13.3780   29.4150 C.3   200  ASN200      0.1155
    110  CG        -6.6190  -12.1150   28.6190 C.2   200  ASN200      0.2627
    111  OD1       -7.7210  -11.9390   28.0700 O.2   200  ASN200     -0.2716
    112  ND2       -5.6180  -11.2290   28.5330 N.am  200  ASN200     -0.0877
    113  N         -6.4240  -15.3900   34.8610 N.3   226  ASP226     -0.1239
    114  CA        -5.2750  -14.5490   35.3190 C.3   226  ASP226      0.1674
    115  C         -5.3850  -14.2250   36.8090 C.2   226  ASP226      0.2266
    116  O         -4.5000  -14.5480   37.5970 O.2   226  ASP226     -0.2867
    117  CB        -5.1370  -13.2160   34.5850 C.3   226  ASP226      0.1410
    118  CG        -4.6870  -13.3730   33.1620 C.2   226  ASP226      0.3668
    119  OD1       -4.2010  -14.4750   32.8260 O.co2 226  ASP226     -0.2456
    120  OD2       -4.8850  -12.4110   32.3750 O.co2 226  ASP226     -0.2456
    121  N         -3.9150  -17.3220   38.5570 N.3   246  GLN246     -0.1245
    122  CA        -2.6200  -17.8620   38.1660 C.3   246  GLN246      0.1566
    123  C         -1.4820  -17.5480   39.1550 C.2   246  GLN246      0.2260
    124  O         -0.3560  -17.9850   38.9480 O.2   246  GLN246     -0.2867
    125  CB        -2.2570  -17.3190   36.7800 C.3   246  GLN246      0.0367
    126  CG        -1.1850  -18.0780   36.0610 C.3   246  GLN246      0.0905
    127  CD        -0.9130  -17.5270   34.6900 C.2   246  GLN246      0.2608
    128  OE1       -1.3300  -16.4150   34.3640 O.2   246  GLN246     -0.2717
    129  NE2       -0.2150  -18.3070   33.8630 N.am  246  GLN246     -0.0878
@<TRIPOS>BOND
     1    65    66    1
     2    66    67    1
     3    66    69    1
     4    43    44    2
     5    43    42    1
     6    41    42    1
     7    71    69    1
     8    68    67    2
     9    69    70    1
    10    42    45    1
    11    45    46    1
    12    91    92    1
    13    46    47    1
    14    99    97   ar
    15    99   100   ar
    16    97    96   ar
    17    96    95    1
    18    96    98   ar
    19   100   102   ar
    20   100    98   ar
    21    92    95    1
    22    92    93    1
    23    47    48   ar
    24    47    49   ar
    25   102   104   ar
    26    93    94    2
    27    98   101   ar
    28     4     3    2
    29    72    73    1
    30    63    62    1
    31   104   103   ar
    32   101   103   ar
    33     5     2    1
    34     5     6    1
    35    74    73    1
    36    74    75    2
    37     9     8    1
    38     3     2    1
    39     2     1    1
    40     7     8    1
    41     7     6    1
    42    73    76    1
    43    62    64    1
    44    62    59    1
    45    82    83    2
    46    82    81    1
    47    80    81    1
    48    76    77    1
    49    81    84    1
    50    78    77    2
    51    61    60    2
    52    60    59    1
    53   111   110    2
    54    59    58    1
    55    84    85    1
    56    77    79   am
    57   112   110   am
    58   110   109    1
    59   105   106    1
    60    85    86    1
    61    86    87    1
    62   109   106    1
    63    58    52   am
    64    89    88    1
    65    39    40   ar
    66    39    37   ar
    67    57    55   ar
    68   108   107    2
    69   106   107    1
    70    87    88    2
    71    10    11    1
    72    14    11    1
    73    14    15    1
    74    88    90    1
    75    17    15   am
    76    40    38   ar
    77    37    35   ar
    78    11    12    1
    79    15    16    2
    80    52    53    2
    81    52    51    1
    82    55    54    1
    83    55    56   ar
    84    54    51    1
    85    38    36   ar
    86    35    36   ar
    87    35    34    1
    88    51    50    1
    89    12    13    2
    90   120   118   ar
    91    34    31    1
    92   119   118   ar
    93   118   117    1
    94    25    27   ar
    95    25    23   ar
    96    22    23    1
    97    22    19    1
    98   129   127   am
    99    30    31    1
   100    30    20   am
   101    31    32    1
   102    27    28   ar
   103    23    24   ar
   104    18    19    1
   105   128   127    2
   106   117   114    1
   107   127   126    1
   108    19    20    1
   109    32    33    2
   110   113   114    1
   111    20    21    2
   112    28    29    1
   113    28    26   ar
   114    24    26   ar
   115   114   115    1
   116   126   125    1
   117   125   122    1
   118   115   116    2
   119   122   121    1
   120   122   123    1
   121   124   123    2
