@<TRIPOS>MOLECULE
tmp/5dtfC00.pdb
 110 107 0 0 0
SMALL
GASTEIGER

@<TRIPOS>ATOM
      1  N        -43.8160  -46.6800  143.0650 N.3    29  THR29      -0.1218
      2  CA       -44.6020  -45.4710  142.8650 C.3    29  THR29       0.1862
      3  C        -45.0720  -45.4080  141.4220 C.2    29  THR29       0.2287
      4  O        -44.3850  -45.8800  140.5120 O.2    29  THR29      -0.2866
      5  CB       -43.8090  -44.1850  143.1860 C.3    29  THR29       0.1770
      6  OG1      -42.6710  -44.0790  142.3100 O.3    29  THR29      -0.2211
      7  CG2      -43.3400  -44.1790  144.6360 C.3    29  THR29       0.0375
      8  N        -45.7520  -42.5710  138.6150 N.3    31  ASN31      -0.1240
      9  CA       -45.1890  -41.2570  138.3770 C.3    31  ASN31       0.1653
     10  C        -45.8250  -40.6410  137.1470 C.2    31  ASN31       0.2266
     11  O        -46.1920  -41.3470  136.2030 O.2    31  ASN31      -0.2867
     12  CB       -43.6640  -41.3480  138.1510 C.3    31  ASN31       0.1155
     13  CG       -42.9190  -41.8730  139.3610 C.2    31  ASN31       0.2627
     14  OD1      -42.2450  -41.1170  140.0600 O.2    31  ASN31      -0.2716
     15  ND2      -43.0370  -43.1680  139.6140 N.am   31  ASN31      -0.0877
     16  N        -40.2310  -34.2720  135.6120 N.3    43  TRP43      -0.1241
     17  CA       -41.0160  -35.0300  136.5770 C.3    43  TRP43       0.1605
     18  C        -42.0760  -34.1430  137.2220 C.2    43  TRP43       0.2264
     19  O        -41.7760  -33.0390  137.6830 O.2    43  TRP43      -0.2867
     20  CB       -40.0700  -35.5960  137.6320 C.3    43  TRP43       0.0550
     21  CG       -40.6770  -36.4880  138.6520 C.ar   43  TRP43       0.0003
     22  CD1      -41.0430  -37.7980  138.4960 C.ar   43  TRP43       0.0946
     23  CD2      -40.9520  -36.1510  140.0170 C.ar   43  TRP43       0.0152
     24  NE1      -41.5420  -38.2940  139.6900 N.ar   43  TRP43      -0.2442
     25  CE2      -41.4930  -37.3010  140.6340 C.ar   43  TRP43       0.0810
     26  CE3      -40.7860  -34.9880  140.7790 C.ar   43  TRP43       0.0012
     27  CZ2      -41.8670  -37.3210  141.9820 C.ar   43  TRP43       0.0191
     28  CZ3      -41.1650  -35.0050  142.1110 C.ar   43  TRP43       0.0001
     29  CH2      -41.7040  -36.1640  142.6970 C.ar   43  TRP43       0.0015
     30  N        -45.4750  -38.1800  142.0530 N.3    46  ASP46      -0.1239
     31  CA       -45.7280  -39.6090  142.1710 C.3    46  ASP46       0.1674
     32  C        -46.7170  -39.8760  143.2990 C.2    46  ASP46       0.2266
     33  O        -47.0960  -38.9780  144.0490 O.2    46  ASP46      -0.2867
     34  CB       -44.4330  -40.4200  142.3760 C.3    46  ASP46       0.1410
     35  CG       -43.6120  -39.9760  143.5930 C.2    46  ASP46       0.3668
     36  OD1      -44.1220  -39.2570  144.4650 O.co2  46  ASP46      -0.2456
     37  OD2      -42.4330  -40.3750  143.6720 O.co2  46  ASP46      -0.2456
     38  N        -47.5120  -43.0560  146.2920 N.3    48  TYR48      -0.1241
     39  CA       -46.9630  -44.2090  146.9890 C.3    48  TYR48       0.1605
     40  C        -48.0850  -45.1730  147.3610 C.2    48  TYR48       0.2264
     41  O        -49.2670  -44.8150  147.3460 O.2    48  TYR48      -0.2867
     42  CB       -46.2080  -43.7610  148.2440 C.3    48  TYR48       0.0534
     43  CG       -44.8430  -43.1430  148.0070 C.ar   48  TYR48      -0.0201
     44  CD1      -44.7030  -41.9360  147.3280 C.ar   48  TYR48      -0.0009
     45  CD2      -43.6900  -43.7640  148.4780 C.ar   48  TYR48      -0.0009
     46  CE1      -43.4450  -41.3740  147.1160 C.ar   48  TYR48       0.0417
     47  CE2      -42.4330  -43.2100  148.2680 C.ar   48  TYR48       0.0417
     48  CZ       -42.3160  -42.0150  147.5930 C.ar   48  TYR48       0.1957
     49  OH       -41.0630  -41.4640  147.4010 O.3    48  TYR48      -0.2866
     50  N        -42.0350  -47.2140  138.9640 N.3    92  ASP92      -0.1239
     51  CA       -40.7260  -47.6820  139.4140 C.3    92  ASP92       0.1674
     52  C        -40.8350  -48.5990  140.6230 C.2    92  ASP92       0.2266
     53  O        -41.9400  -48.9130  141.0780 O.2    92  ASP92      -0.2867
     54  CB       -39.7930  -46.5020  139.7300 C.3    92  ASP92       0.1410
     55  CG       -40.3060  -45.6050  140.8590 C.2    92  ASP92       0.3668
     56  OD1      -41.2230  -46.0060  141.6070 O.co2  92  ASP92      -0.2456
     57  OD2      -39.7770  -44.4820  140.9930 O.co2  92  ASP92      -0.2456
     58  N        -38.1000  -50.2420  144.1640 N.3    94  TRP94      -0.1227
     59  CA       -36.8070  -50.1970  144.8350 C.3    94  TRP94       0.1737
     60  C        -36.8250  -51.1360  146.0310 C.2    94  TRP94       0.2595
     61  O        -37.8760  -51.6280  146.4460 O.2    94  TRP94      -0.2718
     62  CB       -36.4540  -48.7720  145.2780 C.3    94  TRP94       0.0564
     63  CG       -37.3760  -48.2250  146.3360 C.ar   94  TRP94       0.0003
     64  CD1      -37.2150  -48.3010  147.6910 C.ar   94  TRP94       0.0946
     65  CD2      -38.5930  -47.5030  146.1150 C.ar   94  TRP94       0.0152
     66  NE1      -38.2680  -47.6800  148.3310 N.ar   94  TRP94      -0.2442
     67  CE2      -39.1250  -47.1810  147.3830 C.ar   94  TRP94       0.0810
     68  CE3      -39.2870  -47.1020  144.9670 C.ar   94  TRP94       0.0012
     69  CZ2      -40.3090  -46.4780  147.5320 C.ar   94  TRP94       0.0191
     70  CZ3      -40.4660  -46.4030  145.1150 C.ar   94  TRP94       0.0001
     71  CH2      -40.9680  -46.0990  146.3940 C.ar   94  TRP94       0.0015
     72  N        -35.6390  -51.3830  146.5780 N.am   95  ASP95      -0.1960
     73  CA       -35.5170  -51.9870  147.9000 C.3    95  ASP95       0.1840
     74  C        -34.5130  -51.1460  148.6870 C.2    95  ASP95       0.2622
     75  O        -34.1820  -50.0120  148.3150 O.2    95  ASP95      -0.2715
     76  CB       -35.1580  -53.4830  147.8280 C.3    95  ASP95       0.1450
     77  CG       -33.9020  -53.7720  147.0130 C.2    95  ASP95       0.3671
     78  OD1      -32.9460  -52.9670  147.0320 O.co2  95  ASP95      -0.2456
     79  OD2      -33.8690  -54.8380  146.3630 O.co2  95  ASP95      -0.2456
     80  N        -34.0260  -51.6960  149.8040 N.am   96  ALA96      -0.1963
     81  CA       -33.1000  -50.9800  150.6760 C.3    96  ALA96       0.1728
     82  C        -31.7240  -50.7920  150.0580 C.2    96  ALA96       0.2616
     83  O        -30.8740  -50.1380  150.6710 O.2    96  ALA96      -0.2715
     84  CB       -32.9670  -51.7080  152.0150 C.3    96  ALA96       0.0334
     85  N        -31.4850  -51.3310  148.8850 N.am   97  SER97      -0.1950
     86  CA       -30.1950  -51.1850  148.2230 C.3    97  SER97       0.1924
     87  C        -30.3070  -50.6680  146.7950 C.2    97  SER97       0.2314
     88  O        -29.4720  -49.8650  146.3700 O.2    97  SER97      -0.2863
     89  CB       -29.4630  -52.5390  148.2400 C.3    97  SER97       0.2116
     90  OG       -28.0830  -52.3710  147.9820 O.3    97  SER97      -0.2180
     91  N        -32.4250  -49.0030  143.4210 N.3    99  TYR99      -0.1241
     92  CA       -33.5090  -48.3470  142.6910 C.3    99  TYR99       0.1605
     93  C        -33.6210  -49.0540  141.3470 C.2    99  TYR99       0.2264
     94  O        -32.6830  -49.0210  140.5540 O.2    99  TYR99      -0.2867
     95  CB       -33.2320  -46.8550  142.4980 C.3    99  TYR99       0.0534
     96  CG       -34.3420  -46.0950  141.7810 C.ar   99  TYR99      -0.0201
     97  CD1      -35.5920  -45.9360  142.3720 C.ar   99  TYR99      -0.0009
     98  CD2      -34.1370  -45.5340  140.5130 C.ar   99  TYR99      -0.0009
     99  CE1      -36.6140  -45.2420  141.7270 C.ar   99  TYR99       0.0417
    100  CE2      -35.1530  -44.8360  139.8590 C.ar   99  TYR99       0.0417
    101  CZ       -36.3950  -44.6970  140.4800 C.ar   99  TYR99       0.1957
    102  OH       -37.4170  -44.0080  139.8620 O.3    99  TYR99      -0.2866
    103  N        -37.6690  -46.4490  136.5580 N.3   102  LEU102     -0.1245
    104  CA       -38.9610  -46.3820  135.8770 C.3   102  LEU102      0.1561
    105  C        -38.9210  -47.3670  134.7160 C.2   102  LEU102      0.2260
    106  O        -38.4920  -47.0460  133.5990 O.2   102  LEU102     -0.2867
    107  CB       -39.2470  -44.9600  135.4050 C.3   102  LEU102      0.0270
    108  CG       -39.2290  -43.8680  136.4830 C.3   102  LEU102      0.0019
    109  CD1      -39.0420  -42.4930  135.8420 C.3   102  LEU102      0.0001
    110  CD2      -40.5280  -43.9030  137.2780 C.3   102  LEU102      0.0001
@<TRIPOS>BOND
     1   106   105    2
     2   105   104    1
     3   107   104    1
     4   107   108    1
     5    16    17    1
     6   109   108    1
     7   104   103    1
     8    11    10    2
     9   108   110    1
    10    17    18    1
    11    17    20    1
    12    10     9    1
    13    18    19    2
    14    20    21    1
    15    12     9    1
    16    12    13    1
    17     9     8    1
    18    22    21   ar
    19    22    24   ar
    20    21    23   ar
    21    50    51    1
    22    13    15   am
    23    13    14    2
    24    51    54    1
    25    51    52    1
    26    24    25   ar
    27    54    55    1
    28   100   101   ar
    29   100    98   ar
    30   102   101    1
    31    23    25   ar
    32    23    26   ar
    33   101    99   ar
    34     4     3    2
    35    98    96   ar
    36    94    93    2
    37    52    53    2
    38    25    27   ar
    39    26    28   ar
    40    55    57   ar
    41    55    56   ar
    42    93    92    1
    43     3     2    1
    44    99    97   ar
    45    96    97   ar
    46    96    95    1
    47    27    29   ar
    48    30    31    1
    49    28    29   ar
    50    31    34    1
    51    31    32    1
    52     6     5    1
    53    34    35    1
    54    95    92    1
    55    92    91    1
    56     2     1    1
    57     2     5    1
    58     5     7    1
    59    32    33    2
    60    35    37   ar
    61    35    36   ar
    62    58    59    1
    63    59    62    1
    64    59    60    1
    65    68    70   ar
    66    68    65   ar
    67    70    71   ar
    68    62    63    1
    69    60    61    2
    70    60    72   am
    71    65    63   ar
    72    65    67   ar
    73    38    39    1
    74    63    64   ar
    75    79    77   ar
    76    88    87    2
    77    71    69   ar
    78    72    73    1
    79    87    86    1
    80    39    40    1
    81    39    42    1
    82    77    78   ar
    83    77    76    1
    84    46    44   ar
    85    46    48   ar
    86    44    43   ar
    87    41    40    2
    88    67    69   ar
    89    67    66   ar
    90    49    48    1
    91    48    47   ar
    92    64    66   ar
    93    76    73    1
    94    73    74    1
    95    90    89    1
    96    43    42    1
    97    43    45   ar
    98    86    89    1
    99    86    85    1
   100    47    45   ar
   101    75    74    2
   102    74    80   am
   103    85    82   am
   104    80    81    1
   105    82    83    2
   106    82    81    1
   107    81    84    1
