@<TRIPOS>MOLECULE
tmp/5dtjB00.pdb
 161 159 0 0 0
SMALL
GASTEIGER

@<TRIPOS>ATOM
      1  N         28.3930   10.4690  -45.8100 N.3    69  TYR69      -0.1241
      2  CA        28.6130   11.5170  -44.8100 C.3    69  TYR69       0.1605
      3  C         30.0840   11.5710  -44.3830 C.2    69  TYR69       0.2264
      4  O         30.7500   10.5340  -44.2980 O.2    69  TYR69      -0.2867
      5  CB        27.7140   11.2690  -43.6010 C.3    69  TYR69       0.0534
      6  CG        27.9170   12.2090  -42.4410 C.ar   69  TYR69      -0.0201
      7  CD1       27.3570   13.4800  -42.4470 C.ar   69  TYR69      -0.0009
      8  CD2       28.6420   11.8180  -41.3180 C.ar   69  TYR69      -0.0009
      9  CE1       27.5290   14.3490  -41.3750 C.ar   69  TYR69       0.0417
     10  CE2       28.8240   12.6820  -40.2420 C.ar   69  TYR69       0.0417
     11  CZ        28.2620   13.9480  -40.2760 C.ar   69  TYR69       0.1957
     12  OH        28.4320   14.8150  -39.2140 O.3    69  TYR69      -0.2866
     13  N         28.5820    1.8020  -40.0330 N.3   119  GLY119     -0.1225
     14  CA        27.1720    2.0470  -39.7800 C.3   119  GLY119      0.1811
     15  C         26.2110    2.0600  -40.9480 C.2   119  GLY119      0.2280
     16  O         25.1120    2.6090  -40.8470 O.2   119  GLY119     -0.2866
     17  N         26.5250    3.8630  -43.3880 N.3   121  TYR121     -0.1241
     18  CA        26.4110    5.2480  -43.8320 C.3   121  TYR121      0.1605
     19  C         27.7710    5.8000  -44.2230 C.2   121  TYR121      0.2264
     20  O         27.8890    6.9690  -44.5860 O.2   121  TYR121     -0.2867
     21  CB        25.7790    6.1310  -42.7440 C.3   121  TYR121      0.0534
     22  CG        26.6650    6.4380  -41.5450 C.ar  121  TYR121     -0.0201
     23  CD1       27.5940    7.4770  -41.5880 C.ar  121  TYR121     -0.0009
     24  CD2       26.5490    5.7150  -40.3540 C.ar  121  TYR121     -0.0009
     25  CE1       28.3990    7.7670  -40.5010 C.ar  121  TYR121      0.0417
     26  CE2       27.3520    6.0070  -39.2510 C.ar  121  TYR121      0.0417
     27  CZ        28.2730    7.0340  -39.3390 C.ar  121  TYR121      0.1957
     28  OH        29.0850    7.3380  -38.2760 O.3   121  TYR121     -0.2866
     29  N         19.9220   -2.3390  -34.3890 N.3   232  TRP232     -0.1241
     30  CA        20.2760   -1.3230  -35.3820 C.3   232  TRP232      0.1605
     31  C         20.5670   -1.8060  -36.8160 C.2   232  TRP232      0.2264
     32  O         20.5230   -1.0100  -37.7440 O.2   232  TRP232     -0.2867
     33  CB        21.4820   -0.5380  -34.8890 C.3   232  TRP232      0.0550
     34  CG        22.6670   -1.3830  -34.5930 C.ar  232  TRP232      0.0003
     35  CD1       23.0370   -1.8720  -33.3820 C.ar  232  TRP232      0.0946
     36  CD2       23.6600   -1.8200  -35.5230 C.ar  232  TRP232      0.0152
     37  NE1       24.1960   -2.5970  -33.4960 N.ar  232  TRP232     -0.2442
     38  CE2       24.5990   -2.5850  -34.8000 C.ar  232  TRP232      0.0810
     39  CE3       23.8430   -1.6510  -36.8990 C.ar  232  TRP232      0.0012
     40  CZ2       25.7040   -3.1730  -35.4010 C.ar  232  TRP232      0.0191
     41  CZ3       24.9430   -2.2420  -37.5010 C.ar  232  TRP232      0.0001
     42  CH2       25.8620   -2.9900  -36.7490 C.ar  232  TRP232      0.0015
     43  N         22.6180   13.2730  -48.7640 N.3   272  VAL272     -0.1231
     44  CA        23.4340   13.1460  -47.5610 C.3   272  VAL272      0.1692
     45  C         23.0600   14.1800  -46.4700 C.2   272  VAL272      0.2592
     46  O         23.0490   13.8440  -45.2840 O.2   272  VAL272     -0.2718
     47  CB        24.9460   13.2580  -47.9210 C.3   272  VAL272      0.0266
     48  CG1       25.8090   13.5530  -46.6940 C.3   272  VAL272      0.0020
     49  CG2       25.4100   11.9830  -48.6090 C.3   272  VAL272      0.0020
     50  N         22.7270   15.4090  -46.8700 N.am  273  ASP273     -0.1974
     51  CA        22.3880   16.4870  -45.9270 C.3   273  ASP273      0.1709
     52  C         21.1230   16.2040  -45.0950 C.2   273  ASP273      0.2293
     53  O         21.0590   16.5330  -43.9070 O.2   273  ASP273     -0.2864
     54  CB        22.2170   17.8160  -46.6840 C.3   273  ASP273      0.1436
     55  CG        23.5480   18.4580  -47.0660 C.2   273  ASP273      0.3671
     56  OD1       24.5900   17.9580  -46.6130 O.co2 273  ASP273     -0.2456
     57  OD2       23.5630   19.4710  -47.8030 O.co2 273  ASP273     -0.2456
     58  N         19.7940   13.0910  -44.8710 N.3   275  GLU275     -0.1231
     59  CA        19.9190   11.6720  -44.5570 C.3   275  GLU275      0.1699
     60  C         19.4640   11.3330  -43.1280 C.2   275  GLU275      0.2592
     61  O         18.7450   10.3550  -42.8910 O.2   275  GLU275     -0.2718
     62  CB        21.3850   11.2750  -44.7640 C.3   275  GLU275      0.0402
     63  CG        21.7150    9.8030  -44.7470 C.3   275  GLU275      0.1161
     64  CD        23.0540    9.5250  -45.4170 C.2   275  GLU275      0.3649
     65  OE1       24.1020    9.8530  -44.8090 O.co2 275  GLU275     -0.2457
     66  OE2       23.0450    9.0040  -46.5690 O.co2 275  GLU275     -0.2457
     67  N         19.8300   12.1670  -42.1790 N.am  276  TRP276     -0.1976
     68  CA        19.6260   11.8290  -40.7980 C.3   276  TRP276      0.1640
     69  C         18.4910   12.5600  -40.0980 C.2   276  TRP276      0.2290
     70  O         18.0480   12.1360  -39.0610 O.2   276  TRP276     -0.2864
     71  CB        20.9200   12.0780  -40.0580 C.3   276  TRP276      0.0576
     72  CG        21.2520   11.0810  -39.0300 C.ar  276  TRP276      0.0006
     73  CD1       20.8850    9.7860  -39.0010 C.ar  276  TRP276      0.0946
     74  CD2       22.0280   11.3040  -37.8670 C.ar  276  TRP276      0.0152
     75  NE1       21.3790    9.1800  -37.8850 N.ar  276  TRP276     -0.2442
     76  CE2       22.0880   10.0990  -37.1710 C.ar  276  TRP276      0.0810
     77  CE3       22.6720   12.4140  -37.3430 C.ar  276  TRP276      0.0012
     78  CZ2       22.7590    9.9700  -35.9890 C.ar  276  TRP276      0.0191
     79  CZ3       23.3390   12.2850  -36.1790 C.ar  276  TRP276      0.0001
     80  CH2       23.3820   11.0770  -35.5060 C.ar  276  TRP276      0.0015
     81  N         19.4600    8.8080  -31.9540 N.3   284  ILE284     -0.1231
     82  CA        20.7900    9.2280  -32.3820 C.3   284  ILE284      0.1692
     83  C         21.7520    8.0300  -32.4800 C.2   284  ILE284      0.2592
     84  O         22.6800    8.0430  -33.2870 O.2   284  ILE284     -0.2718
     85  CB        21.3660   10.3170  -31.4390 C.3   284  ILE284      0.0266
     86  CG1       22.8430   10.5830  -31.7410 C.3   284  ILE284      0.0019
     87  CG2       21.1990    9.9260  -29.9990 C.3   284  ILE284      0.0020
     88  CD1       23.3350   11.9290  -31.2610 C.3   284  ILE284      0.0001
     89  N         21.5200    6.9870  -31.6820 N.am  285  PHE285     -0.1962
     90  CA        22.3000    5.7520  -31.7970 C.3   285  PHE285      0.1771
     91  C         21.6050    4.7790  -32.7610 C.2   285  PHE285      0.2619
     92  O         21.4430    3.5880  -32.4730 O.2   285  PHE285     -0.2715
     93  CB        22.5010    5.0940  -30.4290 C.3   285  PHE285      0.0574
     94  CG        23.4520    5.8330  -29.5090 C.ar  285  PHE285     -0.0200
     95  CD1       24.4980    6.5860  -30.0130 C.ar  285  PHE285     -0.0042
     96  CD2       23.2980    5.7590  -28.1290 C.ar  285  PHE285     -0.0042
     97  CE1       25.3690    7.2550  -29.1610 C.ar  285  PHE285     -0.0003
     98  CE2       24.1660    6.4220  -27.2800 C.ar  285  PHE285     -0.0003
     99  CZ        25.2020    7.1670  -27.8010 C.ar  285  PHE285     -0.0000
    100  N         21.2160    5.3040  -33.9160 N.am  286  ARG286     -0.1963
    101  CA        20.3830    4.5880  -34.8660 C.3   286  ARG286      0.1729
    102  C         20.4770    5.2880  -36.2430 C.2   286  ARG286      0.2616
    103  O         20.3100    6.5010  -36.3420 O.2   286  ARG286     -0.2715
    104  CB        18.9390    4.5410  -34.3440 C.3   286  ARG286      0.0348
    105  CG        18.0590    3.4410  -34.9120 C.3   286  ARG286      0.0492
    106  CD        17.5430    2.5380  -33.8050 C.3   286  ARG286      0.2205
    107  NE        18.6320    2.1720  -32.9010 N.pl3 286  ARG286     -0.0865
    108  CZ        18.4750    1.5350  -31.7420 C.cat 286  ARG286      0.5346
    109  NH1       17.2570    1.1810  -31.3430 N.pl3 286  ARG286      0.1354
    110  NH2       19.5360    1.2530  -30.9880 N.pl3 286  ARG286      0.1354
    111  N         20.7690    4.5430  -37.3020 N.am  287  PHE287     -0.1974
    112  CA        20.9050    5.1810  -38.6090 C.3   287  PHE287      0.1639
    113  C         19.7270    4.8960  -39.5400 C.2   287  PHE287      0.2290
    114  O         19.1720    3.7960  -39.5390 O.2   287  PHE287     -0.2864
    115  CB        22.2020    4.7600  -39.3000 C.3   287  PHE287      0.0560
    116  CG        22.3500    5.3410  -40.6660 C.ar  287  PHE287     -0.0200
    117  CD1       22.5220    6.7040  -40.8290 C.ar  287  PHE287     -0.0042
    118  CD2       22.2760    4.5400  -41.7940 C.ar  287  PHE287     -0.0042
    119  CE1       22.6380    7.2530  -42.0960 C.ar  287  PHE287     -0.0003
    120  CE2       22.3910    5.0900  -43.0610 C.ar  287  PHE287     -0.0003
    121  CZ        22.5630    6.4450  -43.2070 C.ar  287  PHE287     -0.0000
    122  N         19.5100    1.2610  -43.6250 N.3   290  VAL290     -0.1245
    123  CA        20.2510    0.0640  -43.2630 C.3   290  VAL290      0.1561
    124  C         19.5220   -1.0700  -43.9710 C.2   290  VAL290      0.2260
    125  O         18.4640   -0.8280  -44.5810 O.2   290  VAL290     -0.2867
    126  CB        20.3120   -0.1340  -41.7060 C.3   290  VAL290      0.0252
    127  CG1       21.0190    1.0400  -41.0270 C.3   290  VAL290      0.0019
    128  CG2       18.9240   -0.3020  -41.1370 C.3   290  VAL290      0.0019
    129  N         30.4850    5.4590  -28.7240 N.3   328  PHE328     -0.1241
    130  CA        29.2530    6.1150  -29.0110 C.3   328  PHE328      0.1605
    131  C         28.8470    7.2400  -28.1000 C.2   328  PHE328      0.2264
    132  O         28.0330    8.0520  -28.4610 O.2   328  PHE328     -0.2867
    133  CB        28.2020    5.0820  -29.2710 C.3   328  PHE328      0.0534
    134  CG        28.6930    3.9990  -30.1540 C.ar  328  PHE328     -0.0203
    135  CD1       29.1370    2.8310  -29.6260 C.ar  328  PHE328     -0.0042
    136  CD2       28.7770    4.1890  -31.4980 C.ar  328  PHE328     -0.0042
    137  CE1       29.6030    1.8350  -30.4230 C.ar  328  PHE328     -0.0003
    138  CE2       29.2370    3.1980  -32.3080 C.ar  328  PHE328     -0.0003
    139  CZ        29.6530    2.0180  -31.7670 C.ar  328  PHE328     -0.0000
    140  N         25.3020    1.0150  -23.5560 N.3   392  VAL392     -0.1245
    141  CA        25.2450    1.1860  -25.0010 C.3   392  VAL392      0.1561
    142  C         25.9260    0.0160  -25.6890 C.2   392  VAL392      0.2260
    143  O         25.4180   -0.5210  -26.6800 O.2   392  VAL392     -0.2867
    144  CB        25.8970    2.5150  -25.4390 C.3   392  VAL392      0.0252
    145  CG1       26.3070    2.4660  -26.9030 C.3   392  VAL392      0.0019
    146  CG2       24.9490    3.6820  -25.1600 C.3   392  VAL392      0.0019
    147  N         23.8730   -2.9760  -27.8820 N.3   396  ASN396     -0.1225
    148  CA        24.0090   -2.8850  -29.3330 C.3   396  ASN396      0.1785
    149  C         25.0200   -3.8420  -29.9630 C.2   396  ASN396      0.2597
    150  O         24.9120   -4.1390  -31.1460 O.2   396  ASN396     -0.2718
    151  CB        24.3550   -1.4520  -29.7300 C.3   396  ASN396      0.1169
    152  CG        23.1930   -0.5000  -29.5260 C.2   396  ASN396      0.2627
    153  OD1       22.2610   -0.4660  -30.3260 O.2   396  ASN396     -0.2716
    154  ND2       23.2460    0.2870  -28.4630 N.am  396  ASN396     -0.0877
    155  N         25.9860   -4.3310  -29.1860 N.am  397  VAL397     -0.1980
    156  CA        26.9890   -5.2470  -29.7210 C.3   397  VAL397      0.1595
    157  C         27.1140   -6.5440  -28.9070 C.2   397  VAL397      0.2287
    158  O         26.7580   -7.6290  -29.3950 O.2   397  VAL397     -0.2864
    159  CB        28.3880   -4.5860  -29.7860 C.3   397  VAL397      0.0276
    160  CG1       29.3540   -5.4440  -30.5770 C.3   397  VAL397      0.0022
    161  CG2       28.3220   -3.1560  -30.3520 C.3   397  VAL397      0.0022
@<TRIPOS>BOND
     1    43    44    1
     2    49    47    1
     3    47    44    1
     4    47    48    1
     5    57    55   ar
     6    44    45    1
     7    55    54    1
     8    55    56   ar
     9    50    45   am
    10    50    51    1
    11    54    51    1
    12    66    64   ar
    13    45    46    2
    14    51    52    1
    15     1     2    1
    16    64    65   ar
    17    64    63    1
    18    52    53    2
    19    58    59    1
    20     2     3    1
    21     2     5    1
    22    62    63    1
    23    62    59    1
    24    20    19    2
    25   125   124    2
    26    59    60    1
    27     3     4    2
    28    19    18    1
    29   124   123    1
    30    18    17    1
    31    18    21    1
    32   122   123    1
    33     5     6    1
    34   123   126    1
    35   121   120   ar
    36   121   119   ar
    37    60    61    2
    38    60    67   am
    39   120   118   ar
    40    21    22    1
    41     7     6   ar
    42     7     9   ar
    43     6     8   ar
    44    67    68    1
    45   119   117   ar
    46   118   116   ar
    47   126   128    1
    48   126   127    1
    49    23    22   ar
    50    23    25   ar
    51    22    24   ar
    52     9    11   ar
    53     8    10   ar
    54    15    16    2
    55    15    14    1
    56   117   116   ar
    57    68    69    1
    58    68    71    1
    59   116   115    1
    60    25    27   ar
    61    24    26   ar
    62    11    10   ar
    63    11    12    1
    64    69    70    2
    65    71    72    1
    66    13    14    1
    67   113   114    2
    68   113   112    1
    69    27    26   ar
    70    27    28    1
    71   115   112    1
    72    72    73   ar
    73    72    74   ar
    74    73    75   ar
    75   112   111    1
    76    75    76   ar
    77    74    77   ar
    78    74    76   ar
    79    32    31    2
    80    41    39   ar
    81    41    42   ar
    82    77    79   ar
    83   111   102   am
    84    76    78   ar
    85    39    36   ar
    86    31    30    1
    87    42    40   ar
    88   103   102    2
    89   102   101    1
    90    79    80   ar
    91    78    80   ar
    92    36    38   ar
    93    36    34   ar
    94    40    38   ar
    95    30    33    1
    96    30    29    1
    97   105   104    1
    98   105   106    1
    99    33    34    1
   100   101   104    1
   101   101   100    1
   102    38    37   ar
   103    34    35   ar
   104   100    91   am
   105   106   107    1
   106    37    35   ar
   107    84    83    2
   108   107   108    2
   109    91    92    2
   110    91    90    1
   111    83    82    1
   112    83    89   am
   113    82    81    1
   114    82    85    1
   115   138   139   ar
   116   138   136   ar
   117    90    89    1
   118    90    93    1
   119   139   137   ar
   120   108   109    1
   121   108   110    1
   122    86    85    1
   123    86    88    1
   124   136   134   ar
   125    85    87    1
   126   150   149    2
   127   160   159    1
   128    93    94    1
   129   137   135   ar
   130   161   159    1
   131   153   152    2
   132   134   135   ar
   133   134   133    1
   134    95    94   ar
   135    95    97   ar
   136   149   148    1
   137   149   155   am
   138   159   156    1
   139   151   152    1
   140   151   148    1
   141   156   155    1
   142   156   157    1
   143   152   154   am
   144    94    96   ar
   145   158   157    2
   146   148   147    1
   147   133   130    1
   148    97    99   ar
   149   130   129    1
   150   130   131    1
   151   132   131    2
   152    96    98   ar
   153    99    98   ar
   154   145   144    1
   155   143   142    2
   156   142   141    1
   157   144   146    1
   158   144   141    1
   159   141   140    1
