@<TRIPOS>MOLECULE
tmp/5dtjB01.pdb
 163 163 0 0 0
SMALL
GASTEIGER

@<TRIPOS>ATOM
      1  N         28.3930   10.4690  -45.8100 N.3    69  TYR69      -0.1241
      2  CA        28.6130   11.5170  -44.8100 C.3    69  TYR69       0.1605
      3  C         30.0840   11.5710  -44.3830 C.2    69  TYR69       0.2264
      4  O         30.7500   10.5340  -44.2980 O.2    69  TYR69      -0.2867
      5  CB        27.7140   11.2690  -43.6010 C.3    69  TYR69       0.0534
      6  CG        27.9170   12.2090  -42.4410 C.ar   69  TYR69      -0.0201
      7  CD1       27.3570   13.4800  -42.4470 C.ar   69  TYR69      -0.0009
      8  CD2       28.6420   11.8180  -41.3180 C.ar   69  TYR69      -0.0009
      9  CE1       27.5290   14.3490  -41.3750 C.ar   69  TYR69       0.0417
     10  CE2       28.8240   12.6820  -40.2420 C.ar   69  TYR69       0.0417
     11  CZ        28.2620   13.9480  -40.2760 C.ar   69  TYR69       0.1957
     12  OH        28.4320   14.8150  -39.2140 O.3    69  TYR69      -0.2866
     13  N         32.5920   12.8070  -41.2860 N.3    71  ASP71      -0.1239
     14  CA        32.5680   13.2170  -39.8920 C.3    71  ASP71       0.1674
     15  C         33.3920   14.4660  -39.5770 C.2    71  ASP71       0.2266
     16  O         34.5370   14.6140  -40.0270 O.2    71  ASP71      -0.2867
     17  CB        33.0410   12.0800  -38.9980 C.3    71  ASP71       0.1410
     18  CG        32.6220   12.2890  -37.5800 C.2    71  ASP71       0.3668
     19  OD1       31.4090   12.1160  -37.3150 O.co2  71  ASP71      -0.2456
     20  OD2       33.4850   12.6760  -36.7580 O.co2  71  ASP71      -0.2456
     21  N         38.9780    7.1010  -39.7480 N.3    83  TRP83      -0.1241
     22  CA        37.8280    6.3890  -40.3280 C.3    83  TRP83       0.1605
     23  C         37.2080    7.1670  -41.4820 C.2    83  TRP83       0.2264
     24  O         36.2870    6.6890  -42.1490 O.2    83  TRP83      -0.2867
     25  CB        36.7520    6.1240  -39.2680 C.3    83  TRP83       0.0550
     26  CG        37.2720    5.4210  -38.0650 C.ar   83  TRP83       0.0003
     27  CD1       37.5750    5.9790  -36.8620 C.ar   83  TRP83       0.0946
     28  CD2       37.5760    4.0260  -37.9520 C.ar   83  TRP83       0.0152
     29  NE1       38.0440    5.0210  -36.0040 N.ar   83  TRP83      -0.2442
     30  CE2       38.0550    3.8120  -36.6430 C.ar   83  TRP83       0.0810
     31  CE3       37.4840    2.9370  -38.8290 C.ar   83  TRP83       0.0012
     32  CZ2       38.4480    2.5520  -36.1830 C.ar   83  TRP83       0.0191
     33  CZ3       37.8740    1.6820  -38.3730 C.ar   83  TRP83       0.0001
     34  CH2       38.3490    1.5020  -37.0560 C.ar   83  TRP83       0.0015
     35  N         32.9580   -1.7070  -41.9890 N.3   117  GLY117     -0.1210
     36  CA        31.7960   -1.1480  -41.3370 C.3   117  GLY117      0.1956
     37  C         31.8590    0.3640  -41.3640 C.2   117  GLY117      0.2612
     38  O         32.5930    0.9460  -42.1600 O.2   117  GLY117     -0.2717
     39  N         31.1080    0.9970  -40.4710 N.am  118  GLY118     -0.1956
     40  CA        30.8660    2.4240  -40.5460 C.3   118  GLY118      0.1869
     41  C         29.3710    2.7020  -40.6230 C.2   118  GLY118      0.2309
     42  O         28.9380    3.6910  -41.2340 O.2   118  GLY118     -0.2863
     43  N         26.5250    3.8630  -43.3880 N.3   121  TYR121     -0.1227
     44  CA        26.4110    5.2480  -43.8320 C.3   121  TYR121      0.1736
     45  C         27.7710    5.8000  -44.2230 C.2   121  TYR121      0.2596
     46  O         27.8890    6.9690  -44.5860 O.2   121  TYR121     -0.2718
     47  CB        25.7790    6.1310  -42.7440 C.3   121  TYR121      0.0548
     48  CG        26.6650    6.4380  -41.5450 C.ar  121  TYR121     -0.0200
     49  CD1       27.5940    7.4770  -41.5880 C.ar  121  TYR121     -0.0009
     50  CD2       26.5490    5.7150  -40.3540 C.ar  121  TYR121     -0.0009
     51  CE1       28.3990    7.7670  -40.5010 C.ar  121  TYR121      0.0417
     52  CE2       27.3520    6.0070  -39.2510 C.ar  121  TYR121      0.0417
     53  CZ        28.2730    7.0340  -39.3390 C.ar  121  TYR121      0.1957
     54  OH        29.0850    7.3380  -38.2760 O.3   121  TYR121     -0.2866
     55  N         28.7970    4.9610  -44.1410 N.am  122  SER122     -0.1952
     56  CA        30.1720    5.4090  -44.3440 C.3   122  SER122      0.1924
     57  C         31.1090    4.2150  -44.4290 C.2   122  SER122      0.2314
     58  O         30.7030    3.0830  -44.1880 O.2   122  SER122     -0.2863
     59  CB        30.6220    6.3460  -43.2100 C.3   122  SER122      0.2116
     60  OG        30.4500    5.7480  -41.9240 O.3   122  SER122     -0.2180
     61  N         42.7810   -1.0800  -43.0660 N.3   130  TYR130     -0.1241
     62  CA        42.3170   -2.2650  -43.7790 C.3   130  TYR130      0.1605
     63  C         43.3860   -2.7470  -44.7580 C.2   130  TYR130      0.2264
     64  O         43.1030   -3.5470  -45.6470 O.2   130  TYR130     -0.2867
     65  CB        41.0000   -1.9970  -44.5200 C.3   130  TYR130      0.0534
     66  CG        39.8640   -1.4100  -43.6850 C.ar  130  TYR130     -0.0201
     67  CD1       39.7360   -1.6700  -42.3120 C.ar  130  TYR130     -0.0009
     68  CD2       38.9160   -0.5880  -44.2780 C.ar  130  TYR130     -0.0009
     69  CE1       38.6860   -1.1060  -41.5650 C.ar  130  TYR130      0.0417
     70  CE2       37.8770   -0.0320  -43.5450 C.ar  130  TYR130      0.0417
     71  CZ        37.7630   -0.2850  -42.2030 C.ar  130  TYR130      0.1957
     72  OH        36.7160    0.2960  -41.5310 O.3   130  TYR130     -0.2866
     73  N         33.8190   -5.9230  -39.6520 N.3   199  GLU199     -0.1245
     74  CA        33.6640   -5.2890  -38.3530 C.3   199  GLU199      0.1567
     75  C         32.4120   -4.4010  -38.2840 C.2   199  GLU199      0.2260
     76  O         32.1430   -3.6160  -39.1920 O.2   199  GLU199     -0.2867
     77  CB        34.9080   -4.4580  -38.0250 C.3   199  GLU199      0.0388
     78  CG        35.0690   -4.1600  -36.5580 C.3   199  GLU199      0.1160
     79  CD        34.5250   -2.8020  -36.1550 C.2   199  GLU199      0.3649
     80  OE1       34.1390   -2.0430  -37.0700 O.co2 199  GLU199     -0.2457
     81  OE2       34.4910   -2.5120  -34.9200 O.co2 199  GLU199     -0.2457
     82  N         19.8300   12.1670  -42.1790 N.3   276  TRP276     -0.1241
     83  CA        19.6260   11.8290  -40.7980 C.3   276  TRP276      0.1605
     84  C         18.4910   12.5600  -40.0980 C.2   276  TRP276      0.2264
     85  O         18.0480   12.1360  -39.0610 O.2   276  TRP276     -0.2867
     86  CB        20.9200   12.0780  -40.0580 C.3   276  TRP276      0.0550
     87  CG        21.2520   11.0810  -39.0300 C.ar  276  TRP276      0.0003
     88  CD1       20.8850    9.7860  -39.0010 C.ar  276  TRP276      0.0946
     89  CD2       22.0280   11.3040  -37.8670 C.ar  276  TRP276      0.0152
     90  NE1       21.3790    9.1800  -37.8850 N.ar  276  TRP276     -0.2442
     91  CE2       22.0880   10.0990  -37.1710 C.ar  276  TRP276      0.0810
     92  CE3       22.6720   12.4140  -37.3430 C.ar  276  TRP276      0.0012
     93  CZ2       22.7590    9.9700  -35.9890 C.ar  276  TRP276      0.0191
     94  CZ3       23.3390   12.2850  -36.1790 C.ar  276  TRP276      0.0001
     95  CH2       23.3820   11.0770  -35.5060 C.ar  276  TRP276      0.0015
     96  N         19.4600    8.8080  -31.9540 N.3   284  ILE284     -0.1231
     97  CA        20.7900    9.2280  -32.3820 C.3   284  ILE284      0.1692
     98  C         21.7520    8.0300  -32.4800 C.2   284  ILE284      0.2592
     99  O         22.6800    8.0430  -33.2870 O.2   284  ILE284     -0.2718
    100  CB        21.3660   10.3170  -31.4390 C.3   284  ILE284      0.0266
    101  CG1       22.8430   10.5830  -31.7410 C.3   284  ILE284      0.0019
    102  CG2       21.1990    9.9260  -29.9990 C.3   284  ILE284      0.0020
    103  CD1       23.3350   11.9290  -31.2610 C.3   284  ILE284      0.0001
    104  N         21.5200    6.9870  -31.6820 N.am  285  PHE285     -0.1976
    105  CA        22.3000    5.7520  -31.7970 C.3   285  PHE285      0.1639
    106  C         21.6050    4.7790  -32.7610 C.2   285  PHE285      0.2290
    107  O         21.4430    3.5880  -32.4730 O.2   285  PHE285     -0.2864
    108  CB        22.5010    5.0940  -30.4290 C.3   285  PHE285      0.0560
    109  CG        23.4520    5.8330  -29.5090 C.ar  285  PHE285     -0.0200
    110  CD1       24.4980    6.5860  -30.0130 C.ar  285  PHE285     -0.0042
    111  CD2       23.2980    5.7590  -28.1290 C.ar  285  PHE285     -0.0042
    112  CE1       25.3690    7.2550  -29.1610 C.ar  285  PHE285     -0.0003
    113  CE2       24.1660    6.4220  -27.2800 C.ar  285  PHE285     -0.0003
    114  CZ        25.2020    7.1670  -27.8010 C.ar  285  PHE285     -0.0000
    115  N         33.0940    4.8740  -27.9070 N.3   327  TYR327     -0.1227
    116  CA        32.8810    5.7400  -29.0730 C.3   327  TYR327      0.1736
    117  C         31.4480    6.1960  -29.1300 C.2   327  TYR327      0.2595
    118  O         31.1480    7.2810  -29.6060 O.2   327  TYR327     -0.2718
    119  CB        33.1470    4.9000  -30.3270 C.3   327  TYR327      0.0548
    120  CG        33.7510    5.5700  -31.5440 C.ar  327  TYR327     -0.0200
    121  CD1       32.9510    5.9800  -32.6000 C.ar  327  TYR327     -0.0009
    122  CD2       35.1270    5.7120  -31.6770 C.ar  327  TYR327     -0.0009
    123  CE1       33.4990    6.5510  -33.7250 C.ar  327  TYR327      0.0417
    124  CE2       35.6790    6.2800  -32.8020 C.ar  327  TYR327      0.0417
    125  CZ        34.8560    6.6930  -33.8160 C.ar  327  TYR327      0.1957
    126  OH        35.3930    7.2560  -34.9310 O.3   327  TYR327     -0.2866
    127  N         30.4850    5.4590  -28.7240 N.am  328  PHE328     -0.1976
    128  CA        29.2530    6.1150  -29.0110 C.3   328  PHE328      0.1639
    129  C         28.8470    7.2400  -28.1000 C.2   328  PHE328      0.2290
    130  O         28.0330    8.0520  -28.4610 O.2   328  PHE328     -0.2864
    131  CB        28.2020    5.0820  -29.2710 C.3   328  PHE328      0.0560
    132  CG        28.6930    3.9990  -30.1540 C.ar  328  PHE328     -0.0200
    133  CD1       29.1370    2.8310  -29.6260 C.ar  328  PHE328     -0.0042
    134  CD2       28.7770    4.1890  -31.4980 C.ar  328  PHE328     -0.0042
    135  CE1       29.6030    1.8350  -30.4230 C.ar  328  PHE328     -0.0003
    136  CE2       29.2370    3.1980  -32.3080 C.ar  328  PHE328     -0.0003
    137  CZ        29.6530    2.0180  -31.7670 C.ar  328  PHE328     -0.0000
    138  N         29.4070   11.2270  -28.9720 N.3   331  TYR331     -0.1241
    139  CA        28.5740   11.6970  -30.0750 C.3   331  TYR331      0.1605
    140  C         27.1200   11.9610  -29.6750 C.2   331  TYR331      0.2264
    141  O         26.4470   12.7900  -30.2830 O.2   331  TYR331     -0.2867
    142  CB        28.6040   10.6830  -31.2310 C.3   331  TYR331      0.0534
    143  CG        29.8790   10.7070  -32.0460 C.ar  331  TYR331     -0.0201
    144  CD1       30.0120   11.5600  -33.1420 C.ar  331  TYR331     -0.0009
    145  CD2       30.9500    9.8780  -31.7250 C.ar  331  TYR331     -0.0009
    146  CE1       31.1830   11.5860  -33.9010 C.ar  331  TYR331      0.0417
    147  CE2       32.1290    9.9000  -32.4700 C.ar  331  TYR331      0.0417
    148  CZ        32.2380   10.7570  -33.5570 C.ar  331  TYR331      0.1957
    149  OH        33.4000   10.7890  -34.2950 O.3   331  TYR331     -0.2866
    150  N         35.3620    0.5540  -29.4620 N.3   437  HIS437     -0.1226
    151  CA        34.8660   -0.0340  -30.7030 C.3   437  HIS437      0.1752
    152  C         35.7510    0.2640  -31.9230 C.2   437  HIS437      0.2596
    153  O         36.0010    1.4200  -32.2480 O.2   437  HIS437     -0.2718
    154  CB        33.4510    0.4770  -30.9490 C.3   437  HIS437      0.0759
    155  CG        32.8170   -0.0650  -32.1870 C.ar  437  HIS437      0.0818
    156  ND1       32.2190   -1.3020  -32.2320 N.ar  437  HIS437     -0.2268
    157  CD2       32.6770    0.4710  -33.4210 C.ar  437  HIS437      0.1154
    158  CE1       31.7340   -1.5090  -33.4420 C.ar  437  HIS437      0.1986
    159  NE2       31.9970   -0.4480  -34.1810 N.ar  437  HIS437     -0.2212
    160  N         36.2350   -0.7820  -32.5870 N.am  438  GLY438     -0.1957
    161  CA        37.0150   -0.6100  -33.8000 C.3   438  GLY438      0.1869
    162  C         38.5250   -0.7630  -33.6890 C.2   438  GLY438      0.2309
    163  O         39.2160   -0.9930  -34.6950 O.2   438  GLY438     -0.2863
@<TRIPOS>BOND
     1     1     2    1
     2    64    63    2
     3     2     3    1
     4     2     5    1
     5    63    62    1
     6    46    45    2
     7    65    62    1
     8    65    66    1
     9    57    56    1
    10    57    58    2
    11     3     4    2
    12    56    55    1
    13    56    59    1
    14    68    66   ar
    15    68    70   ar
    16    45    55   am
    17    45    44    1
    18    44    43    1
    19    44    47    1
    20    62    61    1
    21    66    67   ar
    22     5     6    1
    23    70    71   ar
    24    59    60    1
    25    47    48    1
    26     7     6   ar
    27     7     9   ar
    28     6     8   ar
    29    67    69   ar
    30    71    69   ar
    31    71    72    1
    32    82    83    1
    33    38    37    2
    34    24    23    2
    35    35    36    1
    36    49    48   ar
    37    49    51   ar
    38    48    50   ar
    39    23    22    1
    40     9    11   ar
    41    37    36    1
    42    37    39   am
    43     8    10   ar
    44    13    14    1
    45    42    41    2
    46    83    84    1
    47    83    86    1
    48    41    40    1
    49    40    39    1
    50    51    53   ar
    51    50    52   ar
    52    22    21    1
    53    22    25    1
    54    11    10   ar
    55    11    12    1
    56    84    85    2
    57    86    87    1
    58    16    15    2
    59    14    15    1
    60    14    17    1
    61    73    74    1
    62    53    52   ar
    63    53    54    1
    64    25    26    1
    65    76    75    2
    66    87    88   ar
    67    87    89   ar
    68    88    90   ar
    69    17    18    1
    70    31    33   ar
    71    31    28   ar
    72    33    34   ar
    73    74    75    1
    74    74    77    1
    75    26    28   ar
    76    26    27   ar
    77    77    78    1
    78    28    30   ar
    79    90    91   ar
    80    89    92   ar
    81    89    91   ar
    82    18    19   ar
    83    18    20   ar
    84    92    94   ar
    85    91    93   ar
    86    80    79   ar
    87    34    32   ar
    88    27    29   ar
    89    30    32   ar
    90    30    29   ar
    91    78    79    1
    92    94    95   ar
    93    79    81   ar
    94    93    95   ar
    95   126   125    1
    96   163   162    2
    97   149   148    1
    98   159   158   ar
    99   159   157   ar
   100   146   148   ar
   101   146   144   ar
   102   125   123   ar
   103   125   124   ar
   104   161   162    1
   105   161   160    1
   106   123   121   ar
   107   148   147   ar
   108   158   156   ar
   109   157   155   ar
   110    99    98    2
   111   144   143   ar
   112   124   122   ar
   113   106   107    2
   114   106   105    1
   115   121   120   ar
   116   160   152   am
   117    98    97    1
   118    98   104   am
   119   147   145   ar
   120    97    96    1
   121    97   100    1
   122   136   137   ar
   123   136   134   ar
   124   153   152    2
   125   156   155   ar
   126   155   154    1
   127   143   145   ar
   128   143   142    1
   129   152   151    1
   130   105   104    1
   131   105   108    1
   132   137   135   ar
   133   101   100    1
   134   101   103    1
   135   122   120   ar
   136   120   119    1
   137   134   132   ar
   138   100   102    1
   139   142   139    1
   140   154   151    1
   141   151   150    1
   142   108   109    1
   143   135   133   ar
   144   119   116    1
   145   141   140    2
   146   132   133   ar
   147   132   131    1
   148   139   140    1
   149   139   138    1
   150   110   109   ar
   151   110   112   ar
   152   118   117    2
   153   109   111   ar
   154   131   128    1
   155   112   114   ar
   156   117   116    1
   157   117   127   am
   158   116   115    1
   159   128   127    1
   160   128   129    1
   161   130   129    2
   162   111   113   ar
   163   114   113   ar
