@<TRIPOS>MOLECULE
tmp/5dtjA00.pdb
 108 108 0 0 0
SMALL
GASTEIGER

@<TRIPOS>ATOM
      1  N         -0.7530  -23.8170   17.7500 N.3    75  TYR75      -0.1241
      2  CA        -0.4790  -25.0260   16.9800 C.3    75  TYR75       0.1605
      3  C          0.8060  -25.6810   17.4900 C.2    75  TYR75       0.2264
      4  O          1.7670  -24.9840   17.8270 O.2    75  TYR75      -0.2867
      5  CB        -0.3580  -24.6830   15.4800 C.3    75  TYR75       0.0534
      6  CG         0.1830  -25.7980   14.5830 C.ar   75  TYR75      -0.0201
      7  CD1       -0.6670  -26.7480   14.0200 C.ar   75  TYR75      -0.0009
      8  CD2        1.5410  -25.8830   14.2830 C.ar   75  TYR75      -0.0009
      9  CE1       -0.1770  -27.7550   13.2080 C.ar   75  TYR75       0.0417
     10  CE2        2.0410  -26.8900   13.4620 C.ar   75  TYR75       0.0417
     11  CZ         1.1800  -27.8270   12.9320 C.ar   75  TYR75       0.1957
     12  OH         1.6680  -28.8420   12.1260 O.3    75  TYR75      -0.2866
     13  N          3.8060  -28.2110   16.2020 N.3    77  ASP77      -0.1239
     14  CA         4.4360  -28.8980   15.0740 C.3    77  ASP77       0.1674
     15  C          4.6880  -30.3810   15.3130 C.2    77  ASP77       0.2266
     16  O          5.1780  -30.7820   16.3680 O.2    77  ASP77      -0.2867
     17  CB         5.7600  -28.2340   14.7330 C.3    77  ASP77       0.1410
     18  CG         6.2430  -28.5980   13.3580 C.2    77  ASP77       0.3668
     19  OD1        6.7880  -29.7120   13.1830 O.co2  77  ASP77      -0.2456
     20  OD2        6.0630  -27.7680   12.4490 O.co2  77  ASP77      -0.2456
     21  N          5.5180  -32.4240   12.2410 N.3    79  LEU79      -0.1245
     22  CA         6.1310  -32.8700   10.9860 C.3    79  LEU79       0.1561
     23  C          7.2120  -33.9290   11.2480 C.2    79  LEU79       0.2260
     24  O          7.3070  -34.9210   10.5250 O.2    79  LEU79      -0.2867
     25  CB         6.7310  -31.6750   10.2160 C.3    79  LEU79       0.0270
     26  CG         6.8520  -31.7300    8.6740 C.3    79  LEU79       0.0019
     27  CD1        5.4940  -31.5800    7.9640 C.3    79  LEU79       0.0001
     28  CD2        7.8570  -30.7080    8.1140 C.3    79  LEU79       0.0001
     29  N          2.0440  -17.3080   15.3150 N.3   127  TYR127     -0.1241
     30  CA         1.1080  -18.4230   15.5100 C.3   127  TYR127      0.1605
     31  C          1.5980  -19.3630   16.6150 C.2   127  TYR127      0.2264
     32  O          0.9290  -20.3400   16.9480 O.2   127  TYR127     -0.2867
     33  CB         0.8900  -19.2130   14.1930 C.3   127  TYR127      0.0534
     34  CG         2.1200  -19.9630   13.7100 C.ar  127  TYR127     -0.0201
     35  CD1        2.3770  -21.2690   14.1260 C.ar  127  TYR127     -0.0009
     36  CD2        3.0350  -19.3580   12.8570 C.ar  127  TYR127     -0.0009
     37  CE1        3.5080  -21.9430   13.7140 C.ar  127  TYR127      0.0417
     38  CE2        4.1680  -20.0290   12.4330 C.ar  127  TYR127      0.0417
     39  CZ         4.3980  -21.3170   12.8680 C.ar  127  TYR127      0.1957
     40  OH         5.5250  -21.9760   12.4570 O.3   127  TYR127     -0.2866
     41  N         -5.3570  -22.1940   10.0250 N.3   282  TRP282     -0.1241
     42  CA        -4.4670  -22.3190    8.8790 C.3   282  TRP282      0.1605
     43  C         -5.2690  -22.4030    7.5730 C.2   282  TRP282      0.2264
     44  O         -4.8470  -21.9060    6.5210 O.2   282  TRP282     -0.2867
     45  CB        -3.5730  -23.5560    9.0760 C.3   282  TRP282      0.0550
     46  CG        -2.2840  -23.6230    8.2700 C.ar  282  TRP282      0.0003
     47  CD1       -1.6420  -24.7670    7.8330 C.ar  282  TRP282      0.0946
     48  CD2       -1.4790  -22.5250    7.8170 C.ar  282  TRP282      0.0152
     49  NE1       -0.4990  -24.4390    7.1280 N.ar  282  TRP282     -0.2442
     50  CE2       -0.3780  -23.0750    7.1050 C.ar  282  TRP282      0.0810
     51  CE3       -1.5820  -21.1390    7.9310 C.ar  282  TRP282      0.0012
     52  CZ2        0.5980  -22.2850    6.5290 C.ar  282  TRP282      0.0191
     53  CZ3       -0.6250  -20.3710    7.3630 C.ar  282  TRP282      0.0001
     54  CH2        0.4590  -20.9390    6.6650 C.ar  282  TRP282      0.0015
     55  N          1.4750  -21.1120    1.8250 N.3   290  ILE290     -0.1231
     56  CA         2.0510  -21.8720    2.9110 C.3   290  ILE290      0.1692
     57  C          3.1190  -21.0200    3.6150 C.2   290  ILE290      0.2592
     58  O          3.5070  -21.3080    4.7470 O.2   290  ILE290     -0.2718
     59  CB         2.6360  -23.2240    2.3820 C.3   290  ILE290      0.0266
     60  CG1        3.0790  -24.1540    3.5200 C.3   290  ILE290      0.0019
     61  CG2        3.7570  -22.9780    1.4010 C.3   290  ILE290      0.0020
     62  CD1        1.9500  -24.9770    4.1300 C.3   290  ILE290      0.0001
     63  N          3.5680  -19.9500    2.9640 N.am  291  PHE291     -0.1976
     64  CA         4.5540  -19.0570    3.5770 C.3   291  PHE291      0.1639
     65  C          3.9600  -17.7410    4.1260 C.2   291  PHE291      0.2290
     66  O          4.6760  -16.7460    4.2580 O.2   291  PHE291     -0.2864
     67  CB         5.6650  -18.7300    2.5740 C.3   291  PHE291      0.0560
     68  CG         6.6280  -19.8570    2.3330 C.ar  291  PHE291     -0.0200
     69  CD1        6.7280  -20.9030    3.2210 C.ar  291  PHE291     -0.0042
     70  CD2        7.4440  -19.8580    1.2040 C.ar  291  PHE291     -0.0042
     71  CE1        7.6240  -21.9340    2.9960 C.ar  291  PHE291     -0.0003
     72  CE2        8.3440  -20.8830    0.9680 C.ar  291  PHE291     -0.0003
     73  CZ         8.4340  -21.9240    1.8730 C.ar  291  PHE291     -0.0000
     74  N         15.3890  -23.1830    6.1290 N.3   333  TYR333     -0.1227
     75  CA        14.4530  -23.7870    7.0520 C.3   333  TYR333      0.1736
     76  C         13.0870  -24.0490    6.4320 C.2   333  TYR333      0.2595
     77  O         12.6380  -25.1640    6.3570 O.2   333  TYR333     -0.2718
     78  CB        14.3400  -22.8490    8.2570 C.3   333  TYR333      0.0548
     79  CG        13.7060  -23.3780    9.5060 C.ar  333  TYR333     -0.0200
     80  CD1       12.3510  -23.3430    9.6630 C.ar  333  TYR333     -0.0009
     81  CD2       14.4680  -23.8500   10.5430 C.ar  333  TYR333     -0.0009
     82  CE1       11.7480  -23.8120   10.8080 C.ar  333  TYR333      0.0417
     83  CE2       13.8870  -24.3200   11.7070 C.ar  333  TYR333      0.0417
     84  CZ        12.5150  -24.3030   11.8420 C.ar  333  TYR333      0.1957
     85  OH        11.8840  -24.7540   12.9870 O.3   333  TYR333     -0.2866
     86  N         12.4250  -23.0050    5.9830 N.am  334  PHE334     -0.1976
     87  CA        11.0880  -23.1180    5.4270 C.3   334  PHE334      0.1639
     88  C         10.8300  -24.0060    4.2200 C.2   334  PHE334      0.2290
     89  O          9.7250  -24.4540    4.0360 O.2   334  PHE334     -0.2864
     90  CB        10.5500  -21.7210    5.1310 C.3   334  PHE334      0.0560
     91  CG        10.8370  -20.7260    6.1970 C.ar  334  PHE334     -0.0200
     92  CD1       10.0190  -20.6080    7.2850 C.ar  334  PHE334     -0.0042
     93  CD2       11.9230  -19.9070    6.1020 C.ar  334  PHE334     -0.0042
     94  CE1       10.2880  -19.6910    8.2570 C.ar  334  PHE334     -0.0003
     95  CE2       12.1940  -18.9780    7.0690 C.ar  334  PHE334     -0.0003
     96  CZ        11.3750  -18.8740    8.1470 C.ar  334  PHE334     -0.0000
     97  N          8.9790  -27.3110    4.3060 N.3   337  TYR337     -0.1241
     98  CA         7.6210  -27.2270    4.7210 C.3   337  TYR337      0.1605
     99  C          6.7320  -26.7830    3.5880 C.2   337  TYR337      0.2264
    100  O          5.5510  -27.0520    3.6020 O.2   337  TYR337     -0.2867
    101  CB         7.5070  -26.1920    5.8200 C.3   337  TYR337      0.0534
    102  CG         7.8690  -26.6310    7.2040 C.ar  337  TYR337     -0.0201
    103  CD1        6.9590  -27.2640    8.0000 C.ar  337  TYR337     -0.0009
    104  CD2        9.1040  -26.3680    7.7250 C.ar  337  TYR337     -0.0009
    105  CE1        7.2800  -27.6420    9.2730 C.ar  337  TYR337      0.0417
    106  CE2        9.4320  -26.7470    8.9940 C.ar  337  TYR337      0.0417
    107  CZ         8.5150  -27.3860    9.7580 C.ar  337  TYR337      0.1957
    108  OH         8.8430  -27.7570   11.0170 O.3   337  TYR337     -0.2866
@<TRIPOS>BOND
     1    72    70   ar
     2    72    73   ar
     3    70    68   ar
     4    61    59    1
     5    55    56    1
     6    73    71   ar
     7    68    67    1
     8    68    69   ar
     9    59    56    1
    10    59    60    1
    11    67    64    1
    12    56    57    1
    13    63    64    1
    14    63    57   am
    15    71    69   ar
    16    60    62    1
    17    64    65    1
    18    99   100    2
    19    99    98    1
    20    57    58    2
    21    89    88    2
    22    65    66    2
    23    88    87    1
    24    97    98    1
    25    98   101    1
    26    90    87    1
    27    90    91    1
    28    87    86    1
    29   101   102    1
    30    86    76   am
    31    93    91   ar
    32    93    95   ar
    33    74    75    1
    34    91    92   ar
    35    77    76    2
    36    76    75    1
    37    44    43    2
    38    52    54   ar
    39    52    50   ar
    40    54    53   ar
    41    75    78    1
    42    95    96   ar
    43    50    49   ar
    44    50    48   ar
    45    49    47   ar
    46   102   104   ar
    47   102   103   ar
    48    92    94   ar
    49    53    51   ar
    50    43    42    1
    51   104   106   ar
    52    48    51   ar
    53    48    46   ar
    54    47    46   ar
    55    27    26    1
    56   103   105   ar
    57    28    26    1
    58    96    94   ar
    59    78    79    1
    60    46    45    1
    61    26    25    1
    62    42    45    1
    63    42    41    1
    64   106   107   ar
    65   105   107   ar
    66    79    80   ar
    67    79    81   ar
    68    80    82   ar
    69   107   108    1
    70    25    22    1
    71    24    23    2
    72    81    83   ar
    73    82    84   ar
    74    22    23    1
    75    22    21    1
    76    83    84   ar
    77    84    85    1
    78    12    11    1
    79    38    36   ar
    80    38    39   ar
    81    20    18   ar
    82    40    39    1
    83    36    34   ar
    84    39    37   ar
    85    11     9   ar
    86    11    10   ar
    87    19    18   ar
    88     9     7   ar
    89    18    17    1
    90    10     8   ar
    91    34    35   ar
    92    34    33    1
    93    37    35   ar
    94     7     6   ar
    95    33    30    1
    96     8     6   ar
    97     6     5    1
    98    17    14    1
    99    14    15    1
   100    14    13    1
   101    15    16    2
   102    29    30    1
   103     5     2    1
   104    30    31    1
   105    31    32    2
   106     2     3    1
   107     2     1    1
   108     3     4    2
