@<TRIPOS>MOLECULE
tmp/5dtkC00.pdb
 137 131 0 0 0
SMALL
GASTEIGER

@<TRIPOS>ATOM
      1  N          4.6880   46.5880  122.1010 N.3    48  SER48      -0.1217
      2  CA         4.4790   47.9280  121.5550 C.3    48  SER48       0.1889
      3  C          4.4370   47.9570  120.0300 C.2    48  SER48       0.2288
      4  O          4.0970   49.0100  119.4770 O.2    48  SER48      -0.2866
      5  CB         5.5570   48.8770  122.0720 C.3    48  SER48       0.2089
      6  OG         5.5090   48.9670  123.5010 O.3    48  SER48      -0.2183
      7  N          9.8960   55.6410  133.2900 N.3    79  ILE79      -0.1245
      8  CA        10.5010   56.0970  132.0380 C.3    79  ILE79       0.1561
      9  C         10.2740   57.6020  131.9750 C.2    79  ILE79       0.2260
     10  O          9.1310   58.0620  131.8590 O.2    79  ILE79      -0.2867
     11  CB         9.9140   55.3620  130.8270 C.3    79  ILE79       0.0252
     12  CG1       10.2700   53.8830  130.9100 C.3    79  ILE79       0.0019
     13  CG2       10.4610   55.9490  129.5080 C.3    79  ILE79       0.0019
     14  CD1        9.6050   53.0380  129.9070 C.3    79  ILE79       0.0001
     15  N         10.6800   59.9530  129.8540 N.3    81  THR81      -0.1203
     16  CA        10.0240   60.5300  128.6910 C.3    81  THR81       0.1994
     17  C          8.5320   60.2730  128.6770 C.2    81  THR81       0.2617
     18  O          7.8240   60.8970  127.8920 O.2    81  THR81      -0.2717
     19  CB        10.6360   60.0050  127.3830 C.3    81  THR81       0.1784
     20  OG1       10.5620   58.5700  127.3230 O.3    81  THR81      -0.2211
     21  CG2       12.0770   60.4790  127.2500 C.3    81  THR81       0.0376
     22  N          8.0330   59.3610  129.5060 N.am   82  TRP82      -0.1975
     23  CA         6.5940   59.1880  129.6030 C.3    82  TRP82       0.1640
     24  C          5.9400   60.2370  130.4960 C.2    82  TRP82       0.2290
     25  O          4.7150   60.3890  130.4430 O.2    82  TRP82      -0.2864
     26  CB         6.2720   57.8080  130.1690 C.3    82  TRP82       0.0576
     27  CG         6.5980   56.6530  129.2900 C.ar   82  TRP82       0.0006
     28  CD1        7.2730   56.6650  128.0750 C.ar   82  TRP82       0.0946
     29  CD2        6.2340   55.2860  129.5230 C.ar   82  TRP82       0.0152
     30  NE1        7.3590   55.3880  127.5800 N.ar   82  TRP82      -0.2442
     31  CE2        6.7280   54.5310  128.4420 C.ar   82  TRP82       0.0810
     32  CE3        5.5580   54.6250  130.5470 C.ar   82  TRP82       0.0012
     33  CZ2        6.5520   53.1610  128.3580 C.ar   82  TRP82       0.0191
     34  CZ3        5.3940   53.2500  130.4620 C.ar   82  TRP82       0.0001
     35  CH2        5.8800   52.5410  129.3720 C.ar   82  TRP82       0.0015
     36  N          7.2580   57.4220  119.0850 N.3    93  LYS93      -0.1231
     37  CA         8.7130   57.4650  119.2070 C.3    93  LYS93       0.1693
     38  C          9.1840   56.9060  120.5410 C.2    93  LYS93       0.2592
     39  O         10.1620   56.1400  120.5950 O.2    93  LYS93      -0.2718
     40  CB         9.1890   58.9070  119.0370 C.3    93  LYS93       0.0285
     41  CG        10.6800   59.1230  119.2520 C.3    93  LYS93       0.0035
     42  CD        11.0740   60.5590  118.8840 C.3    93  LYS93       0.0206
     43  CE        12.5090   60.8540  119.2730 C.3    93  LYS93       0.1093
     44  NZ        12.8450   62.2700  118.8830 N.3    93  LYS93      -0.1314
     45  N          8.5180   57.2840  121.6330 N.am   94  TYR94      -0.1962
     46  CA         8.9380   56.8980  122.9760 C.3    94  TYR94       0.1771
     47  C          8.1370   55.7250  123.5230 C.2    94  TYR94       0.2620
     48  O          8.2420   55.4100  124.7160 O.2    94  TYR94      -0.2715
     49  CB         8.8540   58.1150  123.9190 C.3    94  TYR94       0.0574
     50  CG         9.8410   59.1900  123.5400 C.ar   94  TYR94      -0.0198
     51  CD1       11.1950   59.0150  123.7630 C.ar   94  TYR94      -0.0009
     52  CD2        9.4320   60.3790  122.9220 C.ar   94  TYR94      -0.0009
     53  CE1       12.1380   59.9990  123.3850 C.ar   94  TYR94       0.0417
     54  CE2       10.3710   61.3500  122.5450 C.ar   94  TYR94       0.0417
     55  CZ        11.7070   61.1430  122.7840 C.ar   94  TYR94       0.1957
     56  OH        12.6350   62.0880  122.4160 O.3    94  TYR94      -0.2866
     57  N          7.3580   55.0530  122.6780 N.am   95  SER95      -0.1950
     58  CA         6.5720   53.8770  123.0620 C.3    95  SER95       0.1924
     59  C          5.7910   54.1210  124.3510 C.2    95  SER95       0.2314
     60  O          5.8850   53.3650  125.3200 O.2    95  SER95      -0.2863
     61  CB         7.4640   52.6420  123.2050 C.3    95  SER95       0.2116
     62  OG         7.9260   52.1920  121.9470 O.3    95  SER95      -0.2180
     63  N          3.2650   53.7460  126.5450 N.3    97  VAL97      -0.1245
     64  CA         2.1730   52.8250  126.8540 C.3    97  VAL97       0.1561
     65  C          0.9460   53.5290  127.4320 C.2    97  VAL97       0.2260
     66  O         -0.1700   53.2490  126.9740 O.2    97  VAL97      -0.2867
     67  CB         2.6890   51.7000  127.7670 C.3    97  VAL97       0.0252
     68  CG1        1.5400   50.7800  128.2050 C.3    97  VAL97       0.0019
     69  CG2        3.7660   50.9040  127.0820 C.3    97  VAL97       0.0019
     70  N          0.0680   43.3970  125.8690 N.3   135  LEU135     -0.1245
     71  CA         1.1900   43.1590  126.7660 C.3   135  LEU135      0.1561
     72  C          1.0620   41.8440  127.5320 C.2   135  LEU135      0.2260
     73  O          2.0740   41.1980  127.7990 O.2   135  LEU135     -0.2867
     74  CB         1.3120   44.2980  127.7720 C.3   135  LEU135      0.0270
     75  CG         1.5200   45.6980  127.1680 C.3   135  LEU135      0.0019
     76  CD1        1.3520   46.7570  128.2570 C.3   135  LEU135      0.0001
     77  CD2        2.8790   45.8080  126.4900 C.3   135  LEU135      0.0001
     78  N          9.4060   49.5470  117.2540 N.3   186  THR186     -0.1203
     79  CA         9.9970   48.5960  118.1870 C.3   186  THR186      0.1994
     80  C          8.9560   48.0110  119.1340 C.2   186  THR186      0.2618
     81  O          7.8740   48.5710  119.3600 O.2   186  THR186     -0.2717
     82  CB        11.0830   49.2650  119.0240 C.3   186  THR186      0.1784
     83  OG1       10.5220   50.3620  119.7370 O.3   186  THR186     -0.2211
     84  CG2       12.2000   49.7350  118.1600 C.3   186  THR186      0.0376
     85  N          9.3030   46.8620  119.7130 N.am  187  GLY187     -0.1942
     86  CA         8.5270   46.3160  120.8080 C.3   187  GLY187      0.2014
     87  C          9.4140   45.5620  121.7680 C.2   187  GLY187      0.2638
     88  O         10.4890   45.0760  121.4090 O.2   187  GLY187     -0.2714
     89  N          8.9130   45.4350  122.9920 N.am  188  TYR188     -0.1973
     90  CA         9.6330   44.7580  124.0640 C.3   188  TYR188      0.1639
     91  C          8.5910   44.0720  124.9380 C.2   188  TYR188      0.2290
     92  O          7.8330   44.7420  125.6470 O.2   188  TYR188     -0.2864
     93  CB        10.4560   45.7890  124.8270 C.3   188  TYR188      0.0560
     94  CG        11.3010   45.3550  125.9920 C.ar  188  TYR188     -0.0198
     95  CD1       11.7660   44.0600  126.1330 C.ar  188  TYR188     -0.0009
     96  CD2       11.6400   46.2880  126.9590 C.ar  188  TYR188     -0.0009
     97  CE1       12.5590   43.7050  127.2330 C.ar  188  TYR188      0.0417
     98  CE2       12.4200   45.9500  128.0400 C.ar  188  TYR188      0.0417
     99  CZ        12.8750   44.6570  128.1720 C.ar  188  TYR188      0.1957
    100  OH        13.6490   44.3260  129.2640 O.3   188  TYR188     -0.2866
    101  N          7.7930   41.6490  128.0030 N.3   190  THR190     -0.1203
    102  CA         8.3520   41.0880  129.2270 C.3   190  THR190      0.1994
    103  C          7.3710   40.3580  130.1350 C.2   190  THR190      0.2617
    104  O          7.8250   39.6410  131.0320 O.2   190  THR190     -0.2717
    105  CB         8.9970   42.1780  130.0970 C.3   190  THR190      0.1784
    106  OG1        7.9920   43.1120  130.4960 O.3   190  THR190     -0.2211
    107  CG2       10.1130   42.8900  129.3350 C.3   190  THR190      0.0376
    108  N          6.0540   40.5180  129.9590 N.am  191  ARG191     -0.1979
    109  CA         5.1070   40.0250  130.9670 C.3   191  ARG191      0.1597
    110  C          4.7890   38.5480  130.8310 C.2   191  ARG191      0.2287
    111  O          4.2760   37.9370  131.7800 O.2   191  ARG191     -0.2864
    112  CB         3.7990   40.8160  130.8840 C.3   191  ARG191      0.0334
    113  CG         3.9610   42.3130  131.1140 C.3   191  ARG191      0.0492
    114  CD         2.6120   42.9690  131.3240 C.3   191  ARG191      0.2205
    115  NE         2.7360   44.3990  131.5710 N.pl3 191  ARG191     -0.0865
    116  CZ         1.7300   45.1780  131.9450 C.cat 191  ARG191      0.5346
    117  NH1        0.5260   44.6660  132.1390 N.pl3 191  ARG191      0.1354
    118  NH2        1.9350   46.4700  132.1480 N.pl3 191  ARG191      0.1354
    119  N         18.4980   45.8480  124.2120 N.3   224  LEU224     -0.1245
    120  CA        17.4420   46.3350  123.3290 C.3   224  LEU224      0.1561
    121  C         17.9940   46.9410  122.0460 C.2   224  LEU224      0.2260
    122  O         17.3620   46.8270  120.9880 O.2   224  LEU224     -0.2867
    123  CB        16.5750   47.3560  124.0680 C.3   224  LEU224      0.0270
    124  CG        15.6340   46.7310  125.0840 C.3   224  LEU224      0.0019
    125  CD1       15.1130   47.8070  126.0140 C.3   224  LEU224      0.0001
    126  CD2       14.4870   46.0280  124.3790 C.3   224  LEU224      0.0001
    127  N         18.1040   44.9410  118.6300 N.3   227  ARG227     -0.1245
    128  CA        17.0020   44.7890  117.6910 C.3   227  ARG227      0.1563
    129  C         17.3260   45.4940  116.3710 C.2   227  ARG227      0.2260
    130  O         17.2380   44.9050  115.2800 O.2   227  ARG227     -0.2867
    131  CB        15.7170   45.3460  118.3040 C.3   227  ARG227      0.0307
    132  CG        15.2830   44.6490  119.5870 C.3   227  ARG227      0.0489
    133  CD        14.1440   45.3560  120.2690 C.3   227  ARG227      0.2205
    134  NE        14.5220   46.6990  120.7140 N.pl3 227  ARG227     -0.0865
    135  CZ        13.6960   47.5440  121.3230 C.cat 227  ARG227      0.5346
    136  NH1       14.1030   48.7490  121.6770 N.pl3 227  ARG227      0.1354
    137  NH2       12.4510   47.1860  121.5420 N.pl3 227  ARG227      0.1354
@<TRIPOS>BOND
     1   130   129    2
     2   129   128    1
     3    78    79    1
     4   128   131    1
     5   128   127    1
     6    84    82    1
     7    79    82    1
     8    79    80    1
     9   131   132    1
    10    44    43    1
    11    42    41    1
    12    42    43    1
    13    82    83    1
    14    40    37    1
    15    40    41    1
    16    36    37    1
    17    80    81    2
    18    80    85   am
    19    37    38    1
    20     4     3    2
    21   132   133    1
    22    85    86    1
    23     3     2    1
    24   133   134    1
    25    38    39    2
    26    38    45   am
    27   134   135    2
    28    86    87    1
    29   122   121    2
    30   135   137    1
    31   135   136    1
    32    88    87    2
    33     2     5    1
    34     2     1    1
    35    45    46    1
    36    87    89   am
    37    62    61    1
    38   121   120    1
    39     5     6    1
    40    56    55    1
    41    54    55   ar
    42    54    52   ar
    43    57    58    1
    44    57    47   am
    45    55    53   ar
    46    52    50   ar
    47    46    47    1
    48    46    49    1
    49    89    90    1
    50    58    61    1
    51    58    59    1
    52   120   123    1
    53   120   119    1
    54    53    51   ar
    55    47    48    2
    56    50    51   ar
    57    50    49    1
    58    90    93    1
    59    90    91    1
    60   123   124    1
    61    59    60    2
    62   126   124    1
    63    93    94    1
    64    91    92    2
    65   124   125    1
    66    70    71    1
    67    94    95   ar
    68    94    96   ar
    69    95    97   ar
    70    77    75    1
    71    63    64    1
    72    71    72    1
    73    71    74    1
    74    64    65    1
    75    64    67    1
    76    96    98   ar
    77    66    65    2
    78    69    67    1
    79    75    74    1
    80    75    76    1
    81    97    99   ar
    82    21    19    1
    83    20    19    1
    84    19    16    1
    85    72    73    2
    86    30    28   ar
    87    30    31   ar
    88    67    68    1
    89    18    17    2
    90   101   102    1
    91    98    99   ar
    92    28    27   ar
    93    99   100    1
    94    33    31   ar
    95    33    35   ar
    96    31    29   ar
    97    17    16    1
    98    17    22   am
    99    16    15    1
   100   102   105    1
   101   102   103    1
   102    27    29   ar
   103    27    26    1
   104   107   105    1
   105    35    34   ar
   106    22    23    1
   107    13    11    1
   108    29    32   ar
   109    23    26    1
   110    23    24    1
   111    14    12    1
   112   108   103   am
   113   108   109    1
   114   105   106    1
   115   103   104    2
   116    25    24    2
   117    34    32   ar
   118    11    12    1
   119    11     8    1
   120   110   109    1
   121   110   111    2
   122   112   109    1
   123   112   113    1
   124   113   114    1
   125   114   115    1
   126   115   116    2
   127    10     9    2
   128   116   117    1
   129   116   118    1
   130     9     8    1
   131     8     7    1
