@<TRIPOS>MOLECULE
tmp/5dtmA00.pdb
 147 143 0 0 0
SMALL
GASTEIGER

@<TRIPOS>ATOM
      1  N        -28.1660  -20.5590   18.7590 N.3   119  PRO119     -0.2102
      2  CA       -29.1690  -20.4200   17.6870 C.3   119  PRO119      0.1504
      3  C        -29.3080  -21.5840   16.7040 C.2   119  PRO119      0.2575
      4  O        -30.4320  -21.8440   16.2940 O.2   119  PRO119     -0.2718
      5  CB       -28.7500  -19.1380   16.9530 C.3   119  PRO119      0.0282
      6  CG       -27.3230  -18.9340   17.2950 C.3   119  PRO119      0.0208
      7  CD       -27.1640  -19.4680   18.6880 C.3   119  PRO119      0.0893
      8  N        -28.2280  -22.2630   16.2950 N.am  120  PHE120     -0.1977
      9  CA       -28.3590  -23.3620   15.2960 C.3   120  PHE120      0.1639
     10  C        -28.0960  -24.7240   15.9640 C.2   120  PHE120      0.2290
     11  O        -27.2480  -25.5020   15.5120 O.2   120  PHE120     -0.2864
     12  CB       -27.4080  -23.1330   14.0860 C.3   120  PHE120      0.0560
     13  CG       -27.8020  -22.0040   13.1630 C.ar  120  PHE120     -0.0200
     14  CD1      -27.5440  -20.6810   13.5050 C.ar  120  PHE120     -0.0042
     15  CD2      -28.3980  -22.2650   11.9310 C.ar  120  PHE120     -0.0042
     16  CE1      -27.9050  -19.6400   12.6470 C.ar  120  PHE120     -0.0003
     17  CE2      -28.7430  -21.2240   11.0720 C.ar  120  PHE120     -0.0003
     18  CZ       -28.4810  -19.9210   11.4290 C.ar  120  PHE120     -0.0000
     19  N        -33.3990  -27.4480   15.0430 N.3   125  TYR125     -0.1241
     20  CA       -32.8830  -27.9360   13.7490 C.3   125  TYR125      0.1605
     21  C        -33.8420  -27.7390   12.5760 C.2   125  TYR125      0.2264
     22  O        -33.4040  -27.3760   11.4880 O.2   125  TYR125     -0.2867
     23  CB       -32.4330  -29.4090   13.8320 C.3   125  TYR125      0.0534
     24  CG       -31.6790  -29.8620   12.6030 C.ar  125  TYR125     -0.0201
     25  CD1      -30.3110  -29.6160   12.4690 C.ar  125  TYR125     -0.0009
     26  CD2      -32.3340  -30.5100   11.5590 C.ar  125  TYR125     -0.0009
     27  CE1      -29.6120  -30.0180   11.3370 C.ar  125  TYR125      0.0417
     28  CE2      -31.6410  -30.9210   10.4180 C.ar  125  TYR125      0.0417
     29  CZ       -30.2820  -30.6670   10.3100 C.ar  125  TYR125      0.1957
     30  OH       -29.6030  -31.0790    9.1950 O.3   125  TYR125     -0.2866
     31  N        -31.9160  -24.8340    9.8170 N.3   129  SER129     -0.1217
     32  CA       -30.8260  -25.7720    9.4860 C.3   129  SER129      0.1889
     33  C        -31.2170  -26.7840    8.4400 C.2   129  SER129      0.2288
     34  O        -30.4630  -26.9940    7.5010 O.2   129  SER129     -0.2866
     35  CB       -30.3100  -26.4860   10.7330 C.3   129  SER129      0.2089
     36  OG       -29.6930  -25.5780   11.6240 O.3   129  SER129     -0.2183
     37  N        -31.1800  -25.0460    5.1190 N.3   132  LEU132     -0.1231
     38  CA       -29.8210  -24.6560    4.7250 C.3   132  LEU132      0.1693
     39  C        -28.9550  -25.8650    4.4020 C.2   132  LEU132      0.2591
     40  O        -28.2290  -25.8430    3.4140 O.2   132  LEU132     -0.2718
     41  CB       -29.1690  -23.7110    5.7550 C.3   132  LEU132      0.0284
     42  CG       -27.9090  -22.9490    5.2710 C.3   132  LEU132      0.0019
     43  CD1      -28.2110  -22.0620    4.0280 C.3   132  LEU132      0.0001
     44  CD2      -27.3130  -22.1160    6.4150 C.3   132  LEU132      0.0001
     45  N        -29.1050  -26.9620    5.1440 N.am  133  VAL133     -0.1980
     46  CA       -28.3990  -28.2280    4.8460 C.3   133  VAL133      0.1595
     47  C        -28.8840  -28.7680    3.4830 C.2   133  VAL133      0.2287
     48  O        -28.0640  -29.2210    2.7070 O.2   133  VAL133     -0.2864
     49  CB       -28.5530  -29.2770    5.9910 C.3   133  VAL133      0.0276
     50  CG1      -28.1010  -30.6740    5.5490 C.3   133  VAL133      0.0022
     51  CG2      -27.8000  -28.8260    7.2610 C.3   133  VAL133      0.0022
     52  N        -27.2140  -26.7680    0.8430 N.3   136  MET136     -0.1245
     53  CA       -25.8160  -27.2160    0.8480 C.3   136  MET136      0.1570
     54  C        -25.6760  -28.5460    0.0660 C.2   136  MET136      0.2261
     55  O        -24.7620  -28.6740   -0.7520 O.2   136  MET136     -0.2867
     56  CB       -25.3420  -27.3640    2.3010 C.3   136  MET136      0.0387
     57  CG       -23.8780  -27.5780    2.4860 C.3   136  MET136      0.0595
     58  SD       -23.4620  -29.3120    2.6900 S.3   136  MET136     -0.1393
     59  CE       -24.1150  -29.6980    4.2500 C.3   136  MET136      0.0692
     60  N        -27.4390  -33.5580   11.0350 N.3   158  VAL158     -0.1245
     61  CA       -26.8200  -33.2270    9.7560 C.3   158  VAL158      0.1561
     62  C        -26.4130  -34.5230    9.0360 C.2   158  VAL158      0.2260
     63  O        -26.6990  -34.6760    7.8550 O.2   158  VAL158     -0.2867
     64  CB       -25.6010  -32.2770    9.9480 C.3   158  VAL158      0.0252
     65  CG1      -24.8960  -32.0310    8.6140 C.3   158  VAL158      0.0019
     66  CG2      -26.0160  -30.9570   10.6170 C.3   158  VAL158      0.0019
     67  N        -17.9540  -30.9620    7.3620 N.3   228  PHE228     -0.1227
     68  CA       -19.0200  -30.0570    7.7560 C.3   228  PHE228      0.1736
     69  C        -18.6730  -29.6610    9.1800 C.2   228  PHE228      0.2595
     70  O        -18.4750  -30.5280   10.0300 O.2   228  PHE228     -0.2718
     71  CB       -20.3930  -30.7520    7.7120 C.3   228  PHE228      0.0547
     72  CG       -21.5390  -29.8770    8.1700 C.ar  228  PHE228     -0.0202
     73  CD1      -21.8000  -29.6900    9.5330 C.ar  228  PHE228     -0.0042
     74  CD2      -22.3880  -29.2700    7.2420 C.ar  228  PHE228     -0.0042
     75  CE1      -22.8590  -28.8680    9.9620 C.ar  228  PHE228     -0.0003
     76  CE2      -23.4810  -28.4900    7.6680 C.ar  228  PHE228     -0.0003
     77  CZ       -23.6850  -28.2600    9.0250 C.ar  228  PHE228     -0.0000
     78  N        -18.5980  -28.3650    9.4550 N.am  229  VAL229     -0.1966
     79  CA       -18.2820  -27.9520   10.8110 C.3   229  VAL229      0.1727
     80  C        -19.0140  -26.6430   11.1580 C.2   229  VAL229      0.2616
     81  O        -18.7530  -25.5970   10.5690 O.2   229  VAL229     -0.2715
     82  CB       -16.7360  -27.9190   11.1230 C.3   229  VAL229      0.0290
     83  CG1      -15.9550  -26.9610   10.1920 C.3   229  VAL229      0.0023
     84  CG2      -16.4690  -27.6070   12.5940 C.3   229  VAL229      0.0023
     85  N        -19.9020  -26.7040   12.1410 N.am  230  ASN230     -0.1972
     86  CA       -20.5580  -25.4930   12.6120 C.3   230  ASN230      0.1688
     87  C        -19.6230  -24.9650   13.7180 C.2   230  ASN230      0.2292
     88  O        -19.7630  -25.3210   14.8750 O.2   230  ASN230     -0.2864
     89  CB       -21.9840  -25.7980   13.1100 C.3   230  ASN230      0.1181
     90  CG       -22.6740  -24.6280   13.7710 C.2   230  ASN230      0.2629
     91  OD1      -22.1790  -23.4930   13.8110 O.2   230  ASN230     -0.2716
     92  ND2      -23.8300  -24.8980   14.3200 N.am  230  ASN230     -0.0877
     93  N        -18.9820  -21.6910   14.5160 N.3   232  PHE232     -0.1241
     94  CA       -19.2820  -20.3170   14.9210 C.3   232  PHE232      0.1605
     95  C        -18.9020  -19.9870   16.3890 C.2   232  PHE232      0.2264
     96  O        -18.2600  -18.9560   16.6290 O.2   232  PHE232     -0.2867
     97  CB       -20.7510  -19.9260   14.6200 C.3   232  PHE232      0.0534
     98  CG       -20.9680  -18.4300   14.7470 C.ar  232  PHE232     -0.0203
     99  CD1      -20.6660  -17.5730   13.6920 C.ar  232  PHE232     -0.0042
    100  CD2      -21.3860  -17.8690   15.9560 C.ar  232  PHE232     -0.0042
    101  CE1      -20.7500  -16.1730   13.8510 C.ar  232  PHE232     -0.0003
    102  CE2      -21.4940  -16.4750   16.1050 C.ar  232  PHE232     -0.0003
    103  CZ       -21.1640  -15.6380   15.0550 C.ar  232  PHE232     -0.0000
    104  N        -17.2080  -27.1090    4.7560 N.3   256  VAL256     -0.1231
    105  CA       -18.4130  -26.2980    4.8370 C.3   256  VAL256      0.1692
    106  C        -18.4890  -25.8290    6.2950 C.2   256  VAL256      0.2593
    107  O        -18.4700  -26.6620    7.2050 O.2   256  VAL256     -0.2718
    108  CB       -19.6710  -27.0930    4.3730 C.3   256  VAL256      0.0266
    109  CG1      -20.9460  -26.3960    4.8380 C.3   256  VAL256      0.0020
    110  CG2      -19.6770  -27.2610    2.8480 C.3   256  VAL256      0.0020
    111  N        -18.5200  -24.4970    6.5170 N.am  257  SER257     -0.1938
    112  CA       -18.5390  -23.9900    7.8850 C.3   257  SER257      0.2055
    113  C        -19.4540  -22.7880    8.0850 C.2   257  SER257      0.2643
    114  O        -19.9760  -22.2390    7.1230 O.2   257  SER257     -0.2714
    115  CB       -17.1100  -23.6950    8.3770 C.3   257  SER257      0.2130
    116  OG       -16.6140  -22.5090    7.7850 O.3   257  SER257     -0.2179
    117  N        -19.6880  -22.4210    9.3520 N.am  258  SER258     -0.1949
    118  CA       -20.5510  -21.2830    9.6970 C.3   258  SER258      0.1924
    119  C        -19.7340  -19.9810    9.8770 C.2   258  SER258      0.2314
    120  O        -20.3040  -18.9000    9.8050 O.2   258  SER258     -0.2863
    121  CB       -21.4200  -21.5970   10.9090 C.3   258  SER258      0.2116
    122  OG       -20.6570  -22.0930   11.9900 O.3   258  SER258     -0.2180
    123  N        -29.3000  -16.1140    6.0210 N.3   297  VAL297     -0.1231
    124  CA       -28.2050  -16.9210    6.5260 C.3   297  VAL297      0.1692
    125  C        -27.2140  -17.3170    5.4290 C.2   297  VAL297      0.2593
    126  O        -27.5670  -17.3200    4.2540 O.2   297  VAL297     -0.2718
    127  CB       -28.7420  -18.1610    7.3030 C.3   297  VAL297      0.0266
    128  CG1      -29.4670  -17.7390    8.5820 C.3   297  VAL297      0.0020
    129  CG2      -29.6440  -19.0340    6.4270 C.3   297  VAL297      0.0020
    130  N        -25.9830  -17.6570    5.8200 N.am  298  SER298     -0.1938
    131  CA       -24.9310  -18.0630    4.8910 C.3   298  SER298      0.2055
    132  C        -24.0980  -19.1890    5.4720 C.2   298  SER298      0.2643
    133  O        -24.0350  -19.3630    6.6850 O.2   298  SER298     -0.2714
    134  CB       -23.9780  -16.8910    4.6540 C.3   298  SER298      0.2130
    135  OG       -24.5910  -15.8110    3.9690 O.3   298  SER298     -0.2179
    136  N        -23.3800  -19.8850    4.6090 N.am  299  TYR299     -0.1973
    137  CA       -22.3490  -20.8210    5.0170 C.3   299  TYR299      0.1639
    138  C        -21.1120  -20.5690    4.1260 C.2   299  TYR299      0.2290
    139  O        -21.1820  -19.8000    3.1640 O.2   299  TYR299     -0.2864
    140  CB       -22.8230  -22.2830    5.0770 C.3   299  TYR299      0.0560
    141  CG       -23.1500  -22.8830    3.7380 C.ar  299  TYR299     -0.0198
    142  CD1      -24.4280  -22.7830    3.2040 C.ar  299  TYR299     -0.0009
    143  CD2      -22.1770  -23.5410    2.9910 C.ar  299  TYR299     -0.0009
    144  CE1      -24.7420  -23.3490    1.9680 C.ar  299  TYR299      0.0417
    145  CE2      -22.4760  -24.1080    1.7540 C.ar  299  TYR299      0.0417
    146  CZ       -23.7580  -24.0020    1.2440 C.ar  299  TYR299      0.1957
    147  OH       -24.0410  -24.5590    0.0270 O.3   299  TYR299     -0.2866
@<TRIPOS>BOND
     1    55    54    2
     2   147   146    1
     3    54    53    1
     4    52    53    1
     5    53    56    1
     6   146   145   ar
     7   146   144   ar
     8   145   143   ar
     9   144   142   ar
    10    56    57    1
    11    57    58    1
    12    58    59    1
    13    48    47    2
    14   110   108    1
    15   143   141   ar
    16   139   138    2
    17   142   141   ar
    18    40    39    2
    19    47    46    1
    20   141   140    1
    21   135   134    1
    22    43    42    1
    23   138   137    1
    24   126   125    2
    25   108   105    1
    26   108   109    1
    27    39    38    1
    28    39    45   am
    29   136   137    1
    30   136   132   am
    31   134   131    1
    32    38    37    1
    33    38    41    1
    34   104   105    1
    35   105   106    1
    36    46    45    1
    37    46    49    1
    38   131   132    1
    39   131   130    1
    40   137   140    1
    41    42    41    1
    42    42    44    1
    43   125   130   am
    44   125   124    1
    45   132   133    2
    46    50    49    1
    47    49    51    1
    48   123   124    1
    49   106   111   am
    50   106   107    2
    51   129   127    1
    52   111   112    1
    53   124   127    1
    54   114   113    2
    55    74    76   ar
    56    74    72   ar
    57   127   128    1
    58    67    68    1
    59    34    33    2
    60    76    77   ar
    61    71    68    1
    62    71    72    1
    63    68    69    1
    64   116   115    1
    65    63    62    2
    66   112   113    1
    67   112   115    1
    68   113   117   am
    69    72    73   ar
    70    33    32    1
    71    65    64    1
    72    77    75   ar
    73    62    61    1
    74    69    78   am
    75    69    70    2
    76    30    29    1
    77   117   118    1
    78    78    79    1
    79    32    31    1
    80    32    35    1
    81    73    75   ar
    82   118   119    1
    83   118   121    1
    84    61    64    1
    85    61    60    1
    86   120   119    2
    87    64    66    1
    88    83    82    1
    89    29    28   ar
    90    29    27   ar
    91    28    26   ar
    92    81    80    2
    93    35    36    1
    94    79    82    1
    95    79    80    1
    96   121   122    1
    97    17    18   ar
    98    17    15   ar
    99    82    84    1
   100    80    85   am
   101    27    25   ar
   102    18    16   ar
   103    22    21    2
   104    26    24   ar
   105    15    13   ar
   106    85    86    1
   107    25    24   ar
   108    21    20    1
   109    24    23    1
   110    86    89    1
   111    86    87    1
   112    16    14   ar
   113    89    90    1
   114    13    14   ar
   115    13    12    1
   116    99   101   ar
   117    99    98   ar
   118    87    88    2
   119    20    23    1
   120    20    19    1
   121    90    91    2
   122    90    92   am
   123   101   103   ar
   124    12     9    1
   125    93    94    1
   126    97    98    1
   127    97    94    1
   128    98   100   ar
   129    94    95    1
   130   103   102   ar
   131     9    10    1
   132     9     8    1
   133    11    10    2
   134   100   102   ar
   135     4     3    2
   136     8     3   am
   137    95    96    2
   138     3     2    1
   139     5     6    1
   140     5     2    1
   141     6     7    1
   142     2     1    1
   143     7     1    1
