@<TRIPOS>MOLECULE
tmp/5dtoA00.pdb
 179 165 0 0 0
SMALL
GASTEIGER

@<TRIPOS>ATOM
      1  N         30.9020  140.4960   33.1510 N.3    24  LYS24      -0.1245
      2  CA        30.2800  140.1030   31.8910 C.3    24  LYS24       0.1561
      3  C         30.4040  141.1710   30.8090 C.2    24  LYS24       0.2260
      4  O         30.5300  140.8520   29.6260 O.2    24  LYS24      -0.2867
      5  CB        28.8040  139.7640   32.1220 C.3    24  LYS24       0.0271
      6  CG        28.0520  139.3200   30.8750 C.3    24  LYS24       0.0035
      7  CD        26.6070  138.9620   31.1970 C.3    24  LYS24       0.0206
      8  CE        25.8060  138.6690   29.9360 C.3    24  LYS24       0.1093
      9  NZ        26.4130  137.5850   29.1160 N.3    24  LYS24      -0.1314
     10  N         19.8490  148.7980   22.0890 N.3    33  ARG33      -0.1245
     11  CA        18.7310  148.0740   21.4990 C.3    33  ARG33       0.1563
     12  C         17.3700  148.5810   21.9820 C.2    33  ARG33       0.2260
     13  O         16.3380  147.9970   21.6540 O.2    33  ARG33      -0.2867
     14  CB        18.8620  146.5800   21.8030 C.3    33  ARG33       0.0307
     15  CG        20.0020  145.8820   21.0810 C.3    33  ARG33       0.0489
     16  CD        19.6530  145.6290   19.6260 C.3    33  ARG33       0.2205
     17  NE        18.4430  144.8240   19.4940 N.pl3  33  ARG33      -0.0865
     18  CZ        17.8150  144.6030   18.3430 C.cat  33  ARG33       0.5346
     19  NH1       18.2830  145.1290   17.2190 N.pl3  33  ARG33       0.1354
     20  NH2       16.7150  143.8610   18.3180 N.pl3  33  ARG33       0.1354
     21  N         14.0190  147.4410   20.2780 N.3    37  LYS37      -0.1245
     22  CA        13.2010  146.4910   21.0310 C.3    37  LYS37       0.1561
     23  C         11.7860  146.9920   21.3390 C.2    37  LYS37       0.2260
     24  O         10.9180  146.2070   21.7170 O.2    37  LYS37      -0.2867
     25  CB        13.9130  146.1040   22.3340 C.3    37  LYS37       0.0271
     26  CG        14.9200  144.9670   22.1770 C.3    37  LYS37       0.0035
     27  CD        16.0120  145.0190   23.2360 C.3    37  LYS37       0.0206
     28  CE        15.4390  145.0950   24.6390 C.3    37  LYS37       0.1093
     29  NZ        16.5210  145.2130   25.6550 N.3    37  LYS37      -0.1314
     30  N         17.8700  141.6320   16.0480 N.3    51  SER51      -0.1202
     31  CA        18.6000  141.2180   17.2430 C.3    51  SER51       0.2020
     32  C         19.9800  141.8620   17.2890 C.2    51  SER51       0.2619
     33  O         20.3860  142.5510   16.3540 O.2    51  SER51      -0.2717
     34  CB        18.7440  139.6950   17.2980 C.3    51  SER51       0.2103
     35  OG        19.6850  139.2320   16.3410 O.3    51  SER51      -0.2182
     36  N         20.6990  141.6180   18.3800 N.am   52  ARG52      -0.1965
     37  CA        22.0820  142.0650   18.5350 C.3    52  ARG52       0.1729
     38  C         23.0030  141.5380   17.4360 C.2    52  ARG52       0.2616
     39  O         24.1040  142.0510   17.2360 O.2    52  ARG52      -0.2715
     40  CB        22.6260  141.6180   19.8910 C.3    52  ARG52       0.0348
     41  CG        22.5780  142.6630   20.9840 C.3    52  ARG52       0.0492
     42  CD        23.2260  142.1220   22.2420 C.3    52  ARG52       0.2205
     43  NE        24.2120  141.0860   21.9370 N.pl3  52  ARG52      -0.0865
     44  CZ        25.5140  141.3090   21.7750 C.cat  52  ARG52       0.5346
     45  NH1       26.0000  142.5390   21.8890 N.pl3  52  ARG52       0.1354
     46  NH2       26.3310  140.3000   21.5000 N.pl3  52  ARG52       0.1354
     47  N         22.5530  140.5010   16.7390 N.am   53  GLY53      -0.1955
     48  CA        23.3710  139.8270   15.7510 C.3    53  GLY53       0.1869
     49  C         23.7190  140.6580   14.5350 C.2    53  GLY53       0.2309
     50  O         24.7960  140.4930   13.9610 O.2    53  GLY53      -0.2863
     51  N         26.6270  142.5890   15.3730 N.3    56  LYS56      -0.1245
     52  CA        27.7790  141.7070   15.5000 C.3    56  LYS56       0.1561
     53  C         28.3710  141.4090   14.1300 C.2    56  LYS56       0.2260
     54  O         29.5760  141.5490   13.9260 O.2    56  LYS56      -0.2867
     55  CB        27.4010  140.4020   16.2030 C.3    56  LYS56       0.0271
     56  CG        27.0090  140.5720   17.6600 C.3    56  LYS56       0.0035
     57  CD        26.9800  139.2360   18.3850 C.3    56  LYS56       0.0206
     58  CE        28.3630  138.6110   18.4500 C.3    56  LYS56       0.1093
     59  NZ        28.3510  137.3350   19.2150 N.3    56  LYS56      -0.1314
     60  N         16.3720  134.5180   14.7820 N.3    79  ARG79      -0.1245
     61  CA        15.4540  135.6020   14.4450 C.3    79  ARG79       0.1563
     62  C         15.8150  136.2310   13.1010 C.2    79  ARG79       0.2260
     63  O         14.9620  136.8150   12.4350 O.2    79  ARG79      -0.2867
     64  CB        15.4510  136.6550   15.5510 C.3    79  ARG79       0.0307
     65  CG        14.9920  136.1080   16.8920 C.3    79  ARG79       0.0489
     66  CD        15.4500  136.9820   18.0430 C.3    79  ARG79       0.2205
     67  NE        14.7630  138.2670   18.0610 N.pl3  79  ARG79      -0.0865
     68  CZ        13.7030  138.5350   18.8150 C.cat  79  ARG79       0.5346
     69  NH1       13.2100  137.6050   19.6220 N.pl3  79  ARG79       0.1354
     70  NH2       13.1420  139.7360   18.7660 N.pl3  79  ARG79       0.1354
     71  N         12.0230  126.7890   22.9550 N.3   104  GLY104     -0.1210
     72  CA        13.3730  127.0090   23.4350 C.3   104  GLY104      0.1956
     73  C         14.3070  127.5330   22.3620 C.2   104  GLY104      0.2612
     74  O         15.4820  127.7850   22.6240 O.2   104  GLY104     -0.2717
     75  N         13.7920  127.7000   21.1490 N.am  105  HIS105     -0.1961
     76  CA        14.6180  128.1700   20.0440 C.3   105  HIS105      0.1787
     77  C         14.0310  129.3950   19.3620 C.2   105  HIS105      0.2620
     78  O         12.8150  129.5810   19.3340 O.2   105  HIS105     -0.2715
     79  CB        14.8240  127.0510   19.0260 C.3   105  HIS105      0.0785
     80  CG        15.7240  125.9590   19.5110 C.ar  105  HIS105      0.0821
     81  ND1       17.0970  126.0230   19.3960 N.ar  105  HIS105     -0.2267
     82  CD2       15.4520  124.7840   20.1220 C.ar  105  HIS105      0.1154
     83  CE1       17.6290  124.9300   19.9120 C.ar  105  HIS105      0.1986
     84  NE2       16.6530  124.1610   20.3600 N.ar  105  HIS105     -0.2212
     85  N         14.9080  130.2290   18.8140 N.am  106  GLU106     -0.1977
     86  CA        14.4920  131.4570   18.1510 C.3   106  GLU106      0.1602
     87  C         13.7830  131.1670   16.8360 C.2   106  GLU106      0.2287
     88  O         14.2890  130.4190   15.9990 O.2   106  GLU106     -0.2864
     89  CB        15.6960  132.3700   17.8980 C.3   106  GLU106      0.0415
     90  CG        16.4880  132.7050   19.1430 C.3   106  GLU106      0.1163
     91  CD        15.6500  133.4080   20.1840 C.2   106  GLU106      0.3649
     92  OE1       14.8810  134.3220   19.8150 O.co2 106  GLU106     -0.2457
     93  OE2       15.7460  133.0340   21.3710 O.co2 106  GLU106     -0.2457
     94  N         26.1870  130.8290   13.1220 N.3   141  ASP141     -0.1239
     95  CA        26.3460  131.4530   14.4300 C.3   141  ASP141      0.1674
     96  C         25.9210  130.4960   15.5400 C.2   141  ASP141      0.2266
     97  O         25.6580  130.9080   16.6690 O.2   141  ASP141     -0.2867
     98  CB        25.5350  132.7460   14.5000 C.3   141  ASP141      0.1410
     99  CG        26.1510  133.7700   15.4270 C.2   141  ASP141      0.3668
    100  OD1       27.3870  133.7530   15.5880 O.co2 141  ASP141     -0.2456
    101  OD2       25.4020  134.5980   15.9860 O.co2 141  ASP141     -0.2456
    102  N         26.0630  127.8980   18.4740 N.3   143  GLY143     -0.1210
    103  CA        26.9390  127.5870   19.5840 C.3   143  GLY143      0.1956
    104  C         26.1790  127.6440   20.8920 C.2   143  GLY143      0.2612
    105  O         25.9340  128.7200   21.4200 O.2   143  GLY143     -0.2717
    106  N         25.7960  126.4840   21.4120 N.am  144  GLU144     -0.1965
    107  CA        25.0750  126.4150   22.6790 C.3   144  GLU144      0.1733
    108  C         26.0630  126.3190   23.8390 C.2   144  GLU144      0.2617
    109  O         26.7570  125.3150   23.9900 O.2   144  GLU144     -0.2715
    110  CB        24.1210  125.2210   22.6790 C.3   144  GLU144      0.0429
    111  CG        23.1870  125.1480   23.8710 C.3   144  GLU144      0.1163
    112  CD        22.3560  123.8790   23.8640 C.2   144  GLU144      0.3649
    113  OE1       22.3210  123.2010   22.8150 O.co2 144  GLU144     -0.2457
    114  OE2       21.7490  123.5530   24.9060 O.co2 144  GLU144     -0.2457
    115  N         26.1250  127.3660   24.6550 N.am  145  SER145     -0.1950
    116  CA        27.1360  127.4560   25.7070 C.3   145  SER145      0.1924
    117  C         26.9110  126.4430   26.8230 C.2   145  SER145      0.2314
    118  O         25.8240  125.8850   26.9650 O.2   145  SER145     -0.2863
    119  CB        27.1730  128.8670   26.2990 C.3   145  SER145      0.2116
    120  OG        25.9670  129.1690   26.9780 O.3   145  SER145     -0.2180
    121  N         31.2060  122.0690   25.9910 N.3   152  GLU152     -0.1245
    122  CA        31.3130  123.0730   24.9410 C.3   152  GLU152      0.1567
    123  C         32.2050  122.5660   23.8140 C.2   152  GLU152      0.2260
    124  O         31.9370  122.8160   22.6360 O.2   152  GLU152     -0.2867
    125  CB        31.8640  124.3890   25.4950 C.3   152  GLU152      0.0388
    126  CG        30.8560  125.2120   26.2800 C.3   152  GLU152      0.1160
    127  CD        31.3950  126.5780   26.6690 C.2   152  GLU152      0.3649
    128  OE1       32.6230  126.7850   26.5780 O.co2 152  GLU152     -0.2457
    129  OE2       30.5890  127.4490   27.0580 O.co2 152  GLU152     -0.2457
    130  N         30.9340  130.9200   13.7880 N.3   175  LYS175     -0.1245
    131  CA        31.2080  130.9990   15.2170 C.3   175  LYS175      0.1561
    132  C         31.9000  129.7380   15.7130 C.2   175  LYS175      0.2260
    133  O         31.4650  128.6210   15.4390 O.2   175  LYS175     -0.2867
    134  CB        29.9260  131.2190   16.0220 C.3   175  LYS175      0.0271
    135  CG        30.0930  130.9070   17.5130 C.3   175  LYS175      0.0035
    136  CD        28.7740  130.9530   18.2530 C.3   175  LYS175      0.0206
    137  CE        28.1950  132.3450   18.2110 C.3   175  LYS175      0.1093
    138  NZ        26.7500  132.3560   18.5250 N.3   175  LYS175     -0.1314
    139  N         32.4130  128.4900   19.2070 N.3   177  LEU177     -0.1245
    140  CA        32.0000  128.7440   20.5860 C.3   177  LEU177      0.1561
    141  C         33.1480  128.5970   21.5830 C.2   177  LEU177      0.2260
    142  O         33.4650  129.5320   22.3170 O.2   177  LEU177     -0.2867
    143  CB        30.8570  127.8030   20.9720 C.3   177  LEU177      0.0270
    144  CG        30.2350  128.0270   22.3520 C.3   177  LEU177      0.0019
    145  CD1       29.4040  129.3020   22.3710 C.3   177  LEU177      0.0001
    146  CD2       29.4030  126.8260   22.7740 C.3   177  LEU177      0.0001
    147  N         30.5200  139.2650   24.7970 N.3   206  ARG206     -0.1245
    148  CA        30.6320  139.4820   26.2340 C.3   206  ARG206      0.1563
    149  C         31.8220  138.7130   26.7960 C.2   206  ARG206      0.2260
    150  O         32.2340  137.6980   26.2400 O.2   206  ARG206     -0.2867
    151  CB        29.3440  139.0660   26.9530 C.3   206  ARG206      0.0307
    152  CG        28.1840  140.0350   26.7810 C.3   206  ARG206      0.0489
    153  CD        27.5100  139.8880   25.4260 C.3   206  ARG206      0.2205
    154  NE        26.4730  140.8950   25.2260 N.pl3 206  ARG206     -0.0865
    155  CZ        25.2070  140.7460   25.6000 C.cat 206  ARG206      0.5346
    156  NH1       24.8130  139.6280   26.1960 N.pl3 206  ARG206      0.1354
    157  NH2       24.3350  141.7190   25.3790 N.pl3 206  ARG206      0.1354
    158  N         31.9720  136.8540   29.1760 N.3   208  SER208     -0.1202
    159  CA        31.5470  135.5700   29.7230 C.3   208  SER208      0.2020
    160  C         31.5380  134.4640   28.6700 C.2   208  SER208      0.2619
    161  O         31.1450  133.3340   28.9520 O.2   208  SER208     -0.2717
    162  CB        30.1620  135.7010   30.3560 C.3   208  SER208      0.2103
    163  OG        29.2470  136.2930   29.4510 O.3   208  SER208     -0.2182
    164  N         31.9630  134.7970   27.4570 N.am  209  THR209     -0.1952
    165  CA        32.1430  133.7920   26.4200 C.3   209  THR209      0.1897
    166  C         33.4870  133.9810   25.7280 C.2   209  THR209      0.2313
    167  O         33.9530  135.1060   25.5390 O.2   209  THR209     -0.2863
    168  CB        31.0140  133.8300   25.3740 C.3   209  THR209      0.1794
    169  OG1       31.3310  132.9360   24.3000 O.3   209  THR209     -0.2208
    170  CG2       30.8360  135.2330   24.8210 C.3   209  THR209      0.0378
    171  N         34.0030  132.8750   22.7560 N.3   211  GLU211     -0.1245
    172  CA        33.6620  132.6840   21.3490 C.3   211  GLU211      0.1567
    173  C         34.5310  133.5080   20.4060 C.2   211  GLU211      0.2260
    174  O         34.7980  134.6860   20.6400 O.2   211  GLU211     -0.2867
    175  CB        32.1860  133.0160   21.1030 C.3   211  GLU211      0.0388
    176  CG        31.7960  134.4410   21.4580 C.3   211  GLU211      0.1160
    177  CD        30.4410  134.8340   20.9030 C.2   211  GLU211      0.3649
    178  OE1       29.8320  135.7890   21.4290 O.co2 211  GLU211     -0.2457
    179  OE2       29.9890  134.1930   19.9330 O.co2 211  GLU211     -0.2457
@<TRIPOS>BOND
     1    63    62    2
     2    62    61    1
     3    94    95    1
     4   130   131    1
     5    54    53    2
     6    50    49    2
     7    53    52    1
     8    95    98    1
     9    95    96    1
    10    61    60    1
    11    61    64    1
    12    98    99    1
    13    49    48    1
    14   131   132    1
    15   131   134    1
    16    51    52    1
    17    99   100   ar
    18    99   101   ar
    19   133   132    2
    20    52    55    1
    21    96    97    2
    22    64    65    1
    23    48    47    1
    24    88    87    2
    25   134   135    1
    26    30    31    1
    27    55    56    1
    28    35    34    1
    29    33    32    2
    30    47    38   am
    31    87    86    1
    32    65    66    1
    33    19    18    1
    34    39    38    2
    35    31    32    1
    36    31    34    1
    37    32    36   am
    38    38    37    1
    39   135   136    1
    40    56    57    1
    41    89    86    1
    42    89    90    1
    43    66    67    1
    44    67    68    2
    45    86    85    1
    46   137   136    1
    47   137   138    1
    48    20    18    1
    49    18    17    2
    50    36    37    1
    51    57    58    1
    52    58    59    1
    53   102   103    1
    54    37    40    1
    55    70    68    1
    56    85    77   am
    57    68    69    1
    58    79    80    1
    59    79    76    1
    60    90    91    1
    61   139   140    1
    62    78    77    2
    63    77    76    1
    64    81    80   ar
    65    81    83   ar
    66    17    16    1
    67    80    82   ar
    68   103   104    1
    69    16    15    1
    70    92    91   ar
    71    40    41    1
    72    83    84   ar
    73   179   177   ar
    74    76    75    1
    75    82    84   ar
    76    91    93   ar
    77    21    22    1
    78   173   174    2
    79   173   172    1
    80   140   143    1
    81   140   141    1
    82   104   106   am
    83   104   105    2
    84   177   178   ar
    85   177   176    1
    86   143   144    1
    87    41    42    1
    88    22    23    1
    89    22    25    1
    90    15    14    1
    91   175   172    1
    92   175   176    1
    93    75    73   am
    94    23    24    2
    95   172   171    1
    96   106   107    1
    97    11    14    1
    98    11    12    1
    99    11    10    1
   100    46    44    1
   101   141   142    2
   102    13    12    2
   103    44    45    1
   104    44    43    2
   105    43    42    1
   106    26    25    1
   107    26    27    1
   108   144   145    1
   109   144   146    1
   110    73    74    2
   111    73    72    1
   112   124   123    2
   113   107   110    1
   114   107   108    1
   115   110   111    1
   116   113   112   ar
   117    71    72    1
   118    27    28    1
   119   123   122    1
   120   108   109    2
   121   108   115   am
   122   112   111    1
   123   112   114   ar
   124   169   168    1
   125    28    29    1
   126   115   116    1
   127   147   148    1
   128   170   168    1
   129   122   125    1
   130   122   121    1
   131   154   153    1
   132   154   155    2
   133   168   165    1
   134   157   155    1
   135   153   152    1
   136   125   126    1
   137   167   166    2
   138   155   156    1
   139   116   119    1
   140   116   117    1
   141   166   165    1
   142   148   149    1
   143   148   151    1
   144   150   149    2
   145   126   127    1
   146   119   120    1
   147   165   164    1
   148   128   127   ar
   149   127   129   ar
   150   152   151    1
   151   117   118    2
   152   164   160   am
   153   160   161    2
   154   160   159    1
   155     9     8    1
   156   158   159    1
   157   163   162    1
   158     4     3    2
   159   159   162    1
   160     8     7    1
   161     3     2    1
   162     6     7    1
   163     6     5    1
   164     2     5    1
   165     2     1    1
