@<TRIPOS>MOLECULE
tmp/5dtoA02.pdb
 130 122 0 0 0
SMALL
GASTEIGER

@<TRIPOS>ATOM
      1  N         37.9410  129.7310   32.2920 N.3     9  LYS9       -0.1245
      2  CA        36.6400  129.1110   32.5230 C.3     9  LYS9        0.1561
      3  C         36.3970  128.8140   33.9940 C.2     9  LYS9        0.2260
      4  O         35.3420  129.1480   34.5350 O.2     9  LYS9       -0.2867
      5  CB        36.5090  127.8180   31.7220 C.3     9  LYS9        0.0271
      6  CG        35.3830  127.8350   30.7100 C.3     9  LYS9        0.0035
      7  CD        34.0110  127.9460   31.3500 C.3     9  LYS9        0.0206
      8  CE        32.9280  127.9130   30.2810 C.3     9  LYS9        0.1093
      9  NZ        31.5620  128.1010   30.8360 N.3     9  LYS9       -0.1314
     10  N         35.8010  131.8600   35.8270 N.3    12  LEU12      -0.1231
     11  CA        34.5350  132.4610   35.4300 C.3    12  LEU12       0.1693
     12  C         33.3830  131.8470   36.2200 C.2    12  LEU12       0.2592
     13  O         32.4030  132.5210   36.5370 O.2    12  LEU12      -0.2718
     14  CB        34.2980  132.2890   33.9290 C.3    12  LEU12       0.0284
     15  CG        33.0430  132.9700   33.3790 C.3    12  LEU12       0.0019
     16  CD1       33.1640  134.4810   33.5010 C.3    12  LEU12       0.0001
     17  CD2       32.7850  132.5590   31.9380 C.3    12  LEU12       0.0001
     18  N         33.5140  130.5650   36.5460 N.am   13  ASN13      -0.1974
     19  CA        32.4570  129.8440   37.2450 C.3    13  ASN13       0.1688
     20  C         32.5690  129.9550   38.7630 C.2    13  ASN13       0.2292
     21  O         31.8000  129.3340   39.4940 O.2    13  ASN13      -0.2864
     22  CB        32.4650  128.3730   36.8320 C.3    13  ASN13       0.1181
     23  CG        32.2990  128.1890   35.3380 C.2    13  ASN13       0.2629
     24  OD1       31.5510  128.9200   34.6890 O.2    13  ASN13      -0.2716
     25  ND2       33.0060  127.2130   34.7820 N.am   13  ASN13      -0.0877
     26  N         32.9140  133.1590   40.1900 N.3    15  LEU15      -0.1231
     27  CA        32.4830  134.5090   40.5220 C.3    15  LEU15       0.1693
     28  C         31.1400  134.4780   41.2360 C.2    15  LEU15       0.2593
     29  O         30.3150  133.6030   40.9740 O.2    15  LEU15      -0.2718
     30  CB        32.3840  135.3700   39.2610 C.3    15  LEU15       0.0284
     31  CG        33.6680  135.5490   38.4490 C.3    15  LEU15       0.0019
     32  CD1       33.4370  136.4820   37.2710 C.3    15  LEU15       0.0001
     33  CD2       34.7910  136.0660   39.3330 C.3    15  LEU15       0.0001
     34  N         30.9190  135.4290   42.1380 N.am   16  SER16      -0.1938
     35  CA        29.5900  135.6250   42.7020 C.3    16  SER16       0.2055
     36  C         28.6770  136.1140   41.5850 C.2    16  SER16       0.2642
     37  O         29.1560  136.5090   40.5240 O.2    16  SER16      -0.2714
     38  CB        29.6160  136.6260   43.8570 C.3    16  SER16       0.2130
     39  OG        29.7220  137.9530   43.3730 O.3    16  SER16      -0.2179
     40  N         27.3690  136.1000   41.8150 N.am   17  ARG17      -0.1977
     41  CA        26.4340  136.4810   40.7630 C.3    17  ARG17       0.1597
     42  C         26.5390  137.9690   40.4380 C.2    17  ARG17       0.2287
     43  O         26.1290  138.4040   39.3620 O.2    17  ARG17      -0.2864
     44  CB        24.9910  136.1440   41.1460 C.3    17  ARG17       0.0334
     45  CG        24.2220  137.3070   41.7650 C.3    17  ARG17       0.0492
     46  CD        22.7340  137.0040   41.8690 C.3    17  ARG17       0.2205
     47  NE        21.9300  138.2250   41.8220 N.pl3  17  ARG17      -0.0865
     48  CZ        20.6520  138.2660   41.4570 C.cat  17  ARG17       0.5346
     49  NH1       20.0270  137.1520   41.1000 N.pl3  17  ARG17       0.1354
     50  NH2       19.9990  139.4210   41.4400 N.pl3  17  ARG17       0.1354
     51  N         30.2170  138.4510   38.7230 N.3    20  PHE20      -0.1241
     52  CA        30.0830  137.9680   37.3540 C.3    20  PHE20       0.1605
     53  C         29.3070  138.9700   36.5120 C.2    20  PHE20       0.2264
     54  O         29.6300  139.1960   35.3440 O.2    20  PHE20      -0.2867
     55  CB        29.3890  136.6000   37.3440 C.3    20  PHE20       0.0534
     56  CG        28.8140  136.2080   36.0110 C.ar   20  PHE20      -0.0203
     57  CD1       29.6140  135.6400   35.0340 C.ar   20  PHE20      -0.0042
     58  CD2       27.4650  136.3880   35.7440 C.ar   20  PHE20      -0.0042
     59  CE1       29.0820  135.2710   33.8090 C.ar   20  PHE20      -0.0003
     60  CE2       26.9290  136.0230   34.5210 C.ar   20  PHE20      -0.0003
     61  CZ        27.7380  135.4640   33.5530 C.ar   20  PHE20      -0.0000
     62  N         30.9020  140.4960   33.1510 N.3    24  LYS24      -0.1245
     63  CA        30.2800  140.1030   31.8910 C.3    24  LYS24       0.1561
     64  C         30.4040  141.1710   30.8090 C.2    24  LYS24       0.2260
     65  O         30.5300  140.8520   29.6260 O.2    24  LYS24      -0.2867
     66  CB        28.8040  139.7640   32.1220 C.3    24  LYS24       0.0271
     67  CG        28.0520  139.3200   30.8750 C.3    24  LYS24       0.0035
     68  CD        26.6070  138.9620   31.1970 C.3    24  LYS24       0.0206
     69  CE        25.8060  138.6690   29.9360 C.3    24  LYS24       0.1093
     70  NZ        26.4130  137.5850   29.1160 N.3    24  LYS24      -0.1314
     71  N         26.1250  127.3660   24.6550 N.3   145  SER145     -0.1202
     72  CA        27.1360  127.4560   25.7070 C.3   145  SER145      0.2020
     73  C         26.9110  126.4430   26.8230 C.2   145  SER145      0.2619
     74  O         25.8240  125.8850   26.9650 O.2   145  SER145     -0.2717
     75  CB        27.1730  128.8670   26.2990 C.3   145  SER145      0.2103
     76  OG        25.9670  129.1690   26.9780 O.3   145  SER145     -0.2182
     77  N         27.9570  126.2160   27.6120 N.am  146  SER146     -0.1938
     78  CA        27.9040  125.2800   28.7270 C.3   146  SER146      0.2040
     79  C         28.9500  125.6250   29.7790 C.2   146  SER146      0.2485
     80  O         30.0710  126.0020   29.4440 O.2   146  SER146     -0.2729
     81  CB        28.1140  123.8460   28.2390 C.3   146  SER146      0.2129
     82  OG        28.2450  122.9540   29.3320 O.3   146  SER146     -0.2179
     83  N         28.5840  125.4930   31.0620 N.am  147  PRO147     -0.2726
     84  CA        29.5290  125.7160   32.1610 C.3   147  PRO147      0.1402
     85  C         30.6420  124.6710   32.1760 C.2   147  PRO147      0.2269
     86  O         31.6140  124.8120   32.9170 O.2   147  PRO147     -0.2865
     87  CB        28.6500  125.6040   33.4110 C.3   147  PRO147      0.0296
     88  CG        27.4690  124.8100   32.9810 C.3   147  PRO147      0.0237
     89  CD        27.2320  125.1740   31.5490 C.3   147  PRO147      0.0939
     90  N         31.2060  122.0690   25.9910 N.3   152  GLU152     -0.1245
     91  CA        31.3130  123.0730   24.9410 C.3   152  GLU152      0.1567
     92  C         32.2050  122.5660   23.8140 C.2   152  GLU152      0.2260
     93  O         31.9370  122.8160   22.6360 O.2   152  GLU152     -0.2867
     94  CB        31.8640  124.3890   25.4950 C.3   152  GLU152      0.0388
     95  CG        30.8560  125.2120   26.2800 C.3   152  GLU152      0.1160
     96  CD        31.3950  126.5780   26.6690 C.2   152  GLU152      0.3649
     97  OE1       32.6230  126.7850   26.5780 O.co2 152  GLU152     -0.2457
     98  OE2       30.5890  127.4490   27.0580 O.co2 152  GLU152     -0.2457
     99  N         32.4130  128.4900   19.2070 N.3   177  LEU177     -0.1245
    100  CA        32.0000  128.7440   20.5860 C.3   177  LEU177      0.1561
    101  C         33.1480  128.5970   21.5830 C.2   177  LEU177      0.2260
    102  O         33.4650  129.5320   22.3170 O.2   177  LEU177     -0.2867
    103  CB        30.8570  127.8030   20.9720 C.3   177  LEU177      0.0270
    104  CG        30.2350  128.0270   22.3520 C.3   177  LEU177      0.0019
    105  CD1       29.4040  129.3020   22.3710 C.3   177  LEU177      0.0001
    106  CD2       29.4030  126.8260   22.7740 C.3   177  LEU177      0.0001
    107  N         30.5200  139.2650   24.7970 N.3   206  ARG206     -0.1245
    108  CA        30.6320  139.4820   26.2340 C.3   206  ARG206      0.1563
    109  C         31.8220  138.7130   26.7960 C.2   206  ARG206      0.2260
    110  O         32.2340  137.6980   26.2400 O.2   206  ARG206     -0.2867
    111  CB        29.3440  139.0660   26.9530 C.3   206  ARG206      0.0307
    112  CG        28.1840  140.0350   26.7810 C.3   206  ARG206      0.0489
    113  CD        27.5100  139.8880   25.4260 C.3   206  ARG206      0.2205
    114  NE        26.4730  140.8950   25.2260 N.pl3 206  ARG206     -0.0865
    115  CZ        25.2070  140.7460   25.6000 C.cat 206  ARG206      0.5346
    116  NH1       24.8130  139.6280   26.1960 N.pl3 206  ARG206      0.1354
    117  NH2       24.3350  141.7190   25.3790 N.pl3 206  ARG206      0.1354
    118  N         31.9720  136.8540   29.1760 N.3   208  SER208     -0.1202
    119  CA        31.5470  135.5700   29.7230 C.3   208  SER208      0.2020
    120  C         31.5380  134.4640   28.6700 C.2   208  SER208      0.2619
    121  O         31.1450  133.3340   28.9520 O.2   208  SER208     -0.2717
    122  CB        30.1620  135.7010   30.3560 C.3   208  SER208      0.2103
    123  OG        29.2470  136.2930   29.4510 O.3   208  SER208     -0.2182
    124  N         31.9630  134.7970   27.4570 N.am  209  THR209     -0.1952
    125  CA        32.1430  133.7920   26.4200 C.3   209  THR209      0.1897
    126  C         33.4870  133.9810   25.7280 C.2   209  THR209      0.2313
    127  O         33.9530  135.1060   25.5390 O.2   209  THR209     -0.2863
    128  CB        31.0140  133.8300   25.3740 C.3   209  THR209      0.1794
    129  OG1       31.3310  132.9360   24.3000 O.3   209  THR209     -0.2208
    130  CG2       30.8360  135.2330   24.8210 C.3   209  THR209      0.0378
@<TRIPOS>BOND
     1    99   100    1
     2   100   103    1
     3   100   101    1
     4   103   104    1
     5   101   102    2
     6   104   105    1
     7   104   106    1
     8    93    92    2
     9    92    91    1
    10   129   128    1
    11    71    72    1
    12   107   108    1
    13   130   128    1
    14    91    94    1
    15    91    90    1
    16   114   113    1
    17   114   115    2
    18   128   125    1
    19   117   115    1
    20   113   112    1
    21    94    95    1
    22   127   126    2
    23   115   116    1
    24    72    75    1
    25    72    73    1
    26   126   125    1
    27   108   109    1
    28   108   111    1
    29   110   109    2
    30    95    96    1
    31    75    76    1
    32   125   124    1
    33    97    96   ar
    34    96    98   ar
    35   112   111    1
    36    73    74    2
    37    73    77   am
    38   124   120   am
    39    77    78    1
    40    81    78    1
    41    81    82    1
    42   120   121    2
    43   120   119    1
    44    78    79    1
    45    70    69    1
    46   118   119    1
    47    80    79    2
    48   123   122    1
    49    65    64    2
    50   119   122    1
    51    79    83   am
    52    69    68    1
    53     8     9    1
    54     8     7    1
    55     6     7    1
    56     6     5    1
    57    64    63    1
    58    67    68    1
    59    67    66    1
    60    83    89    1
    61    83    84    1
    62    89    88    1
    63     5     2    1
    64    63    66    1
    65    63    62    1
    66    17    15    1
    67    84    85    1
    68    84    87    1
    69    85    86    2
    70     1     2    1
    71     2     3    1
    72    88    87    1
    73    15    16    1
    74    15    14    1
    75    61    59   ar
    76    61    60   ar
    77    59    57   ar
    78    14    11    1
    79     3     4    2
    80    60    58   ar
    81    24    23    2
    82    25    23   am
    83    57    56   ar
    84    23    22    1
    85    54    53    2
    86    11    10    1
    87    11    12    1
    88    58    56   ar
    89    56    55    1
    90    12    13    2
    91    12    18   am
    92    53    52    1
    93    18    19    1
    94    22    19    1
    95    19    20    1
    96    32    31    1
    97    55    52    1
    98    52    51    1
    99    31    30    1
   100    31    33    1
   101    20    21    2
   102    30    27    1
   103    43    42    2
   104    26    27    1
   105    42    41    1
   106    27    28    1
   107    37    36    2
   108    41    44    1
   109    41    40    1
   110    29    28    2
   111    49    48    1
   112    44    45    1
   113    28    34   am
   114    50    48    1
   115    48    47    2
   116    36    40   am
   117    36    35    1
   118    45    46    1
   119    47    46    1
   120    34    35    1
   121    35    38    1
   122    39    38    1
