@<TRIPOS>MOLECULE
tmp/5dtqA00.pdb
 147 143 0 0 0
SMALL
GASTEIGER

@<TRIPOS>ATOM
      1  N        -28.2190   20.7380  -19.1000 N.3   120  PRO120     -0.2102
      2  CA       -29.3360   20.6250  -18.1400 C.3   120  PRO120      0.1504
      3  C        -29.4340   21.7850  -17.1360 C.2   120  PRO120      0.2575
      4  O        -30.5010   21.9890  -16.5440 O.2   120  PRO120     -0.2718
      5  CB       -29.0810   19.2790  -17.4560 C.3   120  PRO120      0.0282
      6  CG       -27.5950   19.1140  -17.5090 C.3   120  PRO120      0.0208
      7  CD       -27.1440   19.7630  -18.7940 C.3   120  PRO120      0.0893
      8  N        -28.3290   22.5320  -16.9320 N.am  121  PHE121     -0.1977
      9  CA       -28.3110   23.6820  -16.0170 C.3   121  PHE121      0.1639
     10  C        -28.0660   25.0000  -16.8000 C.2   121  PHE121      0.2290
     11  O        -27.2520   25.8420  -16.4020 O.2   121  PHE121     -0.2864
     12  CB       -27.3140   23.4650  -14.8510 C.3   121  PHE121      0.0560
     13  CG       -27.8310   22.6140  -13.7140 C.ar  121  PHE121     -0.0200
     14  CD1      -27.9750   21.2360  -13.8610 C.ar  121  PHE121     -0.0042
     15  CD2      -28.1010   23.1760  -12.4670 C.ar  121  PHE121     -0.0042
     16  CE1      -28.4260   20.4460  -12.8020 C.ar  121  PHE121     -0.0003
     17  CE2      -28.5460   22.3840  -11.4020 C.ar  121  PHE121     -0.0003
     18  CZ       -28.7060   21.0260  -11.5790 C.ar  121  PHE121     -0.0000
     19  N        -33.5000   27.6630  -15.6250 N.3   126  TYR126     -0.1241
     20  CA       -32.9830   28.1750  -14.3410 C.3   126  TYR126      0.1605
     21  C        -33.9300   28.0110  -13.1440 C.2   126  TYR126      0.2264
     22  O        -33.4730   27.6540  -12.0550 O.2   126  TYR126     -0.2867
     23  CB       -32.5270   29.6400  -14.4460 C.3   126  TYR126      0.0534
     24  CG       -31.7630   30.1230  -13.2270 C.ar  126  TYR126     -0.0201
     25  CD1      -30.4020   29.8480  -13.0770 C.ar  126  TYR126     -0.0009
     26  CD2      -32.4000   30.8390  -12.2160 C.ar  126  TYR126     -0.0009
     27  CE1      -29.7080   30.2350  -11.9310 C.ar  126  TYR126      0.0417
     28  CE2      -31.7060   31.2600  -11.0780 C.ar  126  TYR126      0.0417
     29  CZ       -30.3570   30.9610  -10.9450 C.ar  126  TYR126      0.1957
     30  OH       -29.6450   31.3960   -9.8600 O.3   126  TYR126     -0.2866
     31  N        -31.7720   25.0540  -10.5850 N.3   130  SER130     -0.1217
     32  CA       -30.7610   26.0620  -10.2760 C.3   130  SER130      0.1889
     33  C        -31.1870   27.0430   -9.2170 C.2   130  SER130      0.2288
     34  O        -30.4460   27.2320   -8.2690 O.2   130  SER130     -0.2866
     35  CB       -30.2920   26.7940  -11.5290 C.3   130  SER130      0.2089
     36  OG       -29.6440   25.9520  -12.4620 O.3   130  SER130     -0.2183
     37  N        -31.1390   25.2280   -5.9210 N.3   133  LEU133     -0.1231
     38  CA       -29.7720   24.8280   -5.5900 C.3   133  LEU133      0.1693
     39  C        -28.9390   26.0300   -5.1860 C.2   133  LEU133      0.2591
     40  O        -28.2970   25.9530   -4.1480 O.2   133  LEU133     -0.2718
     41  CB       -29.0940   23.9690   -6.6800 C.3   133  LEU133      0.0284
     42  CG       -27.8940   23.0750   -6.1960 C.3   133  LEU133      0.0019
     43  CD1      -28.2780   22.1380   -5.0560 C.3   133  LEU133      0.0001
     44  CD2      -27.2170   22.3230   -7.3450 C.3   133  LEU133      0.0001
     45  N        -28.9800   27.1560   -5.9530 N.am  134  VAL134     -0.1980
     46  CA       -28.3070   28.4150   -5.6060 C.3   134  VAL134      0.1595
     47  C        -28.8280   28.9000   -4.2070 C.2   134  VAL134      0.2287
     48  O        -28.0430   29.2880   -3.3610 O.2   134  VAL134     -0.2864
     49  CB       -28.4900   29.4990   -6.7050 C.3   134  VAL134      0.0276
     50  CG1      -28.0190   30.8870   -6.2220 C.3   134  VAL134      0.0022
     51  CG2      -27.7920   29.1060   -8.0080 C.3   134  VAL134      0.0022
     52  N        -27.2080   26.8420   -1.5700 N.3   137  MET137     -0.1245
     53  CA       -25.8340   27.3160   -1.4730 C.3   137  MET137      0.1570
     54  C        -25.7020   28.6380   -0.6680 C.2   137  MET137      0.2261
     55  O        -24.8620   28.7170    0.2380 O.2   137  MET137     -0.2867
     56  CB       -25.1930   27.4290   -2.8540 C.3   137  MET137      0.0387
     57  CG       -23.8050   27.9320   -2.8050 C.3   137  MET137      0.0595
     58  SD       -23.5350   29.0160   -4.2020 S.3   137  MET137     -0.1393
     59  CE       -24.2110   30.5570   -3.6310 C.3   137  MET137      0.0692
     60  N        -27.3350   33.6930  -11.6160 N.3   159  VAL159     -0.1245
     61  CA       -26.7100   33.3690  -10.3150 C.3   159  VAL159      0.1561
     62  C        -26.3310   34.6720   -9.5940 C.2   159  VAL159      0.2260
     63  O        -26.6490   34.8340   -8.4160 O.2   159  VAL159     -0.2867
     64  CB       -25.4630   32.4370  -10.4630 C.3   159  VAL159      0.0252
     65  CG1      -24.7920   32.1900   -9.0990 C.3   159  VAL159      0.0019
     66  CG2      -25.8310   31.1130  -11.1260 C.3   159  VAL159      0.0019
     67  N        -17.7670   31.0580   -7.8990 N.3   229  PHE229     -0.1227
     68  CA       -18.8390   30.1480   -8.2810 C.3   229  PHE229      0.1736
     69  C        -18.5560   29.7510   -9.7350 C.2   229  PHE229      0.2595
     70  O        -18.4910   30.6220  -10.5940 O.2   229  PHE229     -0.2718
     71  CB       -20.1850   30.8810   -8.1850 C.3   229  PHE229      0.0547
     72  CG       -21.3460   30.0390   -8.6390 C.ar  229  PHE229     -0.0202
     73  CD1      -21.6200   29.8710  -10.0000 C.ar  229  PHE229     -0.0042
     74  CD2      -22.1630   29.4010   -7.7170 C.ar  229  PHE229     -0.0042
     75  CE1      -22.6570   29.0370  -10.4290 C.ar  229  PHE229     -0.0003
     76  CE2      -23.2350   28.6150   -8.1460 C.ar  229  PHE229     -0.0003
     77  CZ       -23.4640   28.4210   -9.4980 C.ar  229  PHE229     -0.0000
     78  N        -18.4140   28.4720  -10.0300 N.am  230  VAL230     -0.1966
     79  CA       -18.1440   28.0910  -11.4140 C.3   230  VAL230      0.1727
     80  C        -18.8450   26.7810  -11.7870 C.2   230  VAL230      0.2616
     81  O        -18.6510   25.7690  -11.1540 O.2   230  VAL230     -0.2715
     82  CB       -16.6090   28.0970  -11.7570 C.3   230  VAL230      0.0290
     83  CG1      -15.7680   27.2140  -10.8170 C.3   230  VAL230      0.0023
     84  CG2      -16.3510   27.7760  -13.2200 C.3   230  VAL230      0.0023
     85  N        -19.6830   26.8210  -12.7930 N.am  231  ASN231     -0.1972
     86  CA       -20.3000   25.6170  -13.3380 C.3   231  ASN231      0.1688
     87  C        -19.2930   25.1490  -14.4030 C.2   231  ASN231      0.2292
     88  O        -19.2680   25.6670  -15.5280 O.2   231  ASN231     -0.2864
     89  CB       -21.6620   25.9290  -13.9570 C.3   231  ASN231      0.1181
     90  CG       -22.3000   24.7700  -14.6800 C.2   231  ASN231      0.2629
     91  OD1      -21.8100   23.6160  -14.6970 O.2   231  ASN231     -0.2716
     92  ND2      -23.4340   25.0650  -15.2730 N.am  231  ASN231     -0.0877
     93  N        -18.8690   21.9170  -15.3180 N.3   233  PHE233     -0.1241
     94  CA       -19.2720   20.6060  -15.8040 C.3   233  PHE233      0.1605
     95  C        -18.7950   20.2910  -17.2530 C.2   233  PHE233      0.2264
     96  O        -18.3080   19.1920  -17.5150 O.2   233  PHE233     -0.2867
     97  CB       -20.7950   20.4290  -15.6590 C.3   233  PHE233      0.0534
     98  CG       -21.1530   18.9880  -15.4040 C.ar  233  PHE233     -0.0203
     99  CD1      -21.0830   18.4560  -14.1230 C.ar  233  PHE233     -0.0042
    100  CD2      -21.5210   18.1470  -16.4540 C.ar  233  PHE233     -0.0042
    101  CE1      -21.3660   17.1070  -13.8960 C.ar  233  PHE233     -0.0003
    102  CE2      -21.8020   16.7970  -16.2270 C.ar  233  PHE233     -0.0003
    103  CZ       -21.7130   16.2840  -14.9520 C.ar  233  PHE233     -0.0000
    104  N        -17.1600   27.2170   -5.3250 N.3   257  VAL257     -0.1231
    105  CA       -18.3790   26.4300   -5.4490 C.3   257  VAL257      0.1692
    106  C        -18.4730   26.0010   -6.9190 C.2   257  VAL257      0.2593
    107  O        -18.4060   26.8360   -7.8290 O.2   257  VAL257     -0.2718
    108  CB       -19.5920   27.2250   -4.9580 C.3   257  VAL257      0.0266
    109  CG1      -20.8950   26.4740   -5.2710 C.3   257  VAL257      0.0020
    110  CG2      -19.4700   27.5250   -3.4560 C.3   257  VAL257      0.0020
    111  N        -18.4970   24.6850   -7.1520 N.am  258  SER258     -0.1938
    112  CA       -18.4950   24.1740   -8.5160 C.3   258  SER258      0.2055
    113  C        -19.3360   22.9460   -8.6900 C.2   258  SER258      0.2643
    114  O        -19.7090   22.3180   -7.6950 O.2   258  SER258     -0.2714
    115  CB       -17.0640   23.9380   -9.0000 C.3   258  SER258      0.2130
    116  OG       -16.4440   22.8220   -8.3900 O.3   258  SER258     -0.2179
    117  N        -19.6350   22.6000   -9.9730 N.am  259  SER259     -0.1949
    118  CA       -20.4230   21.4150  -10.3240 C.3   259  SER259      0.1924
    119  C        -19.5930   20.1370  -10.3670 C.2   259  SER259      0.2314
    120  O        -20.1250   19.0660  -10.0390 O.2   259  SER259     -0.2863
    121  CB       -21.2220   21.6160  -11.6040 C.3   259  SER259      0.2116
    122  OG       -20.5410   22.3600  -12.5890 O.3   259  SER259     -0.2180
    123  N        -29.2680   16.2360   -6.8460 N.3   298  VAL298     -0.1231
    124  CA       -28.1140   17.0360   -7.2490 C.3   298  VAL298      0.1692
    125  C        -27.1170   17.2770   -6.1100 C.2   298  VAL298      0.2593
    126  O        -27.4400   17.0890   -4.9370 O.2   298  VAL298     -0.2718
    127  CB       -28.5040   18.3750   -7.9490 C.3   298  VAL298      0.0266
    128  CG1      -29.1290   18.1210   -9.3160 C.3   298  VAL298      0.0020
    129  CG2      -29.4220   19.2170   -7.0780 C.3   298  VAL298      0.0020
    130  N        -25.8960   17.6970   -6.4920 N.am  299  SER299     -0.1938
    131  CA       -24.7720   17.9820   -5.6280 C.3   299  SER299      0.2055
    132  C        -23.9050   19.0810   -6.2220 C.2   299  SER299      0.2643
    133  O        -23.7700   19.2200   -7.4440 O.2   299  SER299     -0.2714
    134  CB       -23.8920   16.7420   -5.4970 C.3   299  SER299      0.2130
    135  OG       -24.6020   15.6840   -4.8790 O.3   299  SER299     -0.2179
    136  N        -23.2490   19.7980   -5.3500 N.am  300  TYR300     -0.1973
    137  CA       -22.2420   20.7490   -5.7460 C.3   300  TYR300      0.1639
    138  C        -21.0450   20.5160   -4.8320 C.2   300  TYR300      0.2290
    139  O        -21.1010   19.6950   -3.8980 O.2   300  TYR300     -0.2864
    140  CB       -22.7520   22.2000   -5.8230 C.3   300  TYR300      0.0560
    141  CG       -23.2210   22.7680   -4.5070 C.ar  300  TYR300     -0.0198
    142  CD1      -24.5310   22.5970   -4.0810 C.ar  300  TYR300     -0.0009
    143  CD2      -22.3670   23.5090   -3.7040 C.ar  300  TYR300     -0.0009
    144  CE1      -24.9750   23.1310   -2.8710 C.ar  300  TYR300      0.0417
    145  CE2      -22.7890   24.0290   -2.4810 C.ar  300  TYR300      0.0417
    146  CZ       -24.1000   23.8470   -2.0700 C.ar  300  TYR300      0.1957
    147  OH       -24.5290   24.3260   -0.8470 O.3   300  TYR300     -0.2866
@<TRIPOS>BOND
     1     1     7    1
     2     1     2    1
     3     7     6    1
     4     2     5    1
     5     2     3    1
     6    96    95    2
     7     6     5    1
     8    95    94    1
     9     3     8   am
    10     3     4    2
    11     8     9    1
    12    10    11    2
    13    10     9    1
    14   100   102   ar
    15   100    98   ar
    16   102   103   ar
    17     9    12    1
    18    94    97    1
    19    94    93    1
    20    97    98    1
    21    19    20    1
    22    88    87    2
    23    98    99   ar
    24    92    90   am
    25   103   101   ar
    26    12    13    1
    27    91    90    2
    28    90    89    1
    29    23    20    1
    30    23    24    1
    31    87    86    1
    32    20    21    1
    33    99   101   ar
    34    89    86    1
    35    14    13   ar
    36    14    16   ar
    37    13    15   ar
    38    86    85    1
    39    24    25   ar
    40    24    26   ar
    41    84    82    1
    42    21    22    2
    43    25    27   ar
    44    16    18   ar
    45    85    80   am
    46   122   121    1
    47    15    17   ar
    48    36    35    1
    49    26    28   ar
    50    27    29   ar
    51    80    79    1
    52    80    81    2
    53    82    79    1
    54    82    83    1
    55    60    61    1
    56   121   118    1
    57    18    17   ar
    58    35    32    1
    59    79    78    1
    60    66    64    1
    61    28    29   ar
    62    29    30    1
    63    70    69    2
    64    31    32    1
    65    64    61    1
    66    64    65    1
    67    75    73   ar
    68    75    77   ar
    69   119   118    1
    70   119   120    2
    71   118   117    1
    72    61    62    1
    73    32    33    1
    74    78    69   am
    75    73    72   ar
    76   117   113   am
    77    69    68    1
    78    62    63    2
    79    77    76   ar
    80   128   127    1
    81    33    34    2
    82   115   112    1
    83   115   116    1
    84   113   112    1
    85   113   114    2
    86    72    71    1
    87    72    74   ar
    88   112   111    1
    89    68    71    1
    90    68    67    1
    91    76    74   ar
    92    51    49    1
    93   127   124    1
    94   127   129    1
    95   107   106    2
    96   133   132    2
    97    44    42    1
    98   124   123    1
    99   124   125    1
   100   111   106   am
   101   106   105    1
   102    49    50    1
   103    49    46    1
   104    41    42    1
   105    41    38    1
   106   130   125   am
   107   130   131    1
   108   132   131    1
   109   132   136   am
   110    42    43    1
   111   125   126    2
   112    45    46    1
   113    45    39   am
   114    37    38    1
   115   140   137    1
   116   140   141    1
   117   137   136    1
   118   137   138    1
   119   131   134    1
   120    46    47    1
   121    38    39    1
   122   134   135    1
   123   105   104    1
   124   105   108    1
   125   109   108    1
   126    39    40    2
   127   108   110    1
   128   138   139    2
   129   141   142   ar
   130   141   143   ar
   131    47    48    2
   132    58    59    1
   133    58    57    1
   134   142   144   ar
   135   143   145   ar
   136   144   146   ar
   137    56    57    1
   138    56    53    1
   139   145   146   ar
   140   146   147    1
   141    52    53    1
   142    53    54    1
   143    54    55    2
