@<TRIPOS>MOLECULE
tmp/5dtrA00.pdb
 167 161 0 0 0
SMALL
GASTEIGER

@<TRIPOS>ATOM
      1  N         32.3090  -14.3860   19.1620 N.3   119  PRO119     -0.2102
      2  CA        32.9760  -15.1940   18.1150 C.3   119  PRO119      0.1504
      3  C         33.9820  -14.3810   17.2830 C.2   119  PRO119      0.2575
      4  O         34.7170  -14.9540   16.4730 O.2   119  PRO119     -0.2718
      5  CB        31.8070  -15.7020   17.2620 C.3   119  PRO119      0.0282
      6  CG        30.7610  -14.6490   17.4050 C.3   119  PRO119      0.0208
      7  CD        30.8850  -14.1540   18.8270 C.3   119  PRO119      0.0893
      8  N         34.0180  -13.0430   17.5170 N.am  120  PHE120     -0.1977
      9  CA        34.9000  -12.0460   16.8980 C.3   120  PHE120      0.1639
     10  C         36.1040  -11.7340   17.8280 C.2   120  PHE120      0.2290
     11  O         36.7170  -10.6630   17.7230 O.2   120  PHE120     -0.2864
     12  CB        34.1260  -10.7430   16.6120 C.3   120  PHE120      0.0560
     13  CG        32.8880  -10.8130   15.7480 C.ar  120  PHE120     -0.0200
     14  CD1       32.9890  -10.9380   14.3680 C.ar  120  PHE120     -0.0042
     15  CD2       31.6260  -10.6000   16.2950 C.ar  120  PHE120     -0.0042
     16  CE1       31.8440  -10.9060   13.5600 C.ar  120  PHE120     -0.0003
     17  CE2       30.4820  -10.5820   15.4850 C.ar  120  PHE120     -0.0003
     18  CZ        30.5970  -10.7440   14.1250 C.ar  120  PHE120     -0.0000
     19  N         40.5540  -16.1280   18.1730 N.3   124  VAL124     -0.1245
     20  CA        40.0940  -17.0050   17.0850 C.3   124  VAL124      0.1561
     21  C         40.1100  -16.3260   15.6970 C.2   124  VAL124      0.2260
     22  O         39.4030  -16.7850   14.8000 O.2   124  VAL124     -0.2867
     23  CB        38.7060  -17.6580   17.3980 C.3   124  VAL124      0.0252
     24  CG1       38.8170  -18.6250   18.5670 C.3   124  VAL124      0.0019
     25  CG2       37.5950  -16.6230   17.6290 C.3   124  VAL124      0.0019
     26  N         40.4520  -18.4380   12.4040 N.3   127  GLU127     -0.1182
     27  CA        39.3520  -19.3770   12.1480 C.3   127  GLU127      0.1915
     28  C         38.4520  -19.0310   10.9370 C.2   127  GLU127      0.2635
     29  O         38.3400  -19.8590   10.0230 O.2   127  GLU127     -0.2714
     30  CB        38.4920  -19.5760   13.4210 C.2   127  GLU127      0.0085
     31  CG        37.0790  -20.1270   13.1850 C.2   127  GLU127      0.0835
     32  CD        36.3190  -20.5810   14.4150 C.2   127  GLU127      0.3877
     33  OE1       35.1560  -20.1500   14.6020 O.co2 127  GLU127     -0.2406
     34  OE2       36.8560  -21.4460   15.1430 O.co2 127  GLU127     -0.2406
     35  N         37.7350  -17.8850   10.9790 N.am  128  THR128     -0.1936
     36  CA        36.8220  -17.4850    9.9010 C.3   128  THR128      0.2028
     37  C         37.1550  -16.0820    9.4640 C.2   128  THR128      0.2642
     38  O         37.0410  -15.7710    8.2650 O.2   128  THR128     -0.2714
     39  CB        35.3310  -17.5910   10.3700 C.3   128  THR128      0.1808
     40  OG1       35.0530  -18.9310   10.7790 O.3   128  THR128     -0.2208
     41  CG2       34.3190  -17.1680    9.2820 C.3   128  THR128      0.0379
     42  N         37.5560  -15.2320   10.4420 N.am  129  SER129     -0.1949
     43  CA        37.8290  -13.8120   10.2160 C.3   129  SER129      0.1924
     44  C         38.8240  -13.5690    9.1270 C.2   129  SER129      0.2314
     45  O         38.5530  -12.7700    8.2310 O.2   129  SER129     -0.2863
     46  CB        38.2380  -13.0930   11.5020 C.3   129  SER129      0.2116
     47  OG        37.1290  -12.7610   12.3200 O.3   129  SER129     -0.2180
     48  N         37.2900  -14.4530    5.6800 N.3   132  LEU132     -0.1231
     49  CA        36.2950  -13.4520    5.3030 C.3   132  LEU132      0.1693
     50  C         36.9240  -12.1000    4.9680 C.2   132  LEU132      0.2591
     51  O         36.5240  -11.5120    3.9770 O.2   132  LEU132     -0.2718
     52  CB        35.1680  -13.3250    6.3420 C.3   132  LEU132      0.0284
     53  CG        33.8040  -12.8290    5.7670 C.3   132  LEU132      0.0019
     54  CD1       33.2730  -13.7600    4.7160 C.3   132  LEU132      0.0001
     55  CD2       32.7740  -12.6750    6.8650 C.3   132  LEU132      0.0001
     56  N         37.9770  -11.6580    5.7060 N.am  133  VAL133     -0.1980
     57  CA        38.7170  -10.4370    5.3680 C.3   133  VAL133      0.1595
     58  C         39.3970  -10.6300    3.9950 C.2   133  VAL133      0.2287
     59  O         39.3640   -9.7160    3.1880 O.2   133  VAL133     -0.2864
     60  CB        39.7270  -10.0090    6.4680 C.3   133  VAL133      0.0276
     61  CG1       40.5680   -8.8080    6.0160 C.3   133  VAL133      0.0022
     62  CG2       39.0150   -9.7040    7.7940 C.3   133  VAL133      0.0022
     63  N         36.8040  -10.1870    1.3970 N.3   136  MET136     -0.1245
     64  CA        36.5020   -8.7580    1.4180 C.3   136  MET136      0.1570
     65  C         37.5680   -7.9790    0.5990 C.2   136  MET136      0.2261
     66  O         37.2110   -7.1710   -0.2600 O.2   136  MET136     -0.2867
     67  CB        36.4100   -8.3170    2.8900 C.3   136  MET136      0.0387
     68  CG        35.9070   -6.8990    3.1360 C.3   136  MET136      0.0595
     69  SD        37.2210   -5.6540    3.0600 S.3   136  MET136     -0.1393
     70  CE        38.1960   -5.9990    4.5460 C.3   136  MET136      0.0692
     71  N         42.8570   -6.9040   11.4910 N.3   158  VAL158     -0.1245
     72  CA        42.2430   -6.5680   10.1990 C.3   158  VAL158      0.1561
     73  C         43.1480   -5.5720    9.4640 C.2   158  VAL158      0.2260
     74  O         43.4330   -5.7610    8.2780 O.2   158  VAL158     -0.2867
     75  CB        40.7860   -6.0160   10.3670 C.3   158  VAL158      0.0252
     76  CG1       40.2030   -5.5770    9.0310 C.3   158  VAL158      0.0019
     77  CG2       39.8700   -7.0410   11.0420 C.3   158  VAL158      0.0019
     78  N         35.8490   -0.0140    7.6720 N.3   228  PHE228     -0.1227
     79  CA        35.5890   -1.3850    8.0850 C.3   228  PHE228      0.1736
     80  C         35.0930   -1.2420    9.5030 C.2   228  PHE228      0.2595
     81  O         35.7450   -0.5890   10.3200 O.2   228  PHE228     -0.2718
     82  CB        36.8710   -2.2510    8.0680 C.3   228  PHE228      0.0547
     83  CG        36.6790   -3.6880    8.5230 C.ar  228  PHE228     -0.0202
     84  CD1       36.6270   -4.0110    9.8860 C.ar  228  PHE228     -0.0042
     85  CD2       36.6430   -4.7240    7.6010 C.ar  228  PHE228     -0.0042
     86  CE1       36.4760   -5.3470   10.3100 C.ar  228  PHE228     -0.0003
     87  CE2       36.5490   -6.0700    8.0230 C.ar  228  PHE228     -0.0003
     88  CZ        36.4310   -6.3710    9.3720 C.ar  228  PHE228     -0.0000
     89  N         33.9460   -1.8440    9.8090 N.am  229  VAL229     -0.1966
     90  CA        33.4090   -1.7090   11.1510 C.3   229  VAL229      0.1727
     91  C         32.6380   -2.9520   11.5510 C.2   229  VAL229      0.2616
     92  O         31.7000   -3.3470   10.8710 O.2   229  VAL229     -0.2715
     93  CB        32.5990   -0.3660   11.3740 C.3   229  VAL229      0.0290
     94  CG1       31.4330   -0.1940   10.3880 C.3   229  VAL229      0.0023
     95  CG2       32.1510   -0.2040   12.8380 C.3   229  VAL229      0.0023
     96  N         33.0550   -3.5720   12.6620 N.am  230  ASN230     -0.1972
     97  CA        32.3210   -4.6820   13.2490 C.3   230  ASN230      0.1688
     98  C         31.3690   -4.0420   14.2700 C.2   230  ASN230      0.2292
     99  O         31.7450   -3.7510   15.4070 O.2   230  ASN230     -0.2864
    100  CB        33.2540   -5.7070   13.8950 C.3   230  ASN230      0.1181
    101  CG        32.5130   -6.8420   14.5320 C.2   230  ASN230      0.2629
    102  OD1       31.2840   -6.9830   14.4280 O.2   230  ASN230     -0.2716
    103  ND2       33.2450   -7.6630   15.2270 N.am  230  ASN230     -0.0877
    104  N         28.3940   -5.3240   15.1570 N.3   232  PHE232     -0.1241
    105  CA        27.4960   -6.3600   15.6550 C.3   232  PHE232      0.1605
    106  C         26.9350   -6.0940   17.0750 C.2   232  PHE232      0.2264
    107  O         25.7310   -6.2280   17.2930 O.2   232  PHE232     -0.2867
    108  CB        28.1860   -7.7340   15.5850 C.3   232  PHE232      0.0534
    109  CG        27.2380   -8.8220   15.1690 C.ar  232  PHE232     -0.0203
    110  CD1       26.4290   -9.4630   16.1090 C.ar  232  PHE232     -0.0042
    111  CD2       27.1220   -9.1880   13.8320 C.ar  232  PHE232     -0.0042
    112  CE1       25.5220  -10.4540   15.7180 C.ar  232  PHE232     -0.0003
    113  CE2       26.2170  -10.1760   13.4370 C.ar  232  PHE232     -0.0003
    114  CZ        25.4230  -10.8060   14.3840 C.ar  232  PHE232     -0.0000
    115  N         32.1080   -1.3080    5.0190 N.3   256  VAL256     -0.1231
    116  CA        32.0370   -2.7450    5.1420 C.3   256  VAL256      0.1692
    117  C         31.7450   -3.0320    6.6360 C.2   256  VAL256      0.2593
    118  O         32.4850   -2.5850    7.5340 O.2   256  VAL256     -0.2718
    119  CB        33.3610   -3.3680    4.6280 C.3   256  VAL256      0.0266
    120  CG1       33.4440   -4.8150    5.0400 C.3   256  VAL256      0.0020
    121  CG2       33.4510   -3.2590    3.1040 C.3   256  VAL256      0.0020
    122  N         30.6340   -3.7290    6.8990 N.am  257  SER257     -0.1938
    123  CA        30.1900   -3.9940    8.2670 C.3   257  SER257      0.2055
    124  C         29.5940   -5.3820    8.4350 C.2   257  SER257      0.2643
    125  O         29.3270   -6.0640    7.4440 O.2   257  SER257     -0.2714
    126  CB        29.2030   -2.9180    8.7190 C.3   257  SER257      0.2130
    127  OG        27.9730   -3.0320    8.0350 O.3   257  SER257     -0.2179
    128  N         29.4000   -5.7980    9.6870 N.am  258  SER258     -0.1949
    129  CA        28.8260   -7.1120   10.0280 C.3   258  SER258      0.1924
    130  C         27.2820   -7.0690   10.1160 C.2   258  SER258      0.2314
    131  O         26.6360   -8.1000    9.9120 O.2   258  SER258     -0.2863
    132  CB        29.4700   -7.7050   11.2860 C.3   258  SER258      0.2116
    133  OG        29.6170   -6.7110   12.2750 O.3   258  SER258     -0.2180
    134  N         32.2620  -21.1380    7.2800 N.3   295  LYS295     -0.1245
    135  CA        30.9790  -20.7880    7.9240 C.3   295  LYS295      0.1561
    136  C         30.0230  -20.0920    6.9590 C.2   295  LYS295      0.2260
    137  O         30.4740  -19.3430    6.0800 O.2   295  LYS295     -0.2867
    138  CB        31.1990  -19.9530    9.2020 C.3   295  LYS295      0.0271
    139  CG        31.7770  -20.8140   10.3190 C.3   295  LYS295      0.0035
    140  CD        31.7610  -20.1380   11.6700 C.3   295  LYS295      0.0206
    141  CE        32.3750  -21.0330   12.7190 C.3   295  LYS295      0.1093
    142  NZ        31.4950  -22.1730   13.0870 N.3   295  LYS295     -0.1314
    143  N         28.5140  -17.3500    6.4450 N.3   297  VAL297     -0.1231
    144  CA        28.5250  -15.9640    6.9030 C.3   297  VAL297      0.1692
    145  C         28.3920  -14.9530    5.7700 C.2   297  VAL297      0.2593
    146  O         28.6920  -15.2520    4.6130 O.2   297  VAL297     -0.2718
    147  CB        29.7590  -15.6520    7.7960 C.3   297  VAL297      0.0266
    148  CG1       29.6760  -16.4490    9.0930 C.3   297  VAL297      0.0020
    149  CG2       31.0600  -15.9540    7.0690 C.3   297  VAL297      0.0020
    150  N         27.9340  -13.7520    6.1350 N.am  298  SER298     -0.1938
    151  CA        27.7190  -12.6120    5.2620 C.3   298  SER298      0.2055
    152  C         28.3070  -11.3630    5.8870 C.2   298  SER298      0.2643
    153  O         28.4200  -11.2570    7.1070 O.2   298  SER298     -0.2714
    154  CB        26.2200  -12.3720    5.0900 C.3   298  SER298      0.2130
    155  OG        25.5930  -13.4200    4.3780 O.3   298  SER298     -0.2179
    156  N         28.6130  -10.3890    5.0510 N.am  299  TYR299     -0.1973
    157  CA        29.0150   -9.0620    5.4880 C.3   299  TYR299      0.1639
    158  C         28.2800   -8.0860    4.5560 C.2   299  TYR299      0.2290
    159  O         27.6220   -8.5200    3.5970 O.2   299  TYR299     -0.2864
    160  CB        30.5540   -8.8750    5.5920 C.3   299  TYR299      0.0560
    161  CG        31.2840   -8.9640    4.2740 C.ar  299  TYR299     -0.0198
    162  CD1       31.6660  -10.1920    3.7490 C.ar  299  TYR299     -0.0009
    163  CD2       31.6180   -7.8160    3.5590 C.ar  299  TYR299     -0.0009
    164  CE1       32.3620  -10.2810    2.5370 C.ar  299  TYR299      0.0417
    165  CE2       32.3210   -7.8920    2.3490 C.ar  299  TYR299      0.0417
    166  CZ        32.6740   -9.1310    1.8300 C.ar  299  TYR299      0.1957
    167  OH        33.2920   -9.2330    0.5910 O.3   299  TYR299     -0.2866
@<TRIPOS>BOND
     1    66    65    2
     2   167   166    1
     3    65    64    1
     4    63    64    1
     5    64    67    1
     6   166   165   ar
     7   166   164   ar
     8   165   163   ar
     9   164   162   ar
    10    67    68    1
    11    69    68    1
    12    69    70    1
    13   121   119    1
    14    59    58    2
    15   163   161   ar
    16   159   158    2
    17   162   161   ar
    18    51    50    2
    19    58    57    1
    20   161   160    1
    21   155   154    1
    22   158   157    1
    23   146   145    2
    24   119   120    1
    25   119   116    1
    26    54    53    1
    27    50    49    1
    28    50    56   am
    29   115   116    1
    30   156   157    1
    31   156   152   am
    32   154   151    1
    33   116   117    1
    34   151   152    1
    35   151   150    1
    36    49    48    1
    37    49    52    1
    38    57    56    1
    39    57    60    1
    40   157   160    1
    41    53    52    1
    42    53    55    1
    43   145   150   am
    44   145   144    1
    45   152   153    2
    46    61    60    1
    47   137   136    2
    48   143   144    1
    49    60    62    1
    50   117   122   am
    51   117   118    2
    52   122   123    1
    53   144   147    1
    54   136   135    1
    55   149   147    1
    56   134   135    1
    57   125   124    2
    58    85    87   ar
    59    85    83   ar
    60    78    79    1
    61   147   148    1
    62   135   138    1
    63    87    88   ar
    64   127   126    1
    65    82    79    1
    66    82    83    1
    67    79    80    1
    68    45    44    2
    69    38    37    2
    70   123   124    1
    71   123   126    1
    72    74    73    2
    73   124   128   am
    74    83    84   ar
    75    76    75    1
    76    44    43    1
    77   138   139    1
    78    41    39    1
    79    88    86   ar
    80    73    72    1
    81    37    36    1
    82    37    42   am
    83    80    89   am
    84    80    81    2
    85   128   129    1
    86    89    90    1
    87    84    86   ar
    88    36    39    1
    89    36    35    1
    90   131   130    2
    91    29    28    2
    92   129   130    1
    93   129   132    1
    94    72    75    1
    95    72    71    1
    96    43    42    1
    97    43    46    1
    98   139   140    1
    99    75    77    1
   100    39    40    1
   101    94    93    1
   102    92    91    2
   103    28    35   am
   104    28    27    1
   105    90    93    1
   106    90    91    1
   107   132   133    1
   108    93    95    1
   109    46    47    1
   110    91    96   am
   111   140   141    1
   112    27    26    1
   113    27    30    1
   114    96    97    1
   115   141   142    1
   116    31    30    2
   117    31    32    1
   118    97   100    1
   119    97    98    1
   120   113   111   ar
   121   113   114   ar
   122    16    18   ar
   123    16    14   ar
   124   111   109   ar
   125   100   101    1
   126    18    17   ar
   127    98    99    2
   128    14    13   ar
   129   114   112   ar
   130    32    33   ar
   131    32    34   ar
   132   102   101    2
   133   101   103   am
   134    22    21    2
   135   104   105    1
   136   109   108    1
   137   109   110   ar
   138    17    15   ar
   139   108   105    1
   140   105   106    1
   141    21    20    1
   142   112   110   ar
   143    13    15   ar
   144    13    12    1
   145     4     3    2
   146    12     9    1
   147     9     8    1
   148     9    10    1
   149   106   107    2
   150    20    23    1
   151    20    19    1
   152     5     6    1
   153     5     2    1
   154     3     8   am
   155     3     2    1
   156    23    25    1
   157    23    24    1
   158     6     7    1
   159    11    10    2
   160     2     1    1
   161     7     1    1
