@<TRIPOS>MOLECULE
tmp/5dtsA00.pdb
 112 104 0 0 0
SMALL
GASTEIGER

@<TRIPOS>ATOM
      1  N         39.7570  -13.9390   31.0210 N.3    46  SER46      -0.1217
      2  CA        40.2810  -13.5350   29.7230 C.3    46  SER46       0.1889
      3  C         40.8250  -12.1120   29.7000 C.2    46  SER46       0.2288
      4  O         41.4360  -11.7260   28.6980 O.2    46  SER46      -0.2866
      5  CB        39.2010  -13.6900   28.6510 C.3    46  SER46       0.2089
      6  OG        38.8580  -15.0550   28.4770 O.3    46  SER46      -0.2183
      7  N         32.9510  -26.0020   21.8920 N.3    76  ASP76      -0.1225
      8  CA        31.5710  -25.5270   21.9530 C.3    76  ASP76       0.1805
      9  C         31.3920  -24.1370   21.3530 C.2    76  ASP76       0.2597
     10  O         30.2750  -23.7910   20.9530 O.2    76  ASP76      -0.2718
     11  CB        31.0700  -25.5290   23.4010 C.3    76  ASP76       0.1424
     12  CG        31.9450  -24.7050   24.3260 C.2    76  ASP76       0.3668
     13  OD1       32.8710  -24.0310   23.8300 O.co2  76  ASP76      -0.2456
     14  OD2       31.7060  -24.7350   25.5530 O.co2  76  ASP76      -0.2456
     15  N         32.4490  -23.3360   21.2790 N.am   77  ILE77      -0.1980
     16  CA        32.3660  -21.9740   20.7640 C.3    77  ILE77       0.1595
     17  C         32.8450  -22.0010   19.3170 C.2    77  ILE77       0.2287
     18  O         34.0250  -22.2460   19.0450 O.2    77  ILE77      -0.2864
     19  CB        33.1800  -20.9970   21.6220 C.3    77  ILE77       0.0276
     20  CG1       32.6230  -20.9750   23.0480 C.3    77  ILE77       0.0022
     21  CG2       33.1280  -19.5910   21.0360 C.3    77  ILE77       0.0022
     22  CD1       33.6350  -20.5990   24.0980 C.3    77  ILE77       0.0001
     23  N         36.0560  -20.4510   17.8040 N.3    80  TRP80      -0.1241
     24  CA        37.3470  -21.0180   18.1700 C.3    80  TRP80       0.1605
     25  C         37.8100  -22.0880   17.1910 C.2    80  TRP80       0.2264
     26  O         39.0010  -22.4170   17.1690 O.2    80  TRP80      -0.2867
     27  CB        37.2820  -21.6140   19.5790 C.3    80  TRP80       0.0550
     28  CG        37.0450  -20.6030   20.6630 C.ar   80  TRP80       0.0003
     29  CD1       36.7830  -19.2720   20.5060 C.ar   80  TRP80       0.0946
     30  CD2       37.0520  -20.8450   22.0740 C.ar   80  TRP80       0.0152
     31  NE1       36.6250  -18.6720   21.7320 N.ar   80  TRP80      -0.2442
     32  CE2       36.7860  -19.6170   22.7110 C.ar   80  TRP80       0.0810
     33  CE3       37.2580  -21.9830   22.8610 C.ar   80  TRP80       0.0012
     34  CZ2       36.7210  -19.4940   24.0970 C.ar   80  TRP80       0.0191
     35  CZ3       37.1920  -21.8590   24.2350 C.ar   80  TRP80       0.0001
     36  CH2       36.9260  -20.6240   24.8400 C.ar   80  TRP80       0.0015
     37  N         38.2610  -14.0650   22.1950 N.3    93  SER93      -0.1217
     38  CA        38.6500  -14.6840   23.4620 C.3    93  SER93       0.1889
     39  C         39.0060  -16.1550   23.2620 C.2    93  SER93       0.2288
     40  O         38.5080  -17.0450   23.9550 O.2    93  SER93      -0.2866
     41  CB        37.5410  -14.5270   24.5030 C.3    93  SER93       0.2089
     42  OG        37.3640  -13.1670   24.8590 O.3    93  SER93      -0.2183
     43  N         40.6070  -19.0810   23.8950 N.3    95  VAL95      -0.1245
     44  CA        41.4220  -19.6610   24.9640 C.3    95  VAL95       0.1561
     45  C         42.5050  -20.5910   24.4270 C.2    95  VAL95       0.2260
     46  O         43.6750  -20.4240   24.8090 O.2    95  VAL95      -0.2867
     47  CB        40.5130  -20.3550   25.9930 C.3    95  VAL95       0.0252
     48  CG1       41.3310  -21.1250   27.0270 C.3    95  VAL95       0.0019
     49  CG2       39.6170  -19.3300   26.6790 C.3    95  VAL95       0.0019
     50  N         42.4870  -19.0720   34.7270 N.3   133  LEU133     -0.1245
     51  CA        41.1200  -19.5750   34.6700 C.3   133  LEU133      0.1561
     52  C         40.7040  -20.3110   35.9310 C.2   133  LEU133      0.2260
     53  O         39.5680  -20.1600   36.3850 O.2   133  LEU133     -0.2867
     54  CB        40.9630  -20.5240   33.4790 C.3   133  LEU133      0.0270
     55  CG        41.1820  -19.9280   32.0920 C.3   133  LEU133      0.0019
     56  CD1       41.4080  -21.0400   31.0810 C.3   133  LEU133      0.0001
     57  CD2       39.9930  -19.0720   31.7000 C.3   133  LEU133      0.0001
     58  N         37.3470   -8.1080   27.4310 N.3   184  THR184     -0.1203
     59  CA        36.3160   -8.7560   28.2290 C.3   184  THR184      0.1994
     60  C         36.8810   -9.9660   28.9680 C.2   184  THR184      0.2618
     61  O         37.9310  -10.5080   28.6170 O.2   184  THR184     -0.2717
     62  CB        35.1450   -9.2040   27.3510 C.3   184  THR184      0.1784
     63  OG1       35.6280  -10.0510   26.3010 O.3   184  THR184     -0.2211
     64  CG2       34.4270   -8.0090   26.7490 C.3   184  THR184      0.0376
     65  N         36.1550  -10.3920   29.9920 N.am  185  GLY185     -0.1942
     66  CA        36.5260  -11.5770   30.7460 C.3   185  GLY185      0.2014
     67  C         35.2990  -12.2880   31.2660 C.2   185  GLY185      0.2638
     68  O         34.2520  -11.6730   31.4920 O.2   185  GLY185     -0.2714
     69  N         35.4330  -13.6000   31.4590 N.am  186  TYR186     -0.1973
     70  CA        34.3200  -14.4340   31.9110 C.3   186  TYR186      0.1639
     71  C         34.8990  -15.5960   32.7070 C.2   186  TYR186      0.2290
     72  O         35.4700  -16.5210   32.1220 O.2   186  TYR186     -0.2864
     73  CB        33.5010  -14.9340   30.7220 C.3   186  TYR186      0.0560
     74  CG        32.2450  -15.7060   31.0780 C.ar  186  TYR186     -0.0198
     75  CD1       31.6300  -15.5580   32.3160 C.ar  186  TYR186     -0.0009
     76  CD2       31.6740  -16.5860   30.1680 C.ar  186  TYR186     -0.0009
     77  CE1       30.4820  -16.2620   32.6330 C.ar  186  TYR186      0.0417
     78  CE2       30.5300  -17.2960   30.4760 C.ar  186  TYR186      0.0417
     79  CZ        29.9380  -17.1300   31.7080 C.ar  186  TYR186      0.1957
     80  OH        28.7990  -17.8370   32.0140 O.3   186  TYR186     -0.2866
     81  N         34.3100  -18.7990   34.9280 N.3   188  THR188     -0.1218
     82  CA        33.2720  -19.7990   35.1400 C.3   188  THR188      0.1862
     83  C         33.7300  -21.0310   35.9020 C.2   188  THR188      0.2287
     84  O         32.8810  -21.7350   36.4590 O.2   188  THR188     -0.2866
     85  CB        32.7010  -20.2740   33.7950 C.3   188  THR188      0.1770
     86  OG1       33.7260  -20.9460   33.0500 O.3   188  THR188     -0.2211
     87  CG2       32.1710  -19.1030   32.9890 C.3   188  THR188      0.0375
     88  N         25.5360  -17.3920   31.2110 N.3   219  SER219     -0.1217
     89  CA        26.0870  -16.6940   30.0570 C.3   219  SER219      0.1889
     90  C         25.0890  -15.7520   29.3950 C.2   219  SER219      0.2288
     91  O         25.4890  -14.9700   28.5260 O.2   219  SER219     -0.2866
     92  CB        26.5880  -17.7110   29.0290 C.3   219  SER219      0.2089
     93  OG        25.5440  -18.5740   28.6140 O.3   219  SER219     -0.2183
     94  N         26.0080  -11.8210   29.6270 N.3   222  LEU222     -0.1245
     95  CA        27.3440  -11.3350   29.2960 C.3   222  LEU222      0.1561
     96  C         27.2930   -9.9470   28.6690 C.2   222  LEU222      0.2260
     97  O         28.1670   -9.1090   28.9260 O.2   222  LEU222     -0.2867
     98  CB        28.0400  -12.3250   28.3610 C.3   222  LEU222      0.0270
     99  CG        28.4960  -13.6290   29.0180 C.3   222  LEU222      0.0019
    100  CD1       28.9160  -14.6450   27.9710 C.3   222  LEU222      0.0001
    101  CD2       29.6370  -13.3710   29.9920 C.3   222  LEU222      0.0001
    102  N         27.9600   -6.4670   30.5180 N.3   225  ARG225     -0.1245
    103  CA        29.2600   -5.9230   30.8930 C.3   225  ARG225      0.1563
    104  C         29.5200   -4.5930   30.1910 C.2   225  ARG225      0.2260
    105  O         29.9120   -3.6080   30.8280 O.2   225  ARG225     -0.2867
    106  CB        30.3570   -6.9370   30.5680 C.3   225  ARG225      0.0307
    107  CG        30.2490   -8.2320   31.3650 C.3   225  ARG225      0.0489
    108  CD        31.2260   -9.2830   30.8640 C.3   225  ARG225      0.2205
    109  NE        30.9720   -9.6520   29.4750 N.pl3 225  ARG225     -0.0865
    110  CZ        31.7040  -10.5200   28.7850 C.cat 225  ARG225      0.5346
    111  NH1       31.3950  -10.7940   27.5240 N.pl3 225  ARG225      0.1354
    112  NH2       32.7440  -11.1160   29.3510 N.pl3 225  ARG225      0.1354
@<TRIPOS>BOND
     1    26    25    2
     2    25    24    1
     3    23    24    1
     4    24    27    1
     5    18    17    2
     6    17    16    1
     7    27    28    1
     8    29    28   ar
     9    29    31   ar
    10    28    30   ar
    11    16    15    1
    12    16    19    1
    13    10     9    2
    14    21    19    1
    15    15     9   am
    16     9     8    1
    17    19    20    1
    18    31    32   ar
    19     7     8    1
    20     8    11    1
    21    30    32   ar
    22    30    33   ar
    23    37    38    1
    24    32    34   ar
    25    33    35   ar
    26    20    22    1
    27    39    38    1
    28    39    40    2
    29    11    12    1
    30    38    41    1
    31    13    12   ar
    32    43    44    1
    33    34    36   ar
    34    35    36   ar
    35    12    14   ar
    36    45    46    2
    37    45    44    1
    38    41    42    1
    39    44    47    1
    40    47    49    1
    41    47    48    1
    42    63    62    1
    43    64    62    1
    44    62    59    1
    45    58    59    1
    46   111   110    1
    47   100    99    1
    48    59    60    1
    49    98    99    1
    50    98    95    1
    51     6     5    1
    52    91    90    2
    53    93    92    1
    54    61    60    2
    55     5     2    1
    56    96    97    2
    57    96    95    1
    58     4     3    2
    59   110   112    1
    60   110   109    2
    61    60    65   am
    62    99   101    1
    63    92    89    1
    64    95    94    1
    65    90    89    1
    66   109   108    1
    67     3     2    1
    68     2     1    1
    69    65    66    1
    70    89    88    1
    71    76    78   ar
    72    76    74   ar
    73   104   105    2
    74   104   103    1
    75    78    79   ar
    76   102   103    1
    77   106   103    1
    78   106   107    1
    79    73    74    1
    80    73    70    1
    81    66    67    1
    82   108   107    1
    83    74    75   ar
    84    56    55    1
    85    67    69   am
    86    67    68    2
    87    69    70    1
    88    57    55    1
    89    79    80    1
    90    79    77   ar
    91    70    71    1
    92    55    54    1
    93    72    71    2
    94    75    77   ar
    95    87    85    1
    96    86    85    1
    97    54    51    1
    98    85    82    1
    99    51    50    1
   100    51    52    1
   101    81    82    1
   102    82    83    1
   103    83    84    2
   104    52    53    2
