@<TRIPOS>MOLECULE
tmp/5dttC00.pdb
 89 83 0 0 0
SMALL
GASTEIGER

@<TRIPOS>ATOM
      1  N         83.2900  229.3100   31.3700 N.3    47  SER47      -0.1217
      2  CA        83.8300  228.9420   32.6710 C.3    47  SER47       0.1889
      3  C         84.3280  227.5030   32.7410 C.2    47  SER47       0.2288
      4  O         84.8440  227.1060   33.7900 O.2    47  SER47      -0.2866
      5  CB        82.7810  229.1840   33.7560 C.3    47  SER47       0.2089
      6  OG        82.5630  230.5740   33.9370 O.3    47  SER47      -0.2183
      7  N         75.9720  238.6110   41.1160 N.3    78  ILE78      -0.1245
      8  CA        75.9270  237.2250   41.5720 C.3    78  ILE78       0.1561
      9  C         76.4240  237.2250   43.0120 C.2    78  ILE78       0.2260
     10  O         77.6230  237.3920   43.2680 O.2    78  ILE78      -0.2867
     11  CB        76.7590  236.2930   40.6790 C.3    78  ILE78       0.0252
     12  CG1       76.1540  236.2570   39.2700 C.3    78  ILE78       0.0019
     13  CG2       76.8080  234.8820   41.2740 C.3    78  ILE78       0.0019
     14  CD1       76.9480  235.4530   38.2620 C.3    78  ILE78       0.0001
     15  N         79.5560  235.6810   44.5200 N.3    81  TRP81      -0.1241
     16  CA        80.8410  236.2380   44.1150 C.3    81  TRP81       0.1605
     17  C         81.3390  237.3190   45.0640 C.2    81  TRP81       0.2264
     18  O         82.5380  237.6180   45.0630 O.2    81  TRP81      -0.2867
     19  CB        80.7450  236.8300   42.7060 C.3    81  TRP81       0.0550
     20  CG        80.5280  235.8230   41.6160 C.ar   81  TRP81       0.0003
     21  CD1       80.2670  234.4910   41.7620 C.ar   81  TRP81       0.0946
     22  CD2       80.5590  236.0730   40.2050 C.ar   81  TRP81       0.0152
     23  NE1       80.1320  233.8970   40.5290 N.ar   81  TRP81      -0.2442
     24  CE2       80.3070  234.8480   39.5580 C.ar   81  TRP81       0.0810
     25  CE3       80.7750  237.2160   39.4280 C.ar   81  TRP81       0.0012
     26  CZ2       80.2670  234.7320   38.1700 C.ar   81  TRP81       0.0191
     27  CZ3       80.7330  237.0990   38.0510 C.ar   81  TRP81       0.0001
     28  CH2       80.4810  235.8670   37.4360 C.ar   81  TRP81       0.0015
     29  N         81.9020  229.3340   40.2300 N.3    94  SER94      -0.1217
     30  CA        82.3240  229.9220   38.9590 C.3    94  SER94       0.1889
     31  C         82.6260  231.4110   39.1180 C.2    94  SER94       0.2288
     32  O         82.1290  232.2570   38.3710 O.2    94  SER94      -0.2866
     33  CB        81.2660  229.6970   37.8780 C.3    94  SER94       0.2089
     34  OG        80.8880  228.3340   37.8050 O.3    94  SER94      -0.2183
     35  N         84.1320  234.2780   38.3500 N.3    96  VAL96      -0.1245
     36  CA        84.9450  234.8580   37.2800 C.3    96  VAL96       0.1561
     37  C         86.0050  235.8160   37.8170 C.2    96  VAL96       0.2260
     38  O         87.1830  235.6500   37.4740 O.2    96  VAL96      -0.2867
     39  CB        84.0360  235.5160   36.2280 C.3    96  VAL96       0.0252
     40  CG1       84.8580  236.2900   35.2000 C.3    96  VAL96       0.0019
     41  CG2       83.1740  234.4680   35.5410 C.3    96  VAL96       0.0019
     42  N         80.8610  223.4970   35.0120 N.3   185  THR185     -0.1203
     43  CA        79.8650  224.1230   34.1590 C.3   185  THR185      0.1994
     44  C         80.4700  225.3060   33.4100 C.2   185  THR185      0.2618
     45  O         81.5310  225.8260   33.7650 O.2   185  THR185     -0.2717
     46  CB        78.6660  224.5980   34.9810 C.3   185  THR185      0.1784
     47  OG1       79.1150  225.4780   36.0190 O.3   185  THR185     -0.2211
     48  CG2       77.9310  223.4160   35.5970 C.3   185  THR185      0.0376
     49  N         79.7740  225.7250   32.3630 N.am  186  GLY186     -0.1942
     50  CA        80.1690  226.9010   31.6060 C.3   186  GLY186      0.2014
     51  C         78.9520  227.5550   30.9970 C.2   186  GLY186      0.2638
     52  O         77.9400  226.8990   30.7300 O.2   186  GLY186     -0.2714
     53  N         79.0520  228.8660   30.7760 N.am  187  TYR187     -0.1973
     54  CA        77.9060  229.6590   30.3350 C.3   187  TYR187      0.1639
     55  C         78.4420  230.8240   29.5060 C.2   187  TYR187      0.2290
     56  O         78.8230  231.8560   30.0630 O.2   187  TYR187     -0.2864
     57  CB        77.0990  230.1440   31.5330 C.3   187  TYR187      0.0560
     58  CG        75.8310  230.9050   31.1970 C.ar  187  TYR187     -0.0198
     59  CD1       75.2190  230.7790   29.9550 C.ar  187  TYR187     -0.0009
     60  CD2       75.2480  231.7540   32.1290 C.ar  187  TYR187     -0.0009
     61  CE1       74.0620  231.4750   29.6550 C.ar  187  TYR187      0.0417
     62  CE2       74.0940  232.4550   31.8360 C.ar  187  TYR187      0.0417
     63  CZ        73.5050  232.3110   30.5990 C.ar  187  TYR187      0.1957
     64  OH        72.3560  233.0090   30.3070 O.3   187  TYR187     -0.2866
     65  N         69.3000  232.3710   30.9070 N.3   220  SER220     -0.1217
     66  CA        69.7860  231.6350   32.0690 C.3   220  SER220      0.1889
     67  C         68.7220  230.7290   32.6730 C.2   220  SER220      0.2288
     68  O         69.0570  229.8830   33.5100 O.2   220  SER220     -0.2866
     69  CB        70.2890  232.6130   33.1330 C.3   220  SER220      0.2089
     70  OG        69.2210  233.3720   33.6730 O.3   220  SER220     -0.2183
     71  N         69.5760  226.8980   32.5510 N.3   223  LEU223     -0.1245
     72  CA        70.9180  226.4400   32.9020 C.3   223  LEU223      0.1561
     73  C         70.8870  225.0620   33.5510 C.2   223  LEU223      0.2260
     74  O         71.7730  224.2350   33.3070 O.2   223  LEU223     -0.2867
     75  CB        71.5870  227.4530   33.8290 C.3   223  LEU223      0.0270
     76  CG        72.1760  228.6720   33.1190 C.3   223  LEU223      0.0019
     77  CD1       72.3860  229.8110   34.0980 C.3   223  LEU223      0.0001
     78  CD2       73.4850  228.3030   32.4420 C.3   223  LEU223      0.0001
     79  N         71.6150  221.7200   31.6510 N.3   226  ARG226     -0.1245
     80  CA        72.9430  221.1960   31.3500 C.3   226  ARG226      0.1563
     81  C         73.1890  219.8910   32.0950 C.2   226  ARG226      0.2260
     82  O         73.6260  218.8960   31.5050 O.2   226  ARG226     -0.2867
     83  CB        74.0100  222.2280   31.7150 C.3   226  ARG226      0.0307
     84  CG        73.9030  223.5360   30.9480 C.3   226  ARG226      0.0489
     85  CD        74.8830  224.5700   31.4780 C.3   226  ARG226      0.2205
     86  NE        74.6710  224.8540   32.8960 N.pl3 226  ARG226     -0.0865
     87  CZ        75.3900  225.7220   33.6000 C.cat 226  ARG226      0.5346
     88  NH1       75.1280  225.9110   34.8870 N.pl3 226  ARG226      0.1354
     89  NH2       76.3700  226.4030   33.0200 N.pl3 226  ARG226      0.1354
@<TRIPOS>BOND
     1    55    56    2
     2    55    54    1
     3    61    59   ar
     4    61    63   ar
     5    59    58   ar
     6    64    63    1
     7    54    53    1
     8    54    57    1
     9    63    62   ar
    10    52    51    2
    11    53    51   am
    12    65    66    1
    13    84    85    1
    14    84    83    1
    15    51    50    1
    16    58    57    1
    17    58    60   ar
    18    80    79    1
    19    80    83    1
    20    80    81    1
    21     1     2    1
    22    85    86    1
    23    82    81    2
    24    50    49    1
    25    62    60   ar
    26    66    67    1
    27    66    69    1
    28    49    44   am
    29    78    76    1
    30    71    72    1
    31     2     3    1
    32     2     5    1
    33    67    68    2
    34     3     4    2
    35    86    87    2
    36    72    73    1
    37    72    75    1
    38    89    87    1
    39    76    75    1
    40    76    77    1
    41    69    70    1
    42    74    73    2
    43    44    45    2
    44    44    43    1
    45    87    88    1
    46     5     6    1
    47    43    46    1
    48    43    42    1
    49    46    48    1
    50    46    47    1
    51    40    39    1
    52    41    39    1
    53    39    36    1
    54    36    37    1
    55    36    35    1
    56    28    27   ar
    57    28    26   ar
    58    38    37    2
    59    34    33    1
    60    33    30    1
    61    27    25   ar
    62    26    24   ar
    63    14    12    1
    64    32    31    2
    65    30    31    1
    66    30    29    1
    67    12    11    1
    68    25    22   ar
    69    24    22   ar
    70    24    23   ar
    71    22    20   ar
    72    23    21   ar
    73    11    13    1
    74    11     8    1
    75     7     8    1
    76     8     9    1
    77    20    21   ar
    78    20    19    1
    79    19    16    1
    80     9    10    2
    81    16    15    1
    82    16    17    1
    83    18    17    2
