@<TRIPOS>MOLECULE
tmp/5dtuA00.pdb
 157 150 0 0 0
SMALL
GASTEIGER

@<TRIPOS>ATOM
      1  N        -27.1290   25.7660   33.2720 N.3    38  TRP38      -0.1241
      2  CA       -25.7600   25.4160   32.9110 C.3    38  TRP38       0.1605
      3  C        -25.0770   24.5190   33.9450 C.2    38  TRP38       0.2264
      4  O        -24.2650   23.6700   33.5850 O.2    38  TRP38      -0.2867
      5  CB       -24.9150   26.6800   32.7200 C.3    38  TRP38       0.0550
      6  CG       -25.3470   27.5850   31.6010 C.ar   38  TRP38       0.0003
      7  CD1      -25.8800   28.8360   31.7190 C.ar   38  TRP38       0.0946
      8  CD2      -25.2630   27.3190   30.1950 C.ar   38  TRP38       0.0152
      9  NE1      -26.1360   29.3630   30.4770 N.ar   38  TRP38      -0.2442
     10  CE2      -25.7660   28.4500   29.5240 C.ar   38  TRP38       0.0810
     11  CE3      -24.8120   26.2320   29.4390 C.ar   38  TRP38       0.0012
     12  CZ2      -25.8360   28.5250   28.1340 C.ar   38  TRP38       0.0191
     13  CZ3      -24.8820   26.3100   28.0580 C.ar   38  TRP38       0.0001
     14  CH2      -25.3900   27.4470   27.4220 C.ar   38  TRP38       0.0015
     15  N        -21.3320   36.5580   29.7220 N.3    55  GLY55      -0.1210
     16  CA       -22.6170   37.1420   30.0570 C.3    55  GLY55       0.1956
     17  C        -23.7750   36.2960   29.5750 C.2    55  GLY55       0.2612
     18  O        -24.9040   36.7690   29.4530 O.2    55  GLY55      -0.2717
     19  N        -23.4870   35.0290   29.3030 N.am   56  TYR56      -0.1962
     20  CA       -24.4970   34.0930   28.8300 C.3    56  TYR56       0.1771
     21  C        -25.1840   33.4080   30.0070 C.2    56  TYR56       0.2620
     22  O        -25.1740   32.1800   30.1110 O.2    56  TYR56      -0.2715
     23  CB       -23.8680   33.0490   27.9040 C.3    56  TYR56       0.0574
     24  CG       -23.2570   33.6150   26.6390 C.ar   56  TYR56      -0.0198
     25  CD1      -23.5160   34.9210   26.2380 C.ar   56  TYR56      -0.0009
     26  CD2      -22.4270   32.8390   25.8410 C.ar   56  TYR56      -0.0009
     27  CE1      -22.9590   35.4390   25.0840 C.ar   56  TYR56       0.0417
     28  CE2      -21.8680   33.3470   24.6800 C.ar   56  TYR56       0.0417
     29  CZ       -22.1400   34.6470   24.3050 C.ar   56  TYR56       0.1957
     30  OH       -21.5880   35.1620   23.1540 O.3    56  TYR56      -0.2866
     31  N        -25.7750   34.2110   30.8900 N.am   57  ASP57      -0.1957
     32  CA       -26.4110   33.7090   32.1070 C.3    57  ASP57       0.1840
     33  C        -27.4990   32.6860   31.8120 C.2    57  ASP57       0.2621
     34  O        -27.6810   31.7260   32.5590 O.2    57  ASP57      -0.2715
     35  CB       -27.0080   34.8620   32.9150 C.3    57  ASP57       0.1450
     36  CG       -25.9550   35.8000   33.4590 C.2    57  ASP57       0.3671
     37  OD1      -24.8140   35.3500   33.6840 O.co2  57  ASP57      -0.2456
     38  OD2      -26.2720   36.9880   33.6670 O.co2  57  ASP57      -0.2456
     39  N        -28.2170   32.8970   30.7160 N.am   58  GLU58      -0.1977
     40  CA       -29.3490   32.0490   30.3750 C.3    58  GLU58       0.1602
     41  C        -29.1310   31.3180   29.0550 C.2    58  GLU58       0.2287
     42  O        -28.7590   31.9300   28.0510 O.2    58  GLU58      -0.2864
     43  CB       -30.6310   32.8830   30.3070 C.3    58  GLU58       0.0415
     44  CG       -31.9060   32.0710   30.1450 C.3    58  GLU58       0.1163
     45  CD       -32.3090   31.3440   31.4140 C.2    58  GLU58       0.3649
     46  OE1      -31.7000   31.6030   32.4760 O.co2  58  GLU58      -0.2457
     47  OE2      -33.2390   30.5130   31.3490 O.co2  58  GLU58      -0.2457
     48  N        -30.0710   29.6970   25.6060 N.3    60  THR60      -0.1218
     49  CA       -31.0810   29.8170   24.5700 C.3    60  THR60       0.1862
     50  C        -31.6550   28.4240   24.3250 C.2    60  THR60       0.2287
     51  O        -30.9640   27.4300   24.5560 O.2    60  THR60      -0.2866
     52  CB       -30.5000   30.4040   23.2790 C.3    60  THR60       0.1770
     53  OG1      -29.4690   29.5450   22.7840 O.3    60  THR60      -0.2211
     54  CG2      -29.9250   31.7850   23.5300 C.3    60  THR60       0.0375
     55  N        -29.5950   25.9220   22.5830 N.3    63  GLN63      -0.1245
     56  CA       -28.4380   25.5110   23.3710 C.3    63  GLN63       0.1566
     57  C        -28.8150   24.4000   24.3340 C.2    63  GLN63       0.2260
     58  O        -28.1600   23.3610   24.3860 O.2    63  GLN63      -0.2867
     59  CB       -27.8570   26.6920   24.1480 C.3    63  GLN63       0.0367
     60  CG       -26.9950   27.6280   23.3300 C.3    63  GLN63       0.0905
     61  CD       -26.7890   28.9580   24.0200 C.2    63  GLN63       0.2608
     62  OE1      -27.5470   29.3240   24.9170 O.2    63  GLN63      -0.2717
     63  NE2      -25.7660   29.6920   23.6050 N.am   63  GLN63      -0.0878
     64  N        -31.8650   32.2980   12.5420 N.3    82  THR82      -0.1203
     65  CA       -30.6670   33.0310   12.9340 C.3    82  THR82       0.1994
     66  C        -30.9270   33.8500   14.1960 C.2    82  THR82       0.2618
     67  O        -32.0070   34.4170   14.3640 O.2    82  THR82      -0.2717
     68  CB       -30.1850   33.9620   11.8040 C.3    82  THR82       0.1784
     69  OG1      -31.1020   35.0530   11.6520 O.3    82  THR82      -0.2211
     70  CG2      -30.0990   33.2010   10.4950 C.3    82  THR82       0.0376
     71  N        -29.9350   33.9050   15.0790 N.am   83  GLY83      -0.1942
     72  CA       -30.0820   34.5940   16.3490 C.3    83  GLY83       0.2014
     73  C        -30.5310   33.6490   17.4490 C.2    83  GLY83       0.2640
     74  O        -30.8240   34.0720   18.5670 O.2    83  GLY83      -0.2714
     75  N        -30.5800   32.3600   17.1280 N.am   84  SER84      -0.1935
     76  CA       -31.0580   31.3530   18.0680 C.3    84  SER84       0.2055
     77  C        -30.0690   31.0810   19.1940 C.2    84  SER84       0.2644
     78  O        -30.4640   30.6290   20.2620 O.2    84  SER84      -0.2714
     79  CB       -31.3660   30.0430   17.3390 C.3    84  SER84       0.2130
     80  OG       -32.4920   30.1810   16.4900 O.3    84  SER84      -0.2179
     81  N        -28.7900   31.3560   18.9550 N.am   85  GLY85      -0.1939
     82  CA       -27.7510   31.0470   19.9230 C.3    85  GLY85       0.2014
     83  C        -27.1070   29.7140   19.6010 C.2    85  GLY85       0.2639
     84  O        -26.4000   29.1260   20.4190 O.2    85  GLY85      -0.2714
     85  N        -27.3520   29.2480   18.3820 N.am   86  LYS86      -0.1963
     86  CA       -26.9300   27.9210   17.9500 C.3    86  LYS86       0.1728
     87  C        -25.4230   27.7890   17.7540 C.2    86  LYS86       0.2617
     88  O        -24.8950   26.6800   17.7370 O.2    86  LYS86      -0.2715
     89  CB       -27.6480   27.5490   16.6530 C.3    86  LYS86       0.0311
     90  CG       -27.5510   28.6140   15.5810 C.3    86  LYS86       0.0038
     91  CD       -28.3460   28.2250   14.3460 C.3    86  LYS86       0.0206
     92  CE       -28.2000   29.2690   13.2480 C.3    86  LYS86       0.1093
     93  NZ       -29.0320   28.9350   12.0600 N.3    86  LYS86      -0.1314
     94  N        -24.7360   28.9160   17.6060 N.am   87  THR87      -0.1937
     95  CA       -23.2920   28.8950   17.3980 C.3    87  THR87       0.2028
     96  C        -22.5700   28.2850   18.5960 C.2    87  THR87       0.2642
     97  O        -21.8530   27.2970   18.4570 O.2    87  THR87      -0.2714
     98  CB       -22.7360   30.3060   17.1240 C.3    87  THR87       0.1808
     99  OG1      -23.2360   30.7770   15.8680 O.3    87  THR87      -0.2208
    100  CG2      -21.2200   30.2800   17.0670 C.3    87  THR87       0.0379
    101  N        -22.7770   28.8620   19.7750 N.am   88  ALA88      -0.1977
    102  CA       -22.1840   28.3260   20.9940 C.3    88  ALA88       0.1597
    103  C        -22.7860   26.9640   21.3320 C.2    88  ALA88       0.2287
    104  O        -22.1980   26.1830   22.0800 O.2    88  ALA88      -0.2864
    105  CB       -22.3740   29.2940   22.1480 C.3    88  ALA88       0.0319
    106  N        -20.2530   34.9680    8.3660 N.3   119  LEU119     -0.1245
    107  CA       -20.5480   33.9230    9.3360 C.3   119  LEU119      0.1561
    108  C        -19.2790   33.2040    9.7650 C.2   119  LEU119      0.2260
    109  O        -19.1000   32.9050   10.9410 O.2   119  LEU119     -0.2867
    110  CB       -21.5480   32.9200    8.7640 C.3   119  LEU119      0.0270
    111  CG       -23.0230   33.1630    9.0860 C.3   119  LEU119      0.0019
    112  CD1      -23.4960   34.5090    8.5590 C.3   119  LEU119      0.0001
    113  CD2      -23.8610   32.0340    8.5180 C.3   119  LEU119      0.0001
    114  N        -17.7070   35.4020   12.1580 N.3   122  GLN122     -0.1245
    115  CA       -18.4980   35.4520   13.3840 C.3   122  GLN122      0.1566
    116  C        -18.2630   34.1940   14.2090 C.2   122  GLN122      0.2260
    117  O        -18.0550   34.2630   15.4220 O.2   122  GLN122     -0.2867
    118  CB       -19.9890   35.6040   13.0760 C.3   122  GLN122      0.0367
    119  CG       -20.4330   37.0230   12.7660 C.3   122  GLN122      0.0905
    120  CD       -21.9210   37.1120   12.4740 C.2   122  GLN122      0.2608
    121  OE1      -22.5930   36.0940   12.3050 O.2   122  GLN122     -0.2717
    122  NE2      -22.4420   38.3330   12.4160 N.am  122  GLN122     -0.0878
    123  N        -16.5850   34.0750   17.9040 N.3   126  GLU126     -0.1245
    124  CA       -17.4120   33.4940   18.9590 C.3   126  GLU126      0.1567
    125  C        -16.7760   32.2260   19.5170 C.2   126  GLU126      0.2260
    126  O        -16.9410   31.9060   20.6950 O.2   126  GLU126     -0.2867
    127  CB       -18.8210   33.1970   18.4380 C.3   126  GLU126      0.0388
    128  CG       -19.8240   32.8170   19.5210 C.3   126  GLU126      0.1160
    129  CD       -20.1610   33.9730   20.4480 C.2   126  GLU126      0.3649
    130  OE1      -19.9810   35.1420   20.0430 O.co2 126  GLU126     -0.2457
    131  OE2      -20.6030   33.7130   21.5880 O.co2 126  GLU126     -0.2457
    132  N        -13.2600   33.2140   21.8270 N.3   129  LYS129     -0.1245
    133  CA       -13.3580   33.6100   23.2320 C.3   129  LYS129      0.1561
    134  C        -13.6730   32.4090   24.1250 C.2   129  LYS129      0.2260
    135  O        -13.6450   32.5090   25.3520 O.2   129  LYS129     -0.2867
    136  CB       -14.3980   34.7220   23.4280 C.3   129  LYS129      0.0271
    137  CG       -15.8320   34.3870   23.0540 C.3   129  LYS129      0.0035
    138  CD       -16.6980   35.6360   23.2100 C.3   129  LYS129      0.0206
    139  CE       -18.1210   35.4180   22.7310 C.3   129  LYS129      0.1093
    140  NZ       -18.9110   36.6850   22.7350 N.3   129  LYS129     -0.1314
    141  N        -23.5080   24.8130    9.7910 N.3   188  ASP188     -0.1225
    142  CA       -24.3760   25.9180   10.1840 C.3   188  ASP188      0.1805
    143  C        -25.0720   26.5490    8.9800 C.2   188  ASP188      0.2597
    144  O        -24.4280   26.8720    7.9800 O.2   188  ASP188     -0.2718
    145  CB       -23.5770   26.9820   10.9400 C.3   188  ASP188      0.1424
    146  CG       -24.4300   28.1650   11.3600 C.2   188  ASP188      0.3668
    147  OD1      -25.2190   28.0230   12.3170 O.co2 188  ASP188     -0.2456
    148  OD2      -24.3090   29.2390   10.7360 O.co2 188  ASP188     -0.2456
    149  N        -26.3880   26.7160    9.0930 N.am  189  GLU189     -0.1979
    150  CA       -27.2090   27.3440    8.0560 C.3   189  GLU189      0.1602
    151  C        -27.0100   26.7170    6.6860 C.2   189  GLU189      0.2287
    152  O        -26.5840   27.3920    5.7540 O.2   189  GLU189     -0.2864
    153  CB       -26.9200   28.8440    7.9830 C.3   189  GLU189      0.0415
    154  CG       -27.2730   29.5980    9.2500 C.3   189  GLU189      0.1163
    155  CD       -27.1690   31.0990    9.0800 C.2   189  GLU189      0.3649
    156  OE1      -27.0140   31.5590    7.9290 O.co2 189  GLU189     -0.2457
    157  OE2      -27.2390   31.8190   10.0980 O.co2 189  GLU189     -0.2457
@<TRIPOS>BOND
     1   152   151    2
     2   151   150    1
     3   156   155   ar
     4   144   143    2
     5   153   150    1
     6   153   154    1
     7   150   149    1
     8   106   107    1
     9   113   111    1
    10   112   111    1
    11   110   111    1
    12   110   107    1
    13   143   149   am
    14   143   142    1
    15   155   154    1
    16   155   157   ar
    17   107   108    1
    18   108   109    2
    19   141   142    1
    20   142   145    1
    21    70    68    1
    22   148   146   ar
    23   145   146    1
    24   146   147   ar
    25    69    68    1
    26    68    65    1
    27    93    92    1
    28   114   115    1
    29   121   120    2
    30   122   120   am
    31   120   119    1
    32    64    65    1
    33   119   118    1
    34    65    66    1
    35   118   115    1
    36    92    91    1
    37   115   116    1
    38    66    67    2
    39    66    71   am
    40   116   117    2
    41    91    90    1
    42    71    72    1
    43    90    89    1
    44    99    98    1
    45    72    73    1
    46    80    79    1
    47    89    86    1
    48   100    98    1
    49    98    95    1
    50    75    73   am
    51    75    76    1
    52    79    76    1
    53    95    94    1
    54    95    96    1
    55    73    74    2
    56    94    87   am
    57    88    87    2
    58    87    86    1
    59   123   124    1
    60    86    85    1
    61    76    77    1
    62    85    83   am
    63   127   124    1
    64   127   128    1
    65    97    96    2
    66    96   101   am
    67    81    77   am
    68    81    82    1
    69   124   125    1
    70    77    78    2
    71   125   126    2
    72   128   129    1
    73    83    82    1
    74    83    84    2
    75   101   102    1
    76   130   129   ar
    77   129   131   ar
    78   102   103    1
    79   102   105    1
    80   103   104    2
    81   132   133    1
    82    55    56    1
    83   139   140    1
    84   139   138    1
    85    53    52    1
    86   137   138    1
    87   137   136    1
    88    30    29    1
    89   133   136    1
    90   133   134    1
    91    52    54    1
    92    52    49    1
    93    60    61    1
    94    60    59    1
    95    56    59    1
    96    56    57    1
    97    63    61   am
    98    61    62    2
    99   134   135    2
   100    29    28   ar
   101    29    27   ar
   102    50    51    2
   103    50    49    1
   104    57    58    2
   105    49    48    1
   106    28    26   ar
   107    27    25   ar
   108    26    24   ar
   109    25    24   ar
   110    24    23    1
   111    14    13   ar
   112    14    12   ar
   113    23    20    1
   114    42    41    2
   115    13    11   ar
   116    12    10   ar
   117    20    19    1
   118    20    21    1
   119    41    40    1
   120    19    17   am
   121    11     8   ar
   122    18    17    2
   123    10     8   ar
   124    10     9   ar
   125    17    16    1
   126    15    16    1
   127    21    22    2
   128    21    31   am
   129    44    43    1
   130    44    45    1
   131     8     6   ar
   132    43    40    1
   133    40    39    1
   134     9     7   ar
   135    39    33   am
   136    31    32    1
   137    47    45   ar
   138    45    46   ar
   139     6     7   ar
   140     6     5    1
   141    33    32    1
   142    33    34    2
   143    32    35    1
   144     5     2    1
   145     2     1    1
   146     2     3    1
   147    35    36    1
   148    36    38   ar
   149    36    37   ar
   150     4     3    2
