@<TRIPOS>MOLECULE
tmp/5du4A00.pdb
 137 130 0 0 0
SMALL
GASTEIGER

@<TRIPOS>ATOM
      1  N        -19.9660   20.1860   38.4270 N.3    73  PRO73      -0.2102
      2  CA       -18.8350   19.2630   38.6020 C.3    73  PRO73       0.1504
      3  C        -19.1750   18.0110   39.4150 C.2    73  PRO73       0.2575
      4  O        -18.7310   16.9120   39.0670 O.2    73  PRO73      -0.2718
      5  CB       -17.8030   20.1160   39.3480 C.3    73  PRO73       0.0282
      6  CG       -18.1240   21.5110   38.9620 C.3    73  PRO73       0.0208
      7  CD       -19.6230   21.5510   38.8720 C.3    73  PRO73       0.0893
      8  N        -19.9600   18.1710   40.4750 N.am   74  ASP74      -0.1974
      9  CA       -20.3380   17.0290   41.3070 C.3    74  ASP74       0.1708
     10  C        -21.3330   16.1120   40.6030 C.2    74  ASP74       0.2293
     11  O        -21.2220   14.8860   40.6930 O.2    74  ASP74      -0.2864
     12  CB       -20.8710   17.4890   42.6670 C.3    74  ASP74       0.1436
     13  CG       -19.7570   17.9220   43.6030 C.2    74  ASP74       0.3671
     14  OD1      -19.9180   18.9470   44.2990 O.co2  74  ASP74      -0.2456
     15  OD2      -18.7130   17.2320   43.6370 O.co2  74  ASP74      -0.2456
     16  N        -21.4260   15.6800   37.4340 N.3    76  LEU76      -0.1231
     17  CA       -20.6390   14.9970   36.4050 C.3    76  LEU76       0.1693
     18  C        -19.9240   13.7750   36.9880 C.2    76  LEU76       0.2591
     19  O        -19.8820   12.7130   36.3700 O.2    76  LEU76      -0.2718
     20  CB       -19.6270   15.9530   35.7570 C.3    76  LEU76       0.0284
     21  CG       -18.8650   15.4120   34.5410 C.3    76  LEU76       0.0019
     22  CD1      -19.8340   14.9580   33.4530 C.3    76  LEU76       0.0001
     23  CD2      -17.8780   16.4560   34.0100 C.3    76  LEU76       0.0001
     24  N        -19.3760   13.9310   38.1910 N.am   77  ILE77      -0.1980
     25  CA       -18.7890   12.8060   38.9110 C.3    77  ILE77       0.1595
     26  C        -19.8100   11.6820   39.1470 C.2    77  ILE77       0.2287
     27  O        -19.5010   10.5050   38.9690 O.2    77  ILE77      -0.2864
     28  CB       -18.1410   13.2770   40.2370 C.3    77  ILE77       0.0276
     29  CG1      -16.8560   14.0580   39.9340 C.3    77  ILE77       0.0022
     30  CG2      -17.8470   12.1060   41.1700 C.3    77  ILE77       0.0022
     31  CD1      -16.1400   14.5740   41.1690 C.3    77  ILE77       0.0001
     32  N        -20.3140    9.6160   36.0130 N.3    80  HIS80      -0.1226
     33  CA       -19.2500    8.6410   35.7970 C.3    80  HIS80       0.1752
     34  C        -19.3710    7.4440   36.7500 C.2    80  HIS80       0.2595
     35  O        -19.1640    6.2900   36.3500 O.2    80  HIS80      -0.2718
     36  CB       -17.8780    9.3190   35.8620 C.3    80  HIS80       0.0759
     37  CG       -17.5240   10.0550   34.6080 C.ar   80  HIS80       0.0818
     38  ND1      -16.7400    9.5010   33.6170 N.ar   80  HIS80      -0.2268
     39  CD2      -17.8730   11.2870   34.1630 C.ar   80  HIS80       0.1154
     40  CE1      -16.6050   10.3660   32.6310 C.ar   80  HIS80       0.1986
     41  NE2      -17.2930   11.4560   32.9290 N.ar   80  HIS80      -0.2212
     42  N        -19.7270    7.7110   38.0020 N.am   81  LYS81      -0.1980
     43  CA       -19.9730    6.6320   38.9570 C.3    81  LYS81       0.1596
     44  C        -21.1050    5.7360   38.4710 C.2    81  LYS81       0.2287
     45  O        -21.0440    4.5190   38.6320 O.2    81  LYS81      -0.2864
     46  CB       -20.3380    7.1910   40.3390 C.3    81  LYS81       0.0298
     47  CG       -19.1550    7.7590   41.1170 C.3    81  LYS81       0.0038
     48  CD       -19.6250    8.3060   42.4700 C.3    81  LYS81       0.0206
     49  CE       -18.4810    8.9370   43.2540 C.3    81  LYS81       0.1093
     50  NZ       -17.7600    7.9590   44.1260 N.3    81  LYS81      -0.1314
     51  N        -19.8040    3.5680   35.5980 N.3    84  ASP84      -0.1239
     52  CA       -18.8480    2.5950   36.1290 C.3    84  ASP84       0.1674
     53  C        -19.5450    1.4760   36.9030 C.2    84  ASP84       0.2266
     54  O        -19.1060    0.3210   36.8690 O.2    84  ASP84      -0.2867
     55  CB       -17.8270    3.3120   37.0280 C.3    84  ASP84       0.1410
     56  CG       -16.9870    2.3550   37.8530 C.2    84  ASP84       0.3668
     57  OD1      -15.9660    1.8540   37.3190 O.co2  84  ASP84      -0.2456
     58  OD2      -17.3230    2.1190   39.0420 O.co2  84  ASP84      -0.2456
     59  N        -13.7930   12.5220   28.0910 N.3   104  GLN104     -0.1245
     60  CA       -14.0140   11.7700   29.3340 C.3   104  GLN104      0.1566
     61  C        -15.2260   10.8450   29.2140 C.2   104  GLN104      0.2260
     62  O        -15.1710    9.6800   29.5860 O.2   104  GLN104     -0.2867
     63  CB       -14.2000   12.7120   30.5230 C.3   104  GLN104      0.0367
     64  CG       -13.0090   13.6440   30.7360 C.3   104  GLN104      0.0905
     65  CD       -13.2940   14.7300   31.7670 C.2   104  GLN104      0.2608
     66  OE1      -14.4370   15.2070   31.9020 O.2   104  GLN104     -0.2717
     67  NE2      -12.2550   15.1320   32.5060 N.am  104  GLN104     -0.0878
     68  N        -15.3900    6.6270   29.3190 N.3   108  GLN108     -0.1245
     69  CA       -16.1430    5.9170   30.3430 C.3   108  GLN108      0.1566
     70  C        -17.0760    4.8680   29.7180 C.2   108  GLN108      0.2260
     71  O        -17.6440    4.0360   30.4180 O.2   108  GLN108     -0.2867
     72  CB       -16.9470    6.9070   31.2020 C.3   108  GLN108      0.0367
     73  CG       -17.5260    6.3320   32.5040 C.3   108  GLN108      0.0905
     74  CD       -16.4510    5.9140   33.4890 C.2   108  GLN108      0.2608
     75  OE1      -15.7850    6.7570   34.1090 O.2   108  GLN108     -0.2717
     76  NE2      -16.2910    4.6140   33.6580 N.am  108  GLN108     -0.0878
     77  N         -8.4530   15.5900   36.2240 N.3   132  ASP132     -0.1239
     78  CA        -8.4190   14.5920   37.2890 C.3   132  ASP132      0.1674
     79  C         -7.5190   13.4430   36.8670 C.2   132  ASP132      0.2266
     80  O         -7.2660   13.2460   35.6690 O.2   132  ASP132     -0.2867
     81  CB        -9.8150   14.0450   37.5330 C.3   132  ASP132      0.1410
     82  CG       -10.3620   13.3430   36.3130 C.2   132  ASP132      0.3668
     83  OD1      -10.6760   14.0520   35.3360 O.co2 132  ASP132     -0.2456
     84  OD2      -10.4550   12.0950   36.3220 O.co2 132  ASP132     -0.2456
     85  N         -7.8890   10.0790   36.8590 N.3   134  TRP134     -0.1227
     86  CA        -8.4880    9.0380   36.0130 C.3   134  TRP134      0.1737
     87  C         -8.4610    9.4010   34.5320 C.2   134  TRP134      0.2596
     88  O         -8.1510    8.5560   33.6960 O.2   134  TRP134     -0.2718
     89  CB        -9.9260    8.7070   36.4590 C.3   134  TRP134      0.0564
     90  CG       -10.6520    7.7600   35.5250 C.ar  134  TRP134      0.0003
     91  CD1      -10.7070    6.3930   35.6050 C.ar  134  TRP134      0.0946
     92  CD2      -11.4180    8.1230   34.3720 C.ar  134  TRP134      0.0152
     93  NE1      -11.4750    5.8900   34.5800 N.ar  134  TRP134     -0.2442
     94  CE2      -11.9150    6.9270   33.8010 C.ar  134  TRP134      0.0810
     95  CE3      -11.7450    9.3450   33.7770 C.ar  134  TRP134      0.0012
     96  CZ2      -12.7210    6.9180   32.6520 C.ar  134  TRP134      0.0191
     97  CZ3      -12.5470    9.3390   32.6330 C.ar  134  TRP134      0.0001
     98  CH2      -13.0280    8.1280   32.0830 C.ar  134  TRP134      0.0015
     99  N         -8.7670   10.6570   34.2070 N.am  135  SER135     -0.1952
    100  CA        -8.7840   11.0800   32.7980 C.3   135  SER135      0.1924
    101  C         -7.4280   10.8030   32.1740 C.2   135  SER135      0.2314
    102  O         -7.3390   10.3120   31.0590 O.2   135  SER135     -0.2863
    103  CB        -9.1390   12.5740   32.6530 C.3   135  SER135      0.2116
    104  OG       -10.5120   12.8230   32.9560 O.3   135  SER135     -0.2180
    105  N         -8.7540    4.5390   38.3090 N.3   206  ILE206     -0.1245
    106  CA        -9.5250    5.2800   39.3080 C.3   206  ILE206      0.1561
    107  C         -8.5850    5.5680   40.4710 C.2   206  ILE206      0.2260
    108  O         -8.4850    4.8000   41.4150 O.2   206  ILE206     -0.2867
    109  CB       -10.7690    4.4820   39.7840 C.3   206  ILE206      0.0252
    110  CG1      -11.6740    4.1220   38.6070 C.3   206  ILE206      0.0019
    111  CG2      -11.5840    5.2730   40.8030 C.3   206  ILE206      0.0019
    112  CD1      -12.6950    3.0560   38.9560 C.3   206  ILE206      0.0001
    113  N         -5.8880   11.7090   43.3560 N.3   209  ALA209     -0.1245
    114  CA        -4.7560   12.5780   43.0630 C.3   209  ALA209      0.1562
    115  C         -3.8210   12.6680   44.2610 C.2   209  ALA209      0.2260
    116  O         -4.2600   12.7500   45.4160 O.2   209  ALA209     -0.2867
    117  CB        -5.2250   13.9690   42.6540 C.3   209  ALA209      0.0290
    118  N         -2.7410   17.6580   43.4410 N.3   214  LYS214     -0.1245
    119  CA        -3.7720   18.5720   43.9330 C.3   214  LYS214      0.1561
    120  C         -3.2610   20.0020   44.0430 C.2   214  LYS214      0.2260
    121  O         -3.9940   20.9430   43.7360 O.2   214  LYS214     -0.2867
    122  CB        -4.3070   18.1030   45.2920 C.3   214  LYS214      0.0271
    123  CG        -5.1430   16.8260   45.2220 C.3   214  LYS214      0.0035
    124  CD        -5.7000   16.4680   46.6080 C.3   214  LYS214      0.0206
    125  CE        -6.4440   15.1370   46.5880 C.3   214  LYS214      0.1093
    126  NZ        -6.8640   14.7060   47.9680 N.3   214  LYS214     -0.1314
    127  N         -3.0060   21.2300   40.5050 N.3   217  PHE217     -0.1241
    128  CA        -4.3700   21.3250   39.9790 C.3   217  PHE217      0.1605
    129  C         -5.0100   22.6310   40.4280 C.2   217  PHE217      0.2264
    130  O         -5.6010   23.3640   39.6300 O.2   217  PHE217     -0.2867
    131  CB        -5.1920   20.1200   40.4810 C.3   217  PHE217      0.0534
    132  CG        -6.6040   20.0560   39.9620 C.ar  217  PHE217     -0.0203
    133  CD1       -6.9280   19.2420   38.8910 C.ar  217  PHE217     -0.0042
    134  CD2       -7.6220   20.7740   40.5830 C.ar  217  PHE217     -0.0042
    135  CE1       -8.2280   19.1630   38.4210 C.ar  217  PHE217     -0.0003
    136  CE2       -8.9270   20.7030   40.1220 C.ar  217  PHE217     -0.0003
    137  CZ        -9.2330   19.8980   39.0390 C.ar  217  PHE217     -0.0000
@<TRIPOS>BOND
     1    59    60    1
     2    61    60    1
     3    61    62    2
     4    68    69    1
     5    60    63    1
     6    70    69    1
     7    70    71    2
     8    69    72    1
     9    63    64    1
    10    64    65    1
    11   102   101    2
    12    72    73    1
    13    65    66    2
    14    65    67   am
    15    98    97   ar
    16    98    96   ar
    17   101   100    1
    18    73    74    1
    19    40    41   ar
    20    40    38   ar
    21    97    95   ar
    22    96    94   ar
    23   103   100    1
    24   103   104    1
    25   100    99    1
    26    41    39   ar
    27    22    21    1
    28    74    76   am
    29    74    75    2
    30    38    37   ar
    31    88    87    2
    32    95    92   ar
    33    94    92   ar
    34    94    93   ar
    35    23    21    1
    36    39    37   ar
    37    99    87   am
    38    92    90   ar
    39    87    86    1
    40    21    20    1
    41    93    91   ar
    42    37    36    1
    43    83    82   ar
    44    90    91   ar
    45    90    89    1
    46    51    52    1
    47    80    79    2
    48    20    17    1
    49    33    36    1
    50    33    32    1
    51    33    34    1
    52    86    89    1
    53    86    85    1
    54    52    53    1
    55    52    55    1
    56    77    78    1
    57    82    84   ar
    58    82    81    1
    59    35    34    2
    60    19    18    2
    61    17    18    1
    62    17    16    1
    63    34    42   am
    64    79    78    1
    65    54    53    2
    66    18    24   am
    67    55    56    1
    68    78    81    1
    69    57    56   ar
    70    56    58   ar
    71    42    43    1
    72    24    25    1
    73   105   106    1
    74   135   133   ar
    75   135   137   ar
    76     1     2    1
    77     1     7    1
    78    44    45    2
    79    44    43    1
    80     2     5    1
    81     2     3    1
    82   110   112    1
    83   110   109    1
    84     7     6    1
    85   133   132   ar
    86    25    26    1
    87    25    28    1
    88    43    46    1
    89     6     5    1
    90    27    26    2
    91   137   136   ar
    92     4     3    2
    93   106   109    1
    94   106   107    1
    95     3     8   am
    96   130   129    2
    97   109   111    1
    98    29    28    1
    99    29    31    1
   100   132   131    1
   101   132   134   ar
   102   128   129    1
   103   128   131    1
   104   128   127    1
   105   136   134   ar
   106    28    30    1
   107    46    47    1
   108   107   108    2
   109     8     9    1
   110    10    11    2
   111    10     9    1
   112    47    48    1
   113     9    12    1
   114    48    49    1
   115   117   114    1
   116    12    13    1
   117   114   113    1
   118   114   115    1
   119    49    50    1
   120   118   119    1
   121    13    15   ar
   122    13    14   ar
   123   121   120    2
   124   119   120    1
   125   119   122    1
   126   115   116    2
   127   123   122    1
   128   123   124    1
   129   125   124    1
   130   125   126    1
