@<TRIPOS>MOLECULE
tmp/5du6A00.pdb
 149 144 0 0 0
SMALL
GASTEIGER

@<TRIPOS>ATOM
      1  N        -19.8060   17.4730  -40.4640 N.3    71  PRO71      -0.2116
      2  CA       -19.7490   18.8750  -40.0250 C.3    71  PRO71       0.1372
      3  C        -21.0250   19.3480  -39.3170 C.2    71  PRO71       0.2244
      4  O        -20.9270   20.1410  -38.3810 O.2    71  PRO71      -0.2868
      5  CB       -19.5230   19.6460  -41.3360 C.3    71  PRO71       0.0268
      6  CG       -18.8350   18.6650  -42.2250 C.3    71  PRO71       0.0207
      7  CD       -19.4380   17.3260  -41.8860 C.3    71  PRO71       0.0892
      8  N        -21.0790   17.7450  -35.7500 N.3    74  LEU74      -0.1231
      9  CA       -20.0990   18.3980  -34.8980 C.3    74  LEU74       0.1693
     10  C        -20.6300   19.7500  -34.4270 C.2    74  LEU74       0.2591
     11  O        -20.2280   20.2510  -33.3840 O.2    74  LEU74      -0.2718
     12  CB       -18.7830   18.5710  -35.6590 C.3    74  LEU74       0.0284
     13  CG       -17.5700   19.1740  -34.9630 C.3    74  LEU74       0.0019
     14  CD1      -17.2490   18.3910  -33.7370 C.3    74  LEU74       0.0001
     15  CD2      -16.3940   19.1220  -35.8760 C.3    74  LEU74       0.0001
     16  N        -21.5340   20.3340  -35.2070 N.am   75  ILE75      -0.1980
     17  CA       -22.1490   21.6120  -34.8670 C.3    75  ILE75       0.1595
     18  C        -23.2880   21.4420  -33.8770 C.2    75  ILE75       0.2287
     19  O        -23.5400   22.3170  -33.0450 O.2    75  ILE75      -0.2864
     20  CB       -22.6670   22.3180  -36.1280 C.3    75  ILE75       0.0276
     21  CG1      -21.4850   22.9220  -36.8910 C.3    75  ILE75       0.0022
     22  CG2      -23.7010   23.3920  -35.7770 C.3    75  ILE75       0.0022
     23  CD1      -21.7810   23.2820  -38.3260 C.3    75  ILE75       0.0001
     24  N        -21.7770   21.2080  -30.3690 N.3    78  HIS78      -0.1226
     25  CA       -21.5390   22.5140  -29.7910 C.3    78  HIS78       0.1752
     26  C        -22.8600   23.2070  -29.4740 C.2    78  HIS78       0.2595
     27  O        -22.9740   23.8970  -28.4580 O.2    78  HIS78      -0.2718
     28  CB       -20.6840   23.3720  -30.7150 C.3    78  HIS78       0.0759
     29  CG       -19.2340   23.0010  -30.6890 C.ar   78  HIS78       0.0818
     30  ND1      -18.2950   23.7260  -29.9880 N.ar   78  HIS78      -0.2268
     31  CD2      -18.5680   21.9640  -31.2560 C.ar   78  HIS78       0.1154
     32  CE1      -17.1090   23.1580  -30.1350 C.ar   78  HIS78       0.1986
     33  NE2      -17.2470   22.0900  -30.8980 N.ar   78  HIS78      -0.2212
     34  N        -23.8580   23.0280  -30.3360 N.am   79  LYS79      -0.1980
     35  CA       -25.1460   23.6130  -30.0610 C.3    79  LYS79       0.1596
     36  C        -25.6820   23.0450  -28.7420 C.2    79  LYS79       0.2287
     37  O        -26.2700   23.7580  -27.9320 O.2    79  LYS79      -0.2864
     38  CB       -26.1080   23.3660  -31.2290 C.3    79  LYS79       0.0298
     39  CG       -26.2020   24.5350  -32.2030 C.3    79  LYS79       0.0038
     40  CD       -26.8710   24.1630  -33.5190 C.3    79  LYS79       0.0206
     41  CE       -28.3710   24.1560  -33.3750 C.3    79  LYS79       0.1093
     42  NZ       -29.0510   23.7680  -34.6490 N.3    79  LYS79      -0.1314
     43  N        -23.5110   24.5910  -25.6490 N.3    82  ASP82      -0.1239
     44  CA       -23.9460   25.9720  -25.5290 C.3    82  ASP82       0.1674
     45  C        -25.3480   26.0910  -24.9210 C.2    82  ASP82       0.2266
     46  O        -25.6570   27.0710  -24.2600 O.2    82  ASP82      -0.2867
     47  CB       -23.9190   26.6230  -26.9050 C.3    82  ASP82       0.1410
     48  CG       -24.4270   28.0320  -26.8860 C.2    82  ASP82       0.3668
     49  OD1      -23.7280   28.9060  -26.3470 O.co2  82  ASP82      -0.2456
     50  OD2      -25.5180   28.2810  -27.4260 O.co2  82  ASP82      -0.2456
     51  N        -11.2970   23.1810  -29.9970 N.3   102  GLN102     -0.1245
     52  CA       -12.6770   23.6570  -30.0930 C.3   102  GLN102      0.1566
     53  C        -13.6200   23.1120  -28.9940 C.2   102  GLN102      0.2260
     54  O        -14.4070   23.8640  -28.4130 O.2   102  GLN102     -0.2867
     55  CB       -13.2510   23.2780  -31.4380 C.3   102  GLN102      0.0367
     56  CG       -12.6030   23.9810  -32.5740 C.3   102  GLN102      0.0905
     57  CD       -13.1520   23.5260  -33.8990 C.2   102  GLN102      0.2608
     58  OE1      -13.5370   22.3620  -34.0680 O.2   102  GLN102     -0.2717
     59  NE2      -13.1990   24.4450  -34.8540 N.am  102  GLN102     -0.0878
     60  N        -15.4580   24.9590  -25.5700 N.3   106  GLN106     -0.1245
     61  CA       -16.9020   25.0080  -25.4510 C.3   106  GLN106      0.1566
     62  C        -17.2950   24.5910  -24.0350 C.2   106  GLN106      0.2260
     63  O        -18.3960   24.8790  -23.5770 O.2   106  GLN106     -0.2867
     64  CB       -17.5870   24.1330  -26.4970 C.3   106  GLN106      0.0367
     65  CG       -19.0970   24.3270  -26.5250 C.3   106  GLN106      0.0905
     66  CD       -19.5040   25.6370  -27.1750 C.2   106  GLN106      0.2608
     67  OE1      -19.3060   25.8220  -28.3690 O.2   106  GLN106     -0.2717
     68  NE2      -20.0690   26.5440  -26.3990 N.am  106  GLN106     -0.0878
     69  N        -10.6610   28.1190  -40.1710 N.3   129  LEU129     -0.1231
     70  CA       -11.5800   27.8910  -39.0540 C.3   129  LEU129      0.1693
     71  C        -12.8880   28.6480  -39.2290 C.2   129  LEU129      0.2592
     72  O        -12.9470   29.6160  -39.9790 O.2   129  LEU129     -0.2718
     73  CB       -10.9180   28.3730  -37.7720 C.3   129  LEU129      0.0284
     74  CG        -9.7380   27.5120  -37.3690 C.3   129  LEU129      0.0019
     75  CD1       -9.0310   28.0930  -36.1720 C.3   129  LEU129      0.0001
     76  CD2      -10.2220   26.1040  -37.0830 C.3   129  LEU129      0.0001
     77  N        -13.9250   28.2210  -38.5120 N.am  130  ASP130     -0.1960
     78  CA       -15.1530   29.0100  -38.3730 C.3   130  ASP130      0.1840
     79  C        -14.8820   30.1890  -37.4560 C.2   130  ASP130      0.2622
     80  O        -13.9710   30.1490  -36.6360 O.2   130  ASP130     -0.2715
     81  CB       -16.2200   28.1720  -37.7140 C.3   130  ASP130      0.1450
     82  CG       -15.8090   27.7500  -36.3380 C.2   130  ASP130      0.3671
     83  OD1      -14.9510   26.8440  -36.2630 O.co2 130  ASP130     -0.2456
     84  OD2      -16.2930   28.3520  -35.3470 O.co2 130  ASP130     -0.2456
     85  N        -15.6860   31.2320  -37.5570 N.am  131  ASN131     -0.1958
     86  CA       -15.4230   32.4290  -36.7640 C.3   131  ASN131      0.1819
     87  C        -15.4070   32.2790  -35.2410 C.2   131  ASN131      0.2621
     88  O        -14.6110   32.9490  -34.5680 O.2   131  ASN131     -0.2715
     89  CB       -16.3350   33.5760  -37.1860 C.3   131  ASN131      0.1195
     90  CG       -16.0010   34.0730  -38.5580 C.2   131  ASN131      0.2630
     91  OD1      -15.3280   33.3790  -39.3210 O.2   131  ASN131     -0.2716
     92  ND2      -16.4440   35.2780  -38.8820 N.am  131  ASN131     -0.0877
     93  N        -16.2610   31.4090  -34.7050 N.am  132  TRP132     -0.1974
     94  CA       -16.3760   31.2620  -33.2570 C.3   132  TRP132      0.1640
     95  C        -15.0620   30.7620  -32.6490 C.2   132  TRP132      0.2290
     96  O        -14.6120   31.2640  -31.6030 O.2   132  TRP132     -0.2864
     97  CB       -17.5470   30.3380  -32.8770 C.3   132  TRP132      0.0576
     98  CG       -17.5680   29.9850  -31.4370 C.ar  132  TRP132      0.0006
     99  CD1      -18.2040   30.6630  -30.4370 C.ar  132  TRP132      0.0946
    100  CD2      -16.8870   28.8850  -30.8030 C.ar  132  TRP132      0.0152
    101  NE1      -17.9850   30.0460  -29.2270 N.ar  132  TRP132     -0.2442
    102  CE2      -17.1830   28.9520  -29.4260 C.ar  132  TRP132      0.0810
    103  CE3      -16.0810   27.8390  -31.2720 C.ar  132  TRP132      0.0012
    104  CZ2      -16.6920   28.0170  -28.5130 C.ar  132  TRP132      0.0191
    105  CZ3      -15.6070   26.9190  -30.3790 C.ar  132  TRP132      0.0001
    106  CH2      -15.9020   27.0130  -29.0080 C.ar  132  TRP132      0.0015
    107  N        -20.1020   33.8410  -30.8980 N.3   204  ILE204     -0.1245
    108  CA       -20.9090   33.0840  -31.8440 C.3   204  ILE204      0.1561
    109  C        -21.1950   34.0210  -32.9990 C.2   204  ILE204      0.2260
    110  O        -22.1970   34.7380  -32.9750 O.2   204  ILE204     -0.2867
    111  CB       -22.2160   32.5900  -31.2470 C.3   204  ILE204      0.0252
    112  CG1      -21.9330   31.8060  -29.9490 C.3   204  ILE204      0.0019
    113  CG2      -22.9520   31.7600  -32.2830 C.3   204  ILE204      0.0019
    114  CD1      -23.1560   31.3070  -29.2420 C.3   204  ILE204      0.0001
    115  N        -19.7560   34.0820  -40.2810 N.3   207  ALA207     -0.1245
    116  CA       -18.7150   34.4500  -41.2330 C.3   207  ALA207      0.1562
    117  C        -19.2030   35.5310  -42.2070 C.2   207  ALA207      0.2260
    118  O        -20.2670   35.3960  -42.7940 O.2   207  ALA207     -0.2867
    119  CB       -18.2420   33.2160  -41.9870 C.3   207  ALA207      0.0290
    120  N        -14.8970   36.4100  -45.3470 N.3   211  HIS211     -0.1226
    121  CA       -14.3870   35.2570  -44.5990 C.3   211  HIS211      0.1752
    122  C        -14.7780   33.9460  -45.2900 C.2   211  HIS211      0.2595
    123  O        -13.9600   33.0410  -45.4700 O.2   211  HIS211     -0.2718
    124  CB       -14.9160   35.2580  -43.1530 C.3   211  HIS211      0.0759
    125  CG       -14.6740   36.5410  -42.4140 C.ar  211  HIS211      0.0818
    126  ND1      -15.3250   36.8550  -41.2410 N.ar  211  HIS211     -0.2268
    127  CD2      -13.8580   37.5910  -42.6860 C.ar  211  HIS211      0.1154
    128  CE1      -14.9160   38.0380  -40.8180 C.ar  211  HIS211      0.1986
    129  NE2      -14.0300   38.5080  -41.6790 N.ar  211  HIS211     -0.2212
    130  N        -16.0500   33.8610  -45.6670 N.am  212  LYS212     -0.1980
    131  CA       -16.5890   32.6510  -46.2610 C.3   212  LYS212      0.1596
    132  C        -15.8410   32.3380  -47.5450 C.2   212  LYS212      0.2287
    133  O        -15.5910   31.1800  -47.8740 O.2   212  LYS212     -0.2864
    134  CB       -18.0840   32.8060  -46.5180 C.3   212  LYS212      0.0298
    135  CG       -18.8020   31.4790  -46.7560 C.3   212  LYS212      0.0038
    136  CD       -18.6470   30.9790  -48.2080 C.3   212  LYS212      0.0206
    137  CE       -19.1590   29.5350  -48.3940 C.3   212  LYS212      0.1093
    138  NZ       -20.2750   29.1390  -47.4540 N.3   212  LYS212     -0.1314
    139  N        -12.2270   31.1580  -46.7400 N.3   215  PHE215     -0.1241
    140  CA       -12.4400   29.8550  -46.1400 C.3   215  PHE215      0.1605
    141  C        -12.5420   28.7950  -47.2290 C.2   215  PHE215      0.2264
    142  O        -11.8900   27.7480  -47.1600 O.2   215  PHE215     -0.2867
    143  CB       -13.7280   29.9080  -45.3360 C.3   215  PHE215      0.0534
    144  CG       -14.0860   28.6250  -44.6650 C.ar  215  PHE215     -0.0203
    145  CD1      -13.7050   28.3860  -43.3530 C.ar  215  PHE215     -0.0042
    146  CD2      -14.8290   27.6700  -45.3320 C.ar  215  PHE215     -0.0042
    147  CE1      -14.0480   27.2050  -42.7200 C.ar  215  PHE215     -0.0003
    148  CE2      -15.1770   26.4970  -44.7160 C.ar  215  PHE215     -0.0003
    149  CZ       -14.7880   26.2580  -43.4050 C.ar  215  PHE215     -0.0000
@<TRIPOS>BOND
     1   137   136    1
     2   137   138    1
     3   136   135    1
     4   133   132    2
     5   132   131    1
     6   141   142    2
     7   141   140    1
     8   135   134    1
     9   139   140    1
    10   134   131    1
    11   131   130    1
    12   140   143    1
    13   130   122   am
    14   123   122    2
    15   120   121    1
    16   143   144    1
    17   146   148   ar
    18   146   144   ar
    19   122   121    1
    20   148   149   ar
    21   144   145   ar
    22   121   124    1
    23   149   147   ar
    24   145   147   ar
    25   124   125    1
    26   118   117    2
    27   127   125   ar
    28   127   129   ar
    29   125   126   ar
    30     6     7    1
    31     6     5    1
    32   117   116    1
    33   119   116    1
    34     7     1    1
    35   129   128   ar
    36     5     2    1
    37   126   128   ar
    38   116   115    1
    39     1     2    1
    40    69    70    1
    41     2     3    1
    42    72    71    2
    43    91    90    2
    44     3     4    2
    45    71    70    1
    46    71    77   am
    47    70    73    1
    48    92    90   am
    49    90    89    1
    50    77    78    1
    51    78    81    1
    52    78    79    1
    53    23    21    1
    54    73    74    1
    55    81    82    1
    56    85    79   am
    57    85    86    1
    58    79    80    2
    59    74    76    1
    60    74    75    1
    61    89    86    1
    62    21    20    1
    63    86    87    1
    64    82    83   ar
    65    82    84   ar
    66    20    22    1
    67    20    17    1
    68    15    13    1
    69     8     9    1
    70    12    13    1
    71    12     9    1
    72    87    93   am
    73    87    88    2
    74    16    17    1
    75    16    10   am
    76    13    14    1
    77     9    10    1
    78    17    18    1
    79    59    57   am
    80    93    94    1
    81    42    41    1
    82    10    11    2
    83    58    57    2
    84    57    56    1
    85    18    19    2
    86    40    41    1
    87    40    39    1
    88    94    97    1
    89    94    95    1
    90   109   110    2
    91   109   108    1
    92    97    98    1
    93    95    96    2
    94    56    55    1
    95   113   111    1
    96    39    38    1
    97   108   111    1
    98   108   107    1
    99    55    52    1
   100    98   100   ar
   101    98    99   ar
   102   103   100   ar
   103   103   105   ar
   104    31    33   ar
   105    31    29   ar
   106   111   112    1
   107    38    35    1
   108    33    32   ar
   109   100   102   ar
   110    28    29    1
   111    28    25    1
   112    29    30   ar
   113    99   101   ar
   114   105   106   ar
   115    24    25    1
   116    34    35    1
   117    34    26   am
   118    32    30   ar
   119    52    51    1
   120    52    53    1
   121    35    36    1
   122   112   114    1
   123    25    26    1
   124    26    27    2
   125   102   101   ar
   126   102   104   ar
   127   106   104   ar
   128    53    54    2
   129    36    37    2
   130    67    66    2
   131    50    48   ar
   132    66    65    1
   133    66    68   am
   134    47    48    1
   135    47    44    1
   136    48    49   ar
   137    65    64    1
   138    64    61    1
   139    43    44    1
   140    60    61    1
   141    44    45    1
   142    61    62    1
   143    45    46    2
   144    62    63    2
