@<TRIPOS>MOLECULE
tmp/5du8B00.pdb
 172 167 0 0 0
SMALL
GASTEIGER

@<TRIPOS>ATOM
      1  N        -32.1810   50.6220   -6.8670 N.3    70  PRO70      -0.2116
      2  CA       -31.5010   50.1830   -8.1030 C.3    70  PRO70       0.1372
      3  C        -31.4590   51.2880   -9.1670 C.2    70  PRO70       0.2244
      4  O        -30.4860   51.3860   -9.9140 O.2    70  PRO70      -0.2868
      5  CB       -32.3450   48.9910   -8.5750 C.3    70  PRO70       0.0268
      6  CG       -33.0010   48.4790   -7.3250 C.3    70  PRO70       0.0207
      7  CD       -33.2750   49.6990   -6.4890 C.3    70  PRO70       0.0892
      8  N        -28.6250   53.6610   -8.1210 N.3    73  LEU73      -0.1231
      9  CA       -27.3570   53.0180   -8.4180 C.3    73  LEU73       0.1693
     10  C        -26.9920   53.1370   -9.9000 C.2    73  LEU73       0.2591
     11  O        -25.8510   53.4600  -10.2400 O.2    73  LEU73      -0.2718
     12  CB       -27.3980   51.5550   -7.9780 C.3    73  LEU73       0.0284
     13  CG       -26.0700   50.8230   -7.8870 C.3    73  LEU73       0.0019
     14  CD1      -25.0330   51.6420   -7.1250 C.3    73  LEU73       0.0001
     15  CD2      -26.2800   49.4520   -7.2520 C.3    73  LEU73       0.0001
     16  N        -27.9620   52.9030  -10.7810 N.am   74  ILE74      -0.1980
     17  CA       -27.7410   53.1100  -12.2100 C.3    74  ILE74       0.1595
     18  C        -27.3090   54.5610  -12.4710 C.2    74  ILE74       0.2287
     19  O        -26.3610   54.7930  -13.2270 O.2    74  ILE74      -0.2864
     20  CB       -28.9520   52.6570  -13.0650 C.3    74  ILE74       0.0276
     21  CG1      -29.0140   51.1170  -13.0950 C.3    74  ILE74       0.0022
     22  CG2      -28.8690   53.2170  -14.4860 C.3    74  ILE74       0.0022
     23  CD1      -30.2960   50.5350  -13.6710 C.3    74  ILE74       0.0001
     24  N        -23.5420   55.1270  -11.6770 N.3    77  HIS77      -0.1226
     25  CA       -22.7160   54.6490  -12.7760 C.3    77  HIS77       0.1752
     26  C        -22.7640   55.5530  -13.9710 C.2    77  HIS77       0.2595
     27  O        -21.7420   55.7560  -14.6070 O.2    77  HIS77      -0.2718
     28  CB       -23.0910   53.2310  -13.1490 C.3    77  HIS77       0.0759
     29  CG       -22.6150   52.2260  -12.1530 C.ar   77  HIS77       0.0818
     30  ND1      -21.4620   51.5560  -12.3050 N.ar   77  HIS77      -0.2268
     31  CD2      -23.1560   51.8190  -10.9360 C.ar   77  HIS77       0.1154
     32  CE1      -21.2730   50.7500  -11.2470 C.ar   77  HIS77       0.1986
     33  NE2      -22.3160   50.9070  -10.4110 N.ar   77  HIS77      -0.2212
     34  N        -23.9450   56.0910  -14.2880 N.am   78  LYS78      -0.1980
     35  CA       -24.0850   57.0400  -15.3940 C.3    78  LYS78       0.1596
     36  C        -23.2370   58.2790  -15.1470 C.2    78  LYS78       0.2287
     37  O        -22.5070   58.7110  -16.0360 O.2    78  LYS78      -0.2864
     38  CB       -25.5540   57.4190  -15.6530 C.3    78  LYS78       0.0298
     39  CG       -26.3150   56.3710  -16.4550 C.3    78  LYS78       0.0038
     40  CD       -27.7890   56.7160  -16.6500 C.3    78  LYS78       0.0206
     41  CE       -28.4920   55.6550  -17.4920 C.3    78  LYS78       0.1093
     42  NZ       -29.9360   55.9590  -17.7500 N.3    78  LYS78      -0.1314
     43  N        -19.6580   57.3440  -15.5270 N.3    81  ASP81      -0.1239
     44  CA       -19.3880   57.1160  -16.9340 C.3    81  ASP81       0.1674
     45  C        -19.3260   58.4370  -17.7100 C.2    81  ASP81       0.2266
     46  O        -18.5390   58.5740  -18.6390 O.2    81  ASP81      -0.2867
     47  CB       -20.4370   56.1770  -17.5320 C.3    81  ASP81       0.1410
     48  CG       -20.3450   56.0830  -19.0460 C.2    81  ASP81       0.3668
     49  OD1      -19.4710   55.3470  -19.5650 O.co2  81  ASP81      -0.2456
     50  OD2      -21.1560   56.7510  -19.7140 O.co2  81  ASP81      -0.2456
     51  N        -18.6060   46.2980   -8.8640 N.3   101  GLN101     -0.1245
     52  CA       -19.1610   47.1020   -9.9640 C.3   101  GLN101      0.1566
     53  C        -18.6530   48.5500   -9.9280 C.2   101  GLN101      0.2260
     54  O        -18.2390   49.1160  -10.9570 O.2   101  GLN101     -0.2867
     55  CB       -20.6810   47.1150   -9.8920 C.3   101  GLN101      0.0367
     56  CG       -21.3230   45.7960  -10.2630 C.3   101  GLN101      0.0905
     57  CD       -22.8070   45.7570   -9.9150 C.2   101  GLN101      0.2608
     58  OE1      -23.2690   46.4340   -8.9730 O.2   101  GLN101     -0.2717
     59  NE2      -23.5650   44.9550  -10.6620 N.am  101  GLN101     -0.0878
     60  N        -16.0580   50.6350  -12.4150 N.3   105  GLN105     -0.1245
     61  CA       -16.5740   51.8310  -13.0890 C.3   105  GLN105      0.1566
     62  C        -15.5400   52.9650  -12.9840 C.2   105  GLN105      0.2260
     63  O        -15.6360   53.9880  -13.6610 O.2   105  GLN105     -0.2867
     64  CB       -17.9380   52.2450  -12.5080 C.3   105  GLN105      0.0367
     65  CG       -18.6530   53.3420  -13.2890 C.3   105  GLN105      0.0905
     66  CD       -19.0230   52.8920  -14.6940 C.2   105  GLN105      0.2608
     67  OE1      -19.9510   52.0800  -14.8730 O.2   105  GLN105     -0.2717
     68  NE2      -18.2930   53.3940  -15.6960 N.am  105  GLN105     -0.0878
     69  N        -26.4430   39.2330  -12.8690 N.3   128  LEU128     -0.1231
     70  CA       -25.8590   40.5370  -13.0860 C.3   128  LEU128      0.1693
     71  C        -26.3900   41.1540  -14.3530 C.2   128  LEU128      0.2592
     72  O        -26.8270   40.4300  -15.2430 O.2   128  LEU128     -0.2718
     73  CB       -24.3300   40.4090  -13.1780 C.3   128  LEU128      0.0284
     74  CG       -23.6770   39.9900  -11.8540 C.3   128  LEU128      0.0019
     75  CD1      -22.2670   39.4940  -12.0860 C.3   128  LEU128      0.0001
     76  CD2      -23.6900   41.1450  -10.8520 C.3   128  LEU128      0.0001
     77  N        -26.3500   42.4880  -14.4230 N.am  129  ASP129     -0.1960
     78  CA       -26.5390   43.2250  -15.6770 C.3   129  ASP129      0.1840
     79  C        -25.4040   42.8640  -16.6370 C.2   129  ASP129      0.2622
     80  O        -24.3310   42.4590  -16.1780 O.2   129  ASP129     -0.2715
     81  CB       -26.4800   44.7350  -15.4040 C.3   129  ASP129      0.1450
     82  CG       -25.1080   45.1730  -14.8590 C.2   129  ASP129      0.3671
     83  OD1      -24.7710   44.8260  -13.7130 O.co2 129  ASP129     -0.2456
     84  OD2      -24.3520   45.8430  -15.5810 O.co2 129  ASP129     -0.2456
     85  N        -25.6150   43.0370  -17.9480 N.am  130  ASN130     -0.1958
     86  CA       -24.6120   42.6660  -18.9640 C.3   130  ASN130      0.1819
     87  C        -23.2630   43.3620  -18.8290 C.2   130  ASN130      0.2621
     88  O        -22.2160   42.7230  -18.9250 O.2   130  ASN130     -0.2715
     89  CB       -25.1860   42.8210  -20.3770 C.3   130  ASN130      0.1195
     90  CG       -26.0810   41.6630  -20.7500 C.2   130  ASN130      0.2630
     91  OD1      -26.8150   41.1560  -19.9100 O.2   130  ASN130     -0.2716
     92  ND2      -26.0020   41.2130  -21.9950 N.am  130  ASN130     -0.0877
     93  N        -23.3010   44.6570  -18.5320 N.am  131  TRP131     -0.1960
     94  CA       -22.0990   45.4430  -18.3270 C.3   131  TRP131      0.1771
     95  C        -21.2080   44.8690  -17.2740 C.2   131  TRP131      0.2620
     96  O        -19.9950   44.8160  -17.4600 O.2   131  TRP131     -0.2715
     97  CB       -22.4330   46.9020  -18.0030 C.3   131  TRP131      0.0590
     98  CG       -21.1880   47.7360  -17.7370 C.ar  131  TRP131      0.0006
     99  CD1      -20.4170   48.4440  -18.6620 C.ar  131  TRP131      0.0946
    100  CD2      -20.5280   47.9640  -16.4440 C.ar  131  TRP131      0.0152
    101  NE1      -19.3600   49.0690  -18.0430 N.ar  131  TRP131     -0.2442
    102  CE2      -19.3730   48.8300  -16.7170 C.ar  131  TRP131      0.0810
    103  CE3      -20.7790   47.5740  -15.1420 C.ar  131  TRP131      0.0012
    104  CZ2      -18.5140   49.2480  -15.7090 C.ar  131  TRP131      0.0191
    105  CZ3      -19.8960   47.9990  -14.1380 C.ar  131  TRP131      0.0001
    106  CH2      -18.7990   48.8200  -14.4190 C.ar  131  TRP131      0.0015
    107  N        -21.7690   44.4400  -16.1460 N.am  132  SER132     -0.1950
    108  CA       -20.8980   43.9090  -15.1050 C.3   132  SER132      0.1924
    109  C        -20.0850   42.7280  -15.6470 C.2   132  SER132      0.2314
    110  O        -18.9080   42.5930  -15.3360 O.2   132  SER132     -0.2863
    111  CB       -21.6770   43.5080  -13.8400 C.3   132  SER132      0.2116
    112  OG       -22.2900   44.6270  -13.2320 O.3   132  SER132     -0.2180
    113  N        -21.2480   48.3760  -22.3720 N.3   203  ILE203     -0.1245
    114  CA       -22.5820   48.8770  -22.0720 C.3   203  ILE203      0.1561
    115  C        -23.5550   48.2450  -23.0770 C.2   203  ILE203      0.2260
    116  O        -23.8150   48.7740  -24.1600 O.2   203  ILE203     -0.2867
    117  CB       -22.6500   50.4210  -22.0900 C.3   203  ILE203      0.0252
    118  CG1      -21.5420   51.0270  -21.2020 C.3   203  ILE203      0.0019
    119  CG2      -24.0450   50.9020  -21.6790 C.3   203  ILE203      0.0019
    120  CD1      -21.1920   52.4720  -21.5270 C.3   203  ILE203      0.0001
    121  N        -27.2370   46.1790  -23.7790 N.3   205  GLU205     -0.1231
    122  CA       -28.5920   45.7710  -23.3910 C.3   205  GLU205      0.1699
    123  C        -28.7450   44.2500  -23.4070 C.2   205  GLU205      0.2592
    124  O        -28.2020   43.5660  -24.2930 O.2   205  GLU205     -0.2718
    125  CB       -29.6580   46.4370  -24.2630 C.3   205  GLU205      0.0402
    126  CG       -30.2340   47.7230  -23.6660 C.3   205  GLU205      0.1161
    127  CD       -31.4140   47.4930  -22.7240 C.2   205  GLU205      0.3649
    128  OE1      -31.7130   46.3270  -22.3700 O.co2 205  GLU205     -0.2457
    129  OE2      -32.0670   48.4880  -22.3350 O.co2 205  GLU205     -0.2457
    130  N        -29.4460   43.7280  -22.4060 N.am  206  ALA206     -0.1980
    131  CA       -29.6160   42.2860  -22.2780 C.3   206  ALA206      0.1597
    132  C        -30.3790   41.7050  -23.4590 C.2   206  ALA206      0.2287
    133  O        -31.3550   42.2840  -23.9370 O.2   206  ALA206     -0.2864
    134  CB       -30.2990   41.9310  -20.9630 C.3   206  ALA206      0.0319
    135  N        -31.2230   36.6330  -22.0200 N.3   210  HIS210     -0.1226
    136  CA       -30.5160   37.1710  -20.8650 C.3   210  HIS210      0.1752
    137  C        -31.5150   37.6800  -19.8760 C.2   210  HIS210      0.2595
    138  O        -31.3970   37.4270  -18.6760 O.2   210  HIS210     -0.2718
    139  CB       -29.5400   38.2750  -21.2680 C.3   210  HIS210      0.0759
    140  CG       -28.4910   37.8340  -22.2610 C.ar  210  HIS210      0.0818
    141  ND1      -27.6800   38.7100  -22.8950 N.ar  210  HIS210     -0.2268
    142  CD2      -28.1450   36.5620  -22.7290 C.ar  210  HIS210      0.1154
    143  CE1      -26.8710   38.0420  -23.7360 C.ar  210  HIS210      0.1986
    144  NE2      -27.1570   36.7270  -23.6370 N.ar  210  HIS210     -0.2212
    145  N        -32.5230   38.3820  -20.3880 N.am  211  LYS211     -0.1980
    146  CA       -33.5580   38.9720  -19.5710 C.3   211  LYS211      0.1596
    147  C        -34.4700   37.9330  -18.9470 C.2   211  LYS211      0.2287
    148  O        -34.7860   38.0180  -17.7690 O.2   211  LYS211     -0.2864
    149  CB       -34.3780   39.9700  -20.3730 C.3   211  LYS211      0.0298
    150  CG       -35.5350   40.5500  -19.5790 C.3   211  LYS211      0.0038
    151  CD       -35.8960   41.9400  -20.0830 C.3   211  LYS211      0.0206
    152  CE       -37.3800   42.1940  -19.8760 C.3   211  LYS211      0.1093
    153  NZ       -37.7810   42.0230  -18.4430 N.3   211  LYS211     -0.1314
    154  N        -32.4260   36.3100  -16.1780 N.3   214  PHE214     -0.1227
    155  CA       -32.2370   37.3360  -15.1540 C.3   214  PHE214      0.1736
    156  C        -33.4870   37.4540  -14.2590 C.2   214  PHE214      0.2595
    157  O        -33.3810   37.3720  -13.0330 O.2   214  PHE214     -0.2718
    158  CB       -31.8830   38.6810  -15.8130 C.3   214  PHE214      0.0547
    159  CG       -31.7370   39.8280  -14.8490 C.ar  214  PHE214     -0.0202
    160  CD1      -30.4780   40.2440  -14.4290 C.ar  214  PHE214     -0.0042
    161  CD2      -32.8500   40.5120  -14.3850 C.ar  214  PHE214     -0.0042
    162  CE1      -30.3380   41.3010  -13.5400 C.ar  214  PHE214     -0.0003
    163  CE2      -32.7170   41.5800  -13.5110 C.ar  214  PHE214     -0.0003
    164  CZ       -31.4650   41.9670  -13.0830 C.ar  214  PHE214     -0.0000
    165  N        -34.6560   37.6220  -14.8740 N.am  215  ASP215     -0.1974
    166  CA       -35.9060   37.6980  -14.1220 C.3   215  ASP215      0.1709
    167  C        -36.2080   36.4100  -13.3770 C.2   215  ASP215      0.2293
    168  O        -36.6860   36.4600  -12.2490 O.2   215  ASP215     -0.2864
    169  CB       -37.0930   38.0950  -15.0190 C.3   215  ASP215      0.1436
    170  CG       -36.9540   39.5080  -15.5810 C.2   215  ASP215      0.3671
    171  OD1      -36.1040   40.2710  -15.0810 O.co2 215  ASP215     -0.2456
    172  OD2      -37.6840   39.8590  -16.5410 O.co2 215  ASP215     -0.2456
@<TRIPOS>BOND
     1   124   123    2
     2   125   126    1
     3   125   122    1
     4   116   115    2
     5   133   132    2
     6   121   122    1
     7   143   144   ar
     8   143   141   ar
     9   126   127    1
    10   144   142   ar
    11   132   131    1
    12   123   122    1
    13   123   130   am
    14   115   114    1
    15   141   140   ar
    16   142   140   ar
    17   127   128   ar
    18   127   129   ar
    19   130   131    1
    20   113   114    1
    21   131   134    1
    22   140   139    1
    23   117   114    1
    24   117   119    1
    25   117   118    1
    26   135   136    1
    27    92    90   am
    28   120   118    1
    29   139   136    1
    30   136   137    1
    31    90    89    1
    32    90    91    2
    33   145   137   am
    34   145   146    1
    35    89    86    1
    36   149   150    1
    37   149   146    1
    38   151   152    1
    39   151   150    1
    40   137   138    2
    41   152   153    1
    42    50    48   ar
    43   146   147    1
    44    49    48   ar
    45    48    47    1
    46    86    87    1
    47    86    85    1
    48   147   148    2
    49    88    87    2
    50    87    93   am
    51    99   101   ar
    52    99    98   ar
    53    46    45    2
    54    93    94    1
    55    94    97    1
    56    94    95    1
    57   101   102   ar
    58    97    98    1
    59    85    79   am
    60    42    41    1
    61    98   100   ar
    62    45    44    1
    63    47    44    1
    64    41    40    1
    65    96    95    2
    66    95   107   am
    67    44    43    1
    68   102   100   ar
    69   102   104   ar
    70    40    39    1
    71    79    80    2
    72    79    78    1
    73   172   170   ar
    74    39    38    1
    75   100   103   ar
    76   154   155    1
    77   107   108    1
    78    37    36    2
    79   158   155    1
    80   158   159    1
    81   104   106   ar
    82    68    66   am
    83    78    81    1
    84    78    77    1
    85    38    35    1
    86   109   110    2
    87   109   108    1
    88    84    82   ar
    89   170   171   ar
    90   170   169    1
    91    81    82    1
    92    35    36    1
    93    35    34    1
    94    72    71    2
    95   155   156    1
    96   103   105   ar
    97   108   111    1
    98   169   166    1
    99   165   156   am
   100   165   166    1
   101    67    66    2
   102    82    83   ar
   103   159   160   ar
   104   159   161   ar
   105    66    65    1
   106    27    26    2
   107    22    20    1
   108   160   162   ar
   109    77    71   am
   110   106   105   ar
   111   161   163   ar
   112    71    70    1
   113    34    26   am
   114   156   157    2
   115   166   167    1
   116    26    25    1
   117   111   112    1
   118    23    21    1
   119    63    62    2
   120   162   164   ar
   121   163   164   ar
   122   167   168    2
   123    65    64    1
   124    19    18    2
   125    73    70    1
   126    73    74    1
   127    28    25    1
   128    28    29    1
   129    21    20    1
   130    61    62    1
   131    61    64    1
   132    61    60    1
   133    70    69    1
   134    20    17    1
   135    25    24    1
   136    18    17    1
   137    30    29   ar
   138    30    32   ar
   139    17    16    1
   140    29    31   ar
   141    75    74    1
   142    74    76    1
   143    32    33   ar
   144    54    53    2
   145    31    33   ar
   146    16    10   am
   147    59    57   am
   148    56    57    1
   149    56    55    1
   150    11    10    2
   151    52    53    1
   152    52    55    1
   153    52    51    1
   154    57    58    2
   155     4     3    2
   156    10     9    1
   157     3     2    1
   158     5     2    1
   159     5     6    1
   160     9     8    1
   161     9    12    1
   162     2     1    1
   163    12    13    1
   164    13    15    1
   165    13    14    1
   166     6     7    1
   167     1     7    1
