@<TRIPOS>MOLECULE
tmp/5duaA00.pdb
 145 135 0 0 0
SMALL
GASTEIGER

@<TRIPOS>ATOM
      1  N         27.2550   67.1660  130.7860 N.3    11  ALA11      -0.1245
      2  CA        25.8000   67.2500  130.9200 C.3    11  ALA11       0.1562
      3  C         25.4230   67.5680  132.3650 C.2    11  ALA11       0.2260
      4  O         24.5640   68.4130  132.6350 O.2    11  ALA11      -0.2867
      5  CB        25.1620   65.9590  130.4770 C.3    11  ALA11       0.0290
      6  N         26.1970   71.1210  133.3390 N.3    14  CYS14      -0.1221
      7  CA        25.1590   71.9600  132.7650 C.3    14  CYS14       0.1808
      8  C         23.8780   71.9350  133.6100 C.2    14  CYS14       0.2601
      9  O         23.2920   72.9930  133.8880 O.2    14  CYS14      -0.2717
     10  CB        24.8800   71.5150  131.3250 C.3    14  CYS14       0.0970
     11  SG        23.6370   72.5000  130.4440 S.3    14  CYS14      -0.0800
     12  N         23.4650   70.7500  134.0580 N.am   15  VAL15      -0.1979
     13  CA        22.2870   70.6510  134.9150 C.3    15  VAL15       0.1595
     14  C         22.5430   71.3300  136.2580 C.2    15  VAL15       0.2287
     15  O         21.6700   72.0030  136.8030 O.2    15  VAL15      -0.2864
     16  CB        21.8660   69.1840  135.1530 C.3    15  VAL15       0.0276
     17  CG1       20.7730   69.0950  136.2210 C.3    15  VAL15       0.0022
     18  CG2       21.3640   68.5830  133.8580 C.3    15  VAL15       0.0022
     19  N         22.3400   75.0580  135.8950 N.3    18  ALA18      -0.1245
     20  CA        20.9550   75.4480  135.6870 C.3    18  ALA18       0.1562
     21  C         20.1850   75.3370  137.0010 C.2    18  ALA18       0.2260
     22  O         19.3570   76.1900  137.3140 O.2    18  ALA18      -0.2867
     23  CB        20.3050   74.5930  134.6050 C.3    18  ALA18       0.0290
     24  N         14.1380   70.3540  136.8370 N.3    28  TYR28      -0.1241
     25  CA        14.9140   69.2590  136.2750 C.3    28  TYR28       0.1605
     26  C         14.5070   67.8970  136.8100 C.2    28  TYR28       0.2264
     27  O         15.2430   66.9360  136.6420 O.2    28  TYR28      -0.2867
     28  CB        16.4010   69.5200  136.4900 C.3    28  TYR28       0.0534
     29  CG        16.8890   70.5270  135.4870 C.ar   28  TYR28      -0.0201
     30  CD1       16.7650   71.8870  135.7400 C.ar   28  TYR28      -0.0009
     31  CD2       17.4030   70.1260  134.2540 C.ar   28  TYR28      -0.0009
     32  CE1       17.1710   72.8250  134.8220 C.ar   28  TYR28       0.0417
     33  CE2       17.8220   71.0640  133.3210 C.ar   28  TYR28       0.0417
     34  CZ        17.7010   72.4120  133.6160 C.ar   28  TYR28       0.1957
     35  OH        18.0960   73.3720  132.7160 O.3    28  TYR28      -0.2866
     36  N         17.2330   64.9230  136.6870 N.3   154  HIS154     -0.1241
     37  CA        17.9300   64.8560  135.4020 C.3   154  HIS154      0.1621
     38  C         19.4500   64.7350  135.5950 C.2   154  HIS154      0.2264
     39  O         20.1380   64.1340  134.7650 O.2   154  HIS154     -0.2867
     40  CB        17.5940   66.0950  134.5580 C.3   154  HIS154      0.0745
     41  CG        17.5550   65.8480  133.0760 C.ar  154  HIS154      0.0817
     42  ND1       17.8280   64.6220  132.5070 N.ar  154  HIS154     -0.2268
     43  CD2       17.2820   66.6850  132.0460 C.ar  154  HIS154      0.1154
     44  CE1       17.7120   64.7110  131.1930 C.ar  154  HIS154      0.1986
     45  NE2       17.3820   65.9520  130.8890 N.ar  154  HIS154     -0.2212
     46  N         18.3070   65.3360  120.2910 N.3   288  PRO288     -0.2116
     47  CA        19.1750   64.7450  121.3220 C.3   288  PRO288      0.1372
     48  C         20.1890   63.7520  120.7630 C.2   288  PRO288      0.2244
     49  O         19.8660   63.0210  119.8460 O.2   288  PRO288     -0.2868
     50  CB        18.1970   64.0000  122.2440 C.3   288  PRO288      0.0268
     51  CG        16.8210   64.4510  121.8560 C.3   288  PRO288      0.0207
     52  CD        16.9030   64.9190  120.4320 C.3   288  PRO288      0.0892
     53  N         24.1430   60.8330  133.4590 N.3   303  MET303     -0.1245
     54  CA        23.6280   61.8840  132.6140 C.3   303  MET303      0.1570
     55  C         24.7610   62.3910  131.7370 C.2   303  MET303      0.2261
     56  O         25.6470   63.0960  132.2110 O.2   303  MET303     -0.2867
     57  CB        23.0280   62.9980  133.4840 C.3   303  MET303      0.0387
     58  CG        22.8020   64.3250  132.8240 C.3   303  MET303      0.0595
     59  SD        21.8430   64.1750  131.3320 S.3   303  MET303     -0.1393
     60  CE        21.3500   65.8720  131.0520 C.3   303  MET303      0.0692
     61  N         23.6730   63.0120  128.1830 N.3   305  SER305     -0.1202
     62  CA        22.8770   63.4650  127.0410 C.3   305  SER305      0.2020
     63  C         23.3140   64.8230  126.4930 C.2   305  SER305      0.2619
     64  O         23.6640   65.7250  127.2450 O.2   305  SER305     -0.2717
     65  CB        21.3990   63.5570  127.4350 C.3   305  SER305      0.2103
     66  OG        20.6250   63.7760  126.2790 O.3   305  SER305     -0.2182
     67  N         23.2540   64.9640  125.1760 N.am  306  ASN306     -0.1960
     68  CA        23.5900   66.2070  124.5070 C.3   306  ASN306      0.1819
     69  C         22.4620   66.5790  123.5360 C.2   306  ASN306      0.2621
     70  O         21.6600   65.7350  123.1320 O.2   306  ASN306     -0.2715
     71  CB        24.9420   66.0660  123.7770 C.3   306  ASN306      0.1195
     72  CG        25.5000   67.3990  123.2760 C.2   306  ASN306      0.2630
     73  OD1       25.2150   68.4690  123.8270 O.2   306  ASN306     -0.2716
     74  ND2       26.3180   67.3280  122.2310 N.am  306  ASN306     -0.0877
     75  N         22.4040   67.8510  123.1890 N.am  307  ARG307     -0.1977
     76  CA        21.3220   68.4110  122.3880 C.3   307  ARG307      0.1597
     77  C         21.9480   69.3760  121.3890 C.2   307  ARG307      0.2287
     78  O         22.5950   70.3320  121.7990 O.2   307  ARG307     -0.2864
     79  CB        20.3100   69.1080  123.3030 C.3   307  ARG307      0.0334
     80  CG        19.0910   69.7000  122.6250 C.3   307  ARG307      0.0492
     81  CD        18.1460   70.3210  123.6720 C.3   307  ARG307      0.2205
     82  NE        16.9800   70.9700  123.0660 N.pl3 307  ARG307     -0.0865
     83  CZ        16.9020   72.2640  122.7440 C.cat 307  ARG307      0.5346
     84  NH1       17.9280   73.0820  122.9650 N.pl3 307  ARG307      0.1354
     85  NH2       15.7870   72.7470  122.1930 N.pl3 307  ARG307      0.1354
     86  N         29.3620   70.2500  122.8620 N.3   341  ARG341     -0.1245
     87  CA        28.2120   70.4470  123.7430 C.3   341  ARG341      0.1563
     88  C         27.3020   71.5590  123.2420 C.2   341  ARG341      0.2260
     89  O         27.7600   72.6520  122.9180 O.2   341  ARG341     -0.2867
     90  CB        28.6710   70.7700  125.1650 C.3   341  ARG341      0.0307
     91  CG        29.4900   69.6710  125.8390 C.3   341  ARG341      0.0489
     92  CD        28.6810   68.3920  126.0610 C.3   341  ARG341      0.2205
     93  NE        27.4120   68.6750  126.7320 N.pl3 341  ARG341     -0.0865
     94  CZ        26.4670   67.7700  126.9640 C.cat 341  ARG341      0.5346
     95  NH1       26.6420   66.4990  126.6000 N.pl3 341  ARG341      0.1354
     96  NH2       25.3500   68.1410  127.5710 N.pl3 341  ARG341      0.1354
     97  N         25.4190   73.4020  124.9140 N.3   343  GLU343     -0.1245
     98  CA        25.4060   74.5640  125.7760 C.3   343  GLU343      0.1567
     99  C         26.6920   75.3700  125.5660 C.2   343  GLU343      0.2260
    100  O         26.7270   76.5680  125.8360 O.2   343  GLU343     -0.2867
    101  CB        25.2170   74.1570  127.2470 C.3   343  GLU343      0.0388
    102  CG        26.3110   73.2940  127.8390 C.3   343  GLU343      0.1160
    103  CD        26.1290   71.8080  127.5650 C.2   343  GLU343      0.3649
    104  OE1       25.2400   71.4320  126.7600 O.co2 343  GLU343     -0.2457
    105  OE2       26.8950   71.0140  128.1570 O.co2 343  GLU343     -0.2457
    106  N         12.5440   70.4780  120.2900 N.3   358  THR358     -0.1218
    107  CA        13.3170   69.2520  120.4190 C.3   358  THR358      0.1862
    108  C         12.5100   68.0840  119.8890 C.2   358  THR358      0.2287
    109  O         11.3640   67.8780  120.2870 O.2   358  THR358     -0.2866
    110  CB        13.7090   68.9720  121.8890 C.3   358  THR358      0.1770
    111  OG1       14.4760   70.0650  122.3890 O.3   358  THR358     -0.2211
    112  CG2       14.5370   67.6900  122.0110 C.3   358  THR358      0.0375
    113  N         12.6440   64.2040  119.8250 N.3   360  ASN360     -0.1240
    114  CA        13.2500   63.0740  120.4770 C.3   360  ASN360      0.1653
    115  C         12.5120   61.7930  120.1260 C.2   360  ASN360      0.2266
    116  O         11.5360   61.4140  120.7810 O.2   360  ASN360     -0.2867
    117  CB        13.2440   63.2970  121.9940 C.3   360  ASN360      0.1155
    118  CG        13.9040   62.1640  122.7590 C.2   360  ASN360      0.2627
    119  OD1       14.4100   61.2210  122.1760 O.2   360  ASN360     -0.2716
    120  ND2       13.8900   62.2590  124.0830 N.am  360  ASN360     -0.0877
    121  N         10.2400   64.3050  129.9050 N.3   382  SER382     -0.1202
    122  CA        11.6060   64.0520  129.4490 C.3   382  SER382      0.2020
    123  C         12.6120   65.1250  129.8740 C.2   382  SER382      0.2619
    124  O         13.8080   64.8900  129.8410 O.2   382  SER382     -0.2717
    125  CB        11.6320   63.9390  127.9250 C.3   382  SER382      0.2103
    126  OG        11.6210   65.2380  127.3560 O.3   382  SER382     -0.2182
    127  N         12.1260   66.2990  130.2590 N.am  383  GLY383     -0.1942
    128  CA        12.9930   67.3570  130.7630 C.3   383  GLY383      0.1998
    129  C         12.3980   68.7320  130.5330 C.2   383  GLY383      0.2480
    130  O         11.3950   68.8600  129.8170 O.2   383  GLY383     -0.2729
    131  N         13.0110   69.7690  131.1290 N.am  384  PRO384     -0.2726
    132  CA        12.4730   71.1230  130.9990 C.3   384  PRO384      0.1402
    133  C         12.6620   71.6550  129.5830 C.2   384  PRO384      0.2269
    134  O         13.5540   71.1970  128.8750 O.2   384  PRO384     -0.2865
    135  CB        13.2870   71.9250  132.0050 C.3   384  PRO384      0.0296
    136  CG        14.6170   71.1870  132.0770 C.3   384  PRO384      0.0237
    137  CD        14.2710   69.7340  131.9030 C.3   384  PRO384      0.0939
    138  N          9.1090   70.2530  123.5210 N.3   389  ASN389     -0.1240
    139  CA         9.6950   68.9360  123.2610 C.3   389  ASN389      0.1653
    140  C          8.6630   68.0380  122.6210 C.2   389  ASN389      0.2266
    141  O          7.5400   67.9070  123.1280 O.2   389  ASN389     -0.2867
    142  CB        10.1800   68.2230  124.5310 C.3   389  ASN389      0.1155
    143  CG        11.2150   69.0000  125.3020 C.2   389  ASN389      0.2627
    144  OD1       12.0640   69.6780  124.7300 O.2   389  ASN389     -0.2716
    145  ND2       11.1660   68.8820  126.6210 N.am  389  ASN389     -0.0877
@<TRIPOS>BOND
     1   113   114    1
     2    49    48    2
     3   108   109    2
     4   108   107    1
     5   115   114    1
     6   115   116    2
     7   106   107    1
     8    46    52    1
     9    46    47    1
    10   107   110    1
    11    52    51    1
    12   114   117    1
    13    48    47    1
    14    47    50    1
    15    77    78    2
    16    77    76    1
    17    51    50    1
    18   110   112    1
    19   110   111    1
    20   117   118    1
    21   119   118    2
    22    85    83    1
    23    74    72   am
    24    76    75    1
    25    76    79    1
    26   140   141    2
    27   140   139    1
    28    80    79    1
    29    80    81    1
    30    83    84    1
    31    83    82    2
    32   118   120   am
    33    86    87    1
    34    89    88    2
    35    82    81    1
    36    70    69    2
    37    75    69   am
    38    88    87    1
    39   139   138    1
    40   139   142    1
    41    72    71    1
    42    72    73    2
    43    69    68    1
    44    87    90    1
    45    71    68    1
    46    68    67    1
    47   142   143    1
    48   144   143    2
    49    97    98    1
    50    90    91    1
    51    67    63   am
    52   143   145   am
    53    99    98    1
    54    99   100    2
    55    98   101    1
    56    91    92    1
    57    92    93    1
    58    66    65    1
    59    63    62    1
    60    63    64    2
    61    95    94    1
    62    93    94    2
    63   104   103   ar
    64    94    96    1
    65    62    65    1
    66    62    61    1
    67   101   102    1
    68   126   125    1
    69   103   102    1
    70   103   105   ar
    71   125   122    1
    72   134   133    2
    73   122   123    1
    74   122   121    1
    75   133   132    1
    76   130   129    2
    77   124   123    2
    78   123   127   am
    79   127   128    1
    80    11    10    1
    81     5     2    1
    82   129   128    1
    83   129   131   am
    84     1     2    1
    85    45    44   ar
    86    45    43   ar
    87     2     3    1
    88   132   131    1
    89   132   135    1
    90    60    59    1
    91   131   137    1
    92    44    42   ar
    93    10     7    1
    94    59    58    1
    95    55    56    2
    96    55    54    1
    97   137   136    1
    98   135   136    1
    99    43    41   ar
   100     3     4    2
   101    42    41   ar
   102    54    53    1
   103    54    57    1
   104    35    34    1
   105     7     6    1
   106     7     8    1
   107    58    57    1
   108    41    40    1
   109    33    34   ar
   110    33    31   ar
   111     8     9    2
   112     8    12   am
   113    34    32   ar
   114    18    16    1
   115    12    13    1
   116    31    29   ar
   117    40    37    1
   118    23    20    1
   119    39    38    2
   120    32    30   ar
   121    13    16    1
   122    13    14    1
   123    16    17    1
   124    37    38    1
   125    37    36    1
   126    29    30   ar
   127    29    28    1
   128    20    19    1
   129    20    21    1
   130    14    15    2
   131    25    28    1
   132    25    26    1
   133    25    24    1
   134    27    26    2
   135    21    22    2
