@<TRIPOS>MOLECULE
tmp/5ducA00.pdb
 163 158 0 0 0
SMALL
GASTEIGER

@<TRIPOS>ATOM
      1  N         -6.4970   43.2000  -39.3070 N.3    73  PRO73      -0.2116
      2  CA        -6.4900   41.7460  -39.1150 C.3    73  PRO73       0.1372
      3  C         -5.1700   41.2750  -38.5060 C.2    73  PRO73       0.2244
      4  O         -5.1680   40.4590  -37.5740 O.2    73  PRO73      -0.2868
      5  CB        -6.6660   41.2140  -40.5300 C.3    73  PRO73       0.0268
      6  CG        -7.4620   42.3080  -41.2240 C.3    73  PRO73       0.0207
      7  CD        -6.9190   43.5880  -40.6650 C.3    73  PRO73       0.0892
      8  N         -4.9850   42.4470  -34.8900 N.3    76  LEU76      -0.1231
      9  CA        -5.9060   41.6540  -34.0960 C.3    76  LEU76       0.1693
     10  C         -5.2670   40.3070  -33.7060 C.2    76  LEU76       0.2591
     11  O         -5.3930   39.8470  -32.5620 O.2    76  LEU76      -0.2718
     12  CB        -7.2160   41.4580  -34.8670 C.3    76  LEU76       0.0284
     13  CG        -8.3350   40.7280  -34.1280 C.3    76  LEU76       0.0019
     14  CD1       -8.6110   41.4320  -32.8200 C.3    76  LEU76       0.0001
     15  CD2       -9.5840   40.6680  -34.9920 C.3    76  LEU76       0.0001
     16  N         -4.5810   39.6850  -34.6650 N.am   77  ILE77      -0.1980
     17  CA        -3.9030   38.4180  -34.4160 C.3    77  ILE77       0.1595
     18  C         -2.8280   38.6190  -33.3650 C.2    77  ILE77       0.2287
     19  O         -2.7150   37.8240  -32.4250 O.2    77  ILE77      -0.2864
     20  CB        -3.2920   37.8200  -35.6980 C.3    77  ILE77       0.0276
     21  CG1       -4.3710   37.0580  -36.4700 C.3    77  ILE77       0.0022
     22  CG2       -2.1270   36.9000  -35.3620 C.3    77  ILE77       0.0022
     23  CD1       -4.1400   36.9900  -37.9780 C.3    77  ILE77       0.0001
     24  N         -4.3100   38.6700  -29.8650 N.3    80  HIS80      -0.1226
     25  CA        -4.6220   37.3590  -29.3220 C.3    80  HIS80       0.1752
     26  C         -3.3540   36.6060  -28.9570 C.2    80  HIS80       0.2595
     27  O         -3.3300   35.8810  -27.9630 O.2    80  HIS80      -0.2718
     28  CB        -5.4770   36.5630  -30.2980 C.3    80  HIS80       0.0759
     29  CG        -6.9010   37.0100  -30.3370 C.ar   80  HIS80       0.0818
     30  ND1       -7.9220   36.2910  -29.7500 N.ar   80  HIS80      -0.2268
     31  CD2       -7.4740   38.1080  -30.8790 C.ar   80  HIS80       0.1154
     32  CE1       -9.0650   36.9280  -29.9380 C.ar   80  HIS80       0.1986
     33  NE2       -8.8190   38.0310  -30.6210 N.ar   80  HIS80      -0.2212
     34  N         -2.2990   36.7770  -29.7490 N.am   81  LYS81      -0.1980
     35  CA        -1.0210   36.1860  -29.3930 C.3    81  LYS81       0.1596
     36  C         -0.5440   36.7590  -28.0790 C.2    81  LYS81       0.2287
     37  O         -0.1270   36.0300  -27.2060 O.2    81  LYS81      -0.2864
     38  CB         0.0170   36.4160  -30.4870 C.3    81  LYS81       0.0298
     39  CG        -0.1690   35.5950  -31.7500 C.3    81  LYS81       0.0038
     40  CD         1.0840   35.7400  -32.6380 C.3    81  LYS81       0.0206
     41  CE         0.9590   34.9310  -33.9410 C.3    81  LYS81       0.1093
     42  NZ         2.1530   35.1060  -34.8440 N.3    81  LYS81      -0.1314
     43  N         -2.6750   35.2020  -25.2040 N.3    84  ASP84      -0.1239
     44  CA        -2.2680   33.8120  -25.1200 C.3    84  ASP84       0.1674
     45  C         -0.8670   33.6300  -24.5410 C.2    84  ASP84       0.2266
     46  O         -0.6090   32.6680  -23.8240 O.2    84  ASP84      -0.2867
     47  CB        -2.2840   33.1980  -26.5110 C.3    84  ASP84       0.1410
     48  CG        -1.7650   31.7730  -26.5170 C.2    84  ASP84       0.3668
     49  OD1       -2.5770   30.8570  -26.2690 O.co2  84  ASP84      -0.2456
     50  OD2       -0.5520   31.5720  -26.7540 O.co2  84  ASP84      -0.2456
     51  N        -14.7930   36.7110  -29.6720 N.3   104  GLN104     -0.1245
     52  CA       -13.4650   36.1380  -29.7580 C.3   104  GLN104      0.1566
     53  C        -12.6020   36.6270  -28.6090 C.2   104  GLN104      0.2260
     54  O        -11.9690   35.8370  -27.9080 O.2   104  GLN104     -0.2867
     55  CB       -12.8170   36.5230  -31.0750 C.3   104  GLN104      0.0367
     56  CG       -13.4320   35.8600  -32.2780 C.3   104  GLN104      0.0905
     57  CD       -12.9390   36.4800  -33.5610 C.2   104  GLN104      0.2608
     58  OE1      -12.6590   37.6810  -33.6140 O.2   104  GLN104     -0.2717
     59  NE2      -12.8220   35.6710  -34.6050 N.am  104  GLN104     -0.0878
     60  N        -10.8640   34.7560  -25.4040 N.3   108  GLN108     -0.1245
     61  CA        -9.4030   34.6920  -25.2480 C.3   108  GLN108      0.1566
     62  C         -8.9690   35.0650  -23.8210 C.2   108  GLN108      0.2260
     63  O         -7.8020   34.9030  -23.4520 O.2   108  GLN108     -0.2867
     64  CB        -8.6740   35.5540  -26.2810 C.3   108  GLN108      0.0367
     65  CG        -7.1660   35.4230  -26.2160 C.3   108  GLN108      0.0905
     66  CD        -6.6720   34.1190  -26.8110 C.2   108  GLN108      0.2608
     67  OE1       -6.9650   33.8180  -27.9560 O.2   108  GLN108     -0.2717
     68  NE2       -5.9180   33.3380  -26.0330 N.am  108  GLN108     -0.0878
     69  N        -15.4430   32.1710  -39.9460 N.3   131  LEU131     -0.1231
     70  CA       -14.5090   32.3190  -38.8500 C.3   131  LEU131      0.1693
     71  C        -13.2520   31.4870  -39.0240 C.2   131  LEU131      0.2592
     72  O        -13.2150   30.5280  -39.7930 O.2   131  LEU131     -0.2718
     73  CB       -15.1820   31.9160  -37.5490 C.3   131  LEU131      0.0284
     74  CG       -16.2970   32.8420  -37.1000 C.3   131  LEU131      0.0019
     75  CD1      -17.0960   32.1700  -35.9880 C.3   131  LEU131      0.0001
     76  CD2      -15.7160   34.1700  -36.6310 C.3   131  LEU131      0.0001
     77  N        -12.2250   31.8750  -38.2760 N.am  132  ASP132     -0.1960
     78  CA       -11.0130   31.0970  -38.1090 C.3   132  ASP132      0.1840
     79  C        -11.3270   29.8750  -37.2570 C.2   132  ASP132      0.2622
     80  O        -12.2920   29.8720  -36.4930 O.2   132  ASP132     -0.2715
     81  CB        -9.9880   31.9420  -37.3840 C.3   132  ASP132      0.1450
     82  CG       -10.4320   32.2880  -35.9890 C.2   132  ASP132      0.3671
     83  OD1      -11.3490   33.1350  -35.8690 O.co2 132  ASP132     -0.2456
     84  OD2       -9.8980   31.6990  -35.0130 O.co2 132  ASP132     -0.2456
     85  N        -10.5120   28.8350  -37.3800 N.am  133  ASN133     -0.1958
     86  CA       -10.8120   27.5750  -36.7150 C.3   133  ASN133      0.1819
     87  C        -10.8040   27.6890  -35.1920 C.2   133  ASN133      0.2621
     88  O        -11.6110   27.0640  -34.5080 O.2   133  ASN133     -0.2715
     89  CB        -9.8430   26.4850  -37.1700 C.3   133  ASN133      0.1195
     90  CG       -10.1850   25.9330  -38.5380 C.2   133  ASN133      0.2630
     91  OD1      -10.5810   26.6740  -39.4410 O.2   133  ASN133     -0.2716
     92  ND2      -10.0400   24.6220  -38.6990 N.am  133  ASN133     -0.0877
     93  N         -9.8870   28.4860  -34.6650 N.am  134  TRP134     -0.1960
     94  CA        -9.7790   28.6360  -33.2240 C.3   134  TRP134      0.1771
     95  C        -11.0980   29.1210  -32.6230 C.2   134  TRP134      0.2620
     96  O        -11.5930   28.5720  -31.6270 O.2   134  TRP134     -0.2715
     97  CB        -8.6460   29.5960  -32.8650 C.3   134  TRP134      0.0590
     98  CG        -8.5470   29.8330  -31.4130 C.ar  134  TRP134      0.0006
     99  CD1       -7.8360   29.0980  -30.5030 C.ar  134  TRP134      0.0946
    100  CD2       -9.1930   30.8710  -30.6710 C.ar  134  TRP134      0.0152
    101  NE1       -8.0050   29.6200  -29.2410 N.ar  134  TRP134     -0.2442
    102  CE2       -8.8290   30.7120  -29.3230 C.ar  134  TRP134      0.0810
    103  CE3      -10.0340   31.9230  -31.0180 C.ar  134  TRP134      0.0012
    104  CZ2       -9.2790   31.5650  -28.3280 C.ar  134  TRP134      0.0191
    105  CZ3      -10.4790   32.7640  -30.0310 C.ar  134  TRP134      0.0001
    106  CH2      -10.1060   32.5810  -28.7020 C.ar  134  TRP134      0.0015
    107  N        -11.6610   30.1580  -33.2300 N.am  135  SER135     -0.1950
    108  CA       -12.8840   30.7450  -32.7220 C.3   135  SER135      0.1924
    109  C        -13.9100   29.6590  -32.5760 C.2   135  SER135      0.2314
    110  O        -14.6000   29.5870  -31.5690 O.2   135  SER135     -0.2863
    111  CB       -13.3950   31.8460  -33.6510 C.3   135  SER135      0.2116
    112  OG       -12.6530   33.0310  -33.4660 O.3   135  SER135     -0.2180
    113  N         -6.1660   26.0790  -30.9240 N.3   206  ILE206     -0.1245
    114  CA        -5.2990   26.7980  -31.8590 C.3   206  ILE206      0.1561
    115  C         -4.9850   25.8600  -33.0160 C.2   206  ILE206      0.2260
    116  O         -4.0100   25.1170  -32.9630 O.2   206  ILE206     -0.2867
    117  CB        -3.9820   27.2840  -31.1980 C.3   206  ILE206      0.0252
    118  CG1       -4.2860   28.1550  -29.9720 C.3   206  ILE206      0.0019
    119  CG2       -3.1200   28.0510  -32.2010 C.3   206  ILE206      0.0019
    120  CD1       -3.1000   28.3680  -29.0460 C.3   206  ILE206      0.0001
    121  N         -6.3560   26.0770  -40.3400 N.3   209  ALA209     -0.1245
    122  CA        -7.5180   25.7660  -41.1680 C.3   209  ALA209      0.1562
    123  C         -7.1690   24.6820  -42.1710 C.2   209  ALA209      0.2260
    124  O         -6.1290   24.7710  -42.8370 O.2   209  ALA209     -0.2867
    125  CB        -7.9920   27.0120  -41.8870 C.3   209  ALA209      0.0290
    126  N        -11.2420   23.9980  -45.5120 N.3   213  HIS213     -0.1226
    127  CA       -11.7700   25.0780  -44.6820 C.3   213  HIS213      0.1752
    128  C        -11.3660   26.4290  -45.2740 C.2   213  HIS213      0.2595
    129  O        -12.1300   27.3900  -45.1730 O.2   213  HIS213     -0.2718
    130  CB       -11.3060   24.9850  -43.2130 C.3   213  HIS213      0.0759
    131  CG       -11.5510   23.6510  -42.5690 C.ar  213  HIS213      0.0818
    132  ND1      -10.8460   23.2170  -41.4710 N.ar  213  HIS213     -0.2268
    133  CD2      -12.4240   22.6620  -42.8690 C.ar  213  HIS213      0.1154
    134  CE1      -11.2590   22.0090  -41.1320 C.ar  213  HIS213      0.1986
    135  NE2      -12.2170   21.6520  -41.9620 N.ar  213  HIS213     -0.2212
    136  N        -10.1820   26.5230  -45.8760 N.am  214  LYS214     -0.1980
    137  CA        -9.7450   27.8150  -46.3890 C.3   214  LYS214      0.1596
    138  C        -10.5350   28.1960  -47.6250 C.2   214  LYS214      0.2287
    139  O        -10.9620   29.3320  -47.7760 O.2   214  LYS214     -0.2864
    140  CB        -8.2460   27.8320  -46.6710 C.3   214  LYS214      0.0298
    141  CG        -7.3990   27.6260  -45.4360 C.3   214  LYS214      0.0038
    142  CD        -5.9520   28.0410  -45.7140 C.3   214  LYS214      0.0206
    143  CE        -4.9590   27.2110  -44.8950 C.3   214  LYS214      0.1093
    144  NZ        -3.5560   27.5140  -45.3290 N.3   214  LYS214     -0.1314
    145  N        -13.8830   29.3430  -46.6250 N.3   217  PHE217     -0.1227
    146  CA       -13.6500   30.6260  -45.9780 C.3   217  PHE217      0.1736
    147  C        -13.5770   31.7380  -47.0130 C.2   217  PHE217      0.2595
    148  O        -14.3390   32.7120  -46.9700 O.2   217  PHE217     -0.2718
    149  CB       -12.3300   30.5730  -45.2200 C.3   217  PHE217      0.0547
    150  CG       -12.0210   31.8140  -44.4450 C.ar  217  PHE217     -0.0202
    151  CD1      -12.3540   31.9040  -43.1130 C.ar  217  PHE217     -0.0042
    152  CD2      -11.3720   32.8820  -45.0440 C.ar  217  PHE217     -0.0042
    153  CE1      -12.0600   33.0470  -42.3890 C.ar  217  PHE217     -0.0003
    154  CE2      -11.0710   34.0240  -44.3280 C.ar  217  PHE217     -0.0003
    155  CZ       -11.4160   34.1100  -43.0060 C.ar  217  PHE217     -0.0000
    156  N        -12.6380   31.5760  -47.9370 N.am  218  ASP218     -0.1974
    157  CA       -12.4230   32.5370  -48.9990 C.3   218  ASP218      0.1709
    158  C        -13.6670   32.6600  -49.8400 C.2   218  ASP218      0.2293
    159  O        -14.0510   33.7550  -50.2200 O.2   218  ASP218     -0.2864
    160  CB       -11.2360   32.1250  -49.8590 C.3   218  ASP218      0.1436
    161  CG        -9.9260   32.1600  -49.0900 C.2   218  ASP218      0.3671
    162  OD1       -9.8550   32.8790  -48.0580 O.co2 218  ASP218     -0.2456
    163  OD2       -8.9710   31.4670  -49.5190 O.co2 218  ASP218     -0.2456
@<TRIPOS>BOND
     1   159   158    2
     2   160   161    1
     3   160   157    1
     4   158   157    1
     5   163   161   ar
     6   161   162   ar
     7   157   156    1
     8   156   147   am
     9   139   138    2
    10   138   137    1
    11   147   148    2
    12   147   146    1
    13   140   137    1
    14   140   141    1
    15   145   146    1
    16   137   136    1
    17   146   149    1
    18   136   128   am
    19   142   141    1
    20   142   143    1
    21   126   127    1
    22   144   143    1
    23   128   129    2
    24   128   127    1
    25   149   150    1
    26   152   150   ar
    27   152   154   ar
    28   127   130    1
    29   150   151   ar
    30   154   155   ar
    31   130   131    1
    32   151   153   ar
    33   155   153   ar
    34   133   131   ar
    35   133   135   ar
    36   124   123    2
    37   131   132   ar
    38   123   122    1
    39   135   134   ar
    40   125   122    1
    41   132   134   ar
    42     6     7    1
    43     6     5    1
    44   122   121    1
    45     7     1    1
    46     5     2    1
    47    69    70    1
    48    72    71    2
    49    91    90    2
    50     1     2    1
    51     2     3    1
    52    71    70    1
    53    71    77   am
    54    70    73    1
    55    92    90   am
    56    90    89    1
    57     3     4    2
    58    77    78    1
    59    78    81    1
    60    78    79    1
    61    23    21    1
    62    73    74    1
    63    81    82    1
    64    85    79   am
    65    85    86    1
    66    79    80    2
    67    89    86    1
    68    74    76    1
    69    74    75    1
    70    86    87    1
    71    21    20    1
    72    82    83   ar
    73    82    84   ar
    74    20    22    1
    75    20    17    1
    76    87    93   am
    77    87    88    2
    78    15    13    1
    79     8     9    1
    80    12    13    1
    81    12     9    1
    82    42    41    1
    83    93    94    1
    84    16    17    1
    85    16    10   am
    86    59    57   am
    87    17    18    1
    88    13    14    1
    89     9    10    1
    90    41    40    1
    91    10    11    2
    92   111   112    1
    93   111   108    1
    94    58    57    2
    95    57    56    1
    96    18    19    2
    97   107   108    1
    98   107    95   am
    99    94    97    1
   100    94    95    1
   101   115   116    2
   102   115   114    1
   103    97    98    1
   104   108   109    1
   105    40    39    1
   106    95    96    2
   107   109   110    2
   108    56    55    1
   109   119   117    1
   110   114   117    1
   111   114   113    1
   112    39    38    1
   113    98   100   ar
   114    98    99   ar
   115   117   118    1
   116    55    52    1
   117   103   100   ar
   118   103   105   ar
   119    31    33   ar
   120    31    29   ar
   121   100   102   ar
   122    33    32   ar
   123    99   101   ar
   124    38    35    1
   125    29    28    1
   126    29    30   ar
   127    28    25    1
   128   105   106   ar
   129   118   120    1
   130    32    30   ar
   131    24    25    1
   132    52    51    1
   133    52    53    1
   134    34    35    1
   135    34    26   am
   136    35    36    1
   137   102   101   ar
   138   102   104   ar
   139    25    26    1
   140    26    27    2
   141   106   104   ar
   142    53    54    2
   143    36    37    2
   144    67    66    2
   145    66    65    1
   146    66    68   am
   147    50    48   ar
   148    48    47    1
   149    48    49   ar
   150    47    44    1
   151    64    65    1
   152    64    61    1
   153    60    61    1
   154    61    62    1
   155    43    44    1
   156    44    45    1
   157    45    46    2
   158    62    63    2
