@<TRIPOS>MOLECULE
tmp/5dueA01.pdb
 214 202 0 0 0
SMALL
GASTEIGER

@<TRIPOS>ATOM
      1  N        -25.9790  -33.3950   -2.9920 N.3    39  MET39      -0.1245
      2  CA       -26.1340  -32.0760   -3.5920 C.3    39  MET39       0.1570
      3  C        -26.7830  -31.1060   -2.6100 C.2    39  MET39       0.2261
      4  O        -26.4290  -29.9300   -2.5580 O.2    39  MET39      -0.2867
      5  CB       -26.9500  -32.1580   -4.8830 C.3    39  MET39       0.0387
      6  CG       -26.2570  -32.9280   -5.9940 C.3    39  MET39       0.0595
      7  SD       -24.5370  -32.4230   -6.1980 S.3    39  MET39      -0.1393
      8  CE       -24.7290  -30.6710   -6.5030 C.3    39  MET39       0.0692
      9  N        -23.9110  -30.1260   -0.0230 N.3    42  LEU42      -0.1231
     10  CA       -22.8890  -29.2710   -0.6210 C.3    42  LEU42       0.1693
     11  C        -23.4390  -27.8820   -0.9240 C.2    42  LEU42       0.2592
     12  O        -22.7980  -26.8780   -0.6270 O.2    42  LEU42      -0.2718
     13  CB       -22.3240  -29.9130   -1.8990 C.3    42  LEU42       0.0284
     14  CG       -21.6140  -31.2560   -1.7200 C.3    42  LEU42       0.0019
     15  CD1      -21.2650  -31.8710   -3.0690 C.3    42  LEU42       0.0001
     16  CD2      -20.3670  -31.0900   -0.8660 C.3    42  LEU42       0.0001
     17  N        -24.6290  -27.8340   -1.5140 N.am   43  THR43      -0.1953
     18  CA       -25.2910  -26.5690   -1.8150 C.3    43  THR43       0.1897
     19  C        -25.4490  -25.6970   -0.5710 C.2    43  THR43       0.2313
     20  O        -25.0770  -24.5210   -0.5770 O.2    43  THR43      -0.2863
     21  CB       -26.6750  -26.7960   -2.4460 C.3    43  THR43       0.1794
     22  OG1      -26.5170  -27.2900   -3.7820 O.3    43  THR43      -0.2208
     23  CG2      -27.4640  -25.4940   -2.4860 C.3    43  THR43       0.0378
     24  N        -23.8370  -25.8890    2.2140 N.3    45  LEU45      -0.1231
     25  CA       -22.5020  -25.5340    2.6750 C.3    45  LEU45       0.1693
     26  C        -21.8780  -24.4250    1.8220 C.2    45  LEU45       0.2591
     27  O        -21.3570  -23.4380    2.3490 O.2    45  LEU45      -0.2718
     28  CB       -21.6010  -26.7700    2.6630 C.3    45  LEU45       0.0284
     29  CG       -20.1230  -26.5580    2.9870 C.3    45  LEU45       0.0019
     30  CD1      -19.9470  -26.0120    4.4050 C.3    45  LEU45       0.0001
     31  CD2      -19.3630  -27.8650    2.8010 C.3    45  LEU45       0.0001
     32  N        -21.9280  -24.5900    0.5050 N.am   46  ALA46      -0.1980
     33  CA       -21.3640  -23.5970   -0.4030 C.3    46  ALA46       0.1597
     34  C        -22.0120  -22.2360   -0.1780 C.2    46  ALA46       0.2287
     35  O        -21.3430  -21.2050   -0.2010 O.2    46  ALA46      -0.2864
     36  CB       -21.5430  -24.0430   -1.8500 C.3    46  ALA46       0.0319
     37  N        -20.6590  -20.6890    3.0160 N.3    49  GLU49      -0.1245
     38  CA       -19.2820  -20.2630    2.7800 C.3    49  GLU49       0.1567
     39  C        -19.2240  -18.9600    1.9850 C.2    49  GLU49       0.2260
     40  O        -18.3600  -18.1190    2.2230 O.2    49  GLU49      -0.2867
     41  CB       -18.4820  -21.3450    2.0550 C.3    49  GLU49       0.0388
     42  CG       -17.8770  -22.3860    2.9760 C.3    49  GLU49       0.1160
     43  CD       -16.7780  -23.1760    2.3030 C.2    49  GLU49       0.3649
     44  OE1      -17.0740  -23.8830    1.3180 O.co2  49  GLU49      -0.2457
     45  OE2      -15.6160  -23.0800    2.7510 O.co2  49  GLU49      -0.2457
     46  N        -15.8080  -16.1200   -7.4460 N.3    79  TRP79      -0.1227
     47  CA       -16.3550  -16.8270   -6.2840 C.3    79  TRP79       0.1737
     48  C        -16.0780  -18.3390   -6.2670 C.2    79  TRP79       0.2595
     49  O        -15.6480  -18.8790   -5.2440 O.2    79  TRP79      -0.2718
     50  CB       -17.8490  -16.5300   -6.0960 C.3    79  TRP79       0.0564
     51  CG       -18.7310  -17.1000   -7.1540 C.ar   79  TRP79       0.0003
     52  CD1      -19.0620  -16.5220   -8.3450 C.ar   79  TRP79       0.0946
     53  CD2      -19.4060  -18.3620   -7.1170 C.ar   79  TRP79       0.0152
     54  NE1      -19.8980  -17.3510   -9.0550 N.ar   79  TRP79      -0.2442
     55  CE2      -20.1240  -18.4870   -8.3220 C.ar   79  TRP79       0.0810
     56  CE3      -19.4650  -19.4030   -6.1870 C.ar   79  TRP79       0.0012
     57  CZ2      -20.8970  -19.6100   -8.6190 C.ar   79  TRP79       0.0191
     58  CZ3      -20.2320  -20.5150   -6.4820 C.ar   79  TRP79       0.0001
     59  CH2      -20.9360  -20.6100   -7.6890 C.ar   79  TRP79       0.0015
     60  N        -16.3170  -19.0250   -7.3830 N.am   80  LEU80      -0.1980
     61  CA       -16.1080  -20.4700   -7.4010 C.3    80  LEU80       0.1596
     62  C        -14.6260  -20.8450   -7.3240 C.2    80  LEU80       0.2287
     63  O        -14.2680  -21.8420   -6.6940 O.2    80  LEU80      -0.2864
     64  CB       -16.7770  -21.1270   -8.6090 C.3    80  LEU80       0.0297
     65  CG       -16.7430  -22.6580   -8.5980 C.3    80  LEU80       0.0022
     66  CD1      -17.2930  -23.2010   -7.2820 C.3    80  LEU80       0.0001
     67  CD2      -17.5060  -23.2330   -9.7910 C.3    80  LEU80       0.0001
     68  N        -13.8740  -20.4940   -3.5350 N.3    83  LEU83      -0.1231
     69  CA       -14.3450  -21.6580   -2.7850 C.3    83  LEU83       0.1693
     70  C        -13.4460  -22.8570   -3.0670 C.2    83  LEU83       0.2591
     71  O        -13.0870  -23.6020   -2.1550 O.2    83  LEU83      -0.2718
     72  CB       -15.7910  -22.0080   -3.1480 C.3    83  LEU83       0.0284
     73  CG       -16.9080  -21.0710   -2.6870 C.3    83  LEU83       0.0019
     74  CD1      -18.2490  -21.6610   -3.0810 C.3    83  LEU83       0.0001
     75  CD2      -16.8480  -20.8240   -1.1740 C.3    83  LEU83       0.0001
     76  N        -13.0700  -23.0230   -4.3330 N.am   84  MET84      -0.1979
     77  CA       -12.2640  -24.1650   -4.7560 C.3    84  MET84       0.1605
     78  C        -10.8770  -24.1870   -4.1190 C.2    84  MET84       0.2287
     79  O        -10.4490  -25.2180   -3.5990 O.2    84  MET84      -0.2864
     80  CB       -12.1590  -24.2290   -6.2900 C.3    84  MET84       0.0413
     81  CG       -13.3680  -24.8750   -6.9500 C.3    84  MET84       0.0598
     82  SD       -13.2960  -24.8710   -8.7560 S.3    84  MET84      -0.1393
     83  CE       -14.6160  -26.0160   -9.1430 C.3    84  MET84       0.0692
     84  N        -11.2320  -25.0700   -0.5240 N.3    87  LEU87      -0.1245
     85  CA       -11.5120  -26.4950   -0.3610 C.3    87  LEU87       0.1561
     86  C        -10.2390  -27.3190   -0.5250 C.2    87  LEU87       0.2260
     87  O         -9.9840  -28.2520    0.2400 O.2    87  LEU87      -0.2867
     88  CB       -12.5630  -26.9540   -1.3730 C.3    87  LEU87       0.0270
     89  CG       -12.8210  -28.4640   -1.4590 C.3    87  LEU87       0.0019
     90  CD1      -13.3540  -28.9960   -0.1360 C.3    87  LEU87       0.0001
     91  CD2      -13.7860  -28.7820   -2.5910 C.3    87  LEU87       0.0001
     92  N         -7.7110  -26.8170    2.6520 N.3    90  ARG90      -0.1245
     93  CA        -8.0320  -27.5420    3.8750 C.3    90  ARG90       0.1563
     94  C         -8.0790  -29.0480    3.6480 C.2    90  ARG90       0.2260
     95  O         -8.2780  -29.8160    4.5860 O.2    90  ARG90      -0.2867
     96  CB        -9.3390  -27.0410    4.4930 C.3    90  ARG90       0.0307
     97  CG       -10.5720  -27.1840    3.6170 C.3    90  ARG90       0.0489
     98  CD       -11.8190  -26.8290    4.4190 C.3    90  ARG90       0.2205
     99  NE       -13.0540  -26.9690    3.6550 N.pl3  90  ARG90      -0.0865
    100  CZ       -13.6350  -25.9780    2.9880 C.cat  90  ARG90       0.5346
    101  NH1      -13.0850  -24.7740    2.9830 N.pl3  90  ARG90       0.1354
    102  NH2      -14.7630  -26.1900    2.3260 N.pl3  90  ARG90       0.1354
    103  N        -14.6350  -31.1930    2.5770 N.3   100  PHE100     -0.1241
    104  CA       -15.6390  -30.1530    2.4030 C.3   100  PHE100      0.1605
    105  C        -15.9500  -29.5100    3.7500 C.2   100  PHE100      0.2264
    106  O        -16.1190  -28.2970    3.8490 O.2   100  PHE100     -0.2867
    107  CB       -16.9060  -30.7310    1.7710 C.3   100  PHE100      0.0534
    108  CG       -16.7460  -31.0930    0.3240 C.ar  100  PHE100     -0.0203
    109  CD1      -16.9550  -30.1450   -0.6650 C.ar  100  PHE100     -0.0042
    110  CD2      -16.3780  -32.3760   -0.0500 C.ar  100  PHE100     -0.0042
    111  CE1      -16.8050  -30.4710   -2.0010 C.ar  100  PHE100     -0.0003
    112  CE2      -16.2260  -32.7080   -1.3830 C.ar  100  PHE100     -0.0003
    113  CZ       -16.4410  -31.7550   -2.3610 C.ar  100  PHE100     -0.0000
    114  N        -23.1420  -37.9580   -7.7790 N.3   114  VAL114     -0.1231
    115  CA       -23.6310  -36.8150   -8.5380 C.3   114  VAL114      0.1692
    116  C        -23.1080  -36.8220   -9.9690 C.2   114  VAL114      0.2592
    117  O        -21.9540  -37.1690  -10.2210 O.2   114  VAL114     -0.2718
    118  CB       -23.2380  -35.4910   -7.8660 C.3   114  VAL114      0.0266
    119  CG1      -23.7980  -34.3150   -8.6480 C.3   114  VAL114      0.0020
    120  CG2      -23.7290  -35.4680   -6.4250 C.3   114  VAL114      0.0020
    121  N        -23.9680  -36.4270  -10.9020 N.am  115  GLU115     -0.1966
    122  CA       -23.6220  -36.4200  -12.3160 C.3   115  GLU115      0.1733
    123  C        -22.3920  -35.5600  -12.5860 C.2   115  GLU115      0.2617
    124  O        -22.3770  -34.3650  -12.2830 O.2   115  GLU115     -0.2715
    125  CB       -24.8030  -35.9170  -13.1460 C.3   115  GLU115      0.0429
    126  CG       -24.8800  -36.5140  -14.5400 C.3   115  GLU115      0.1163
    127  CD       -25.1140  -38.0120  -14.5130 C.2   115  GLU115      0.3649
    128  OE1      -25.0650  -38.6040  -13.4140 O.co2 115  GLU115     -0.2457
    129  OE2      -25.3510  -38.5980  -15.5910 O.co2 115  GLU115     -0.2457
    130  N        -21.3600  -36.1800  -13.1490 N.am  116  GLY116     -0.1940
    131  CA       -20.1510  -35.4750  -13.5350 C.3   116  GLY116      0.2014
    132  C        -19.5230  -34.6010  -12.4630 C.2   116  GLY116      0.2638
    133  O        -19.0350  -33.5100  -12.7570 O.2   116  GLY116     -0.2714
    134  N        -19.5290  -35.0680  -11.2190 N.am  117  MET117     -0.1976
    135  CA       -18.8240  -34.3590  -10.1560 C.3   117  MET117      0.1605
    136  C        -17.4300  -34.9510   -9.9740 C.2   117  MET117      0.2287
    137  O        -16.5040  -34.2690   -9.5330 O.2   117  MET117     -0.2864
    138  CB       -19.6050  -34.4030   -8.8410 C.3   117  MET117      0.0413
    139  CG       -19.0600  -33.4520   -7.7810 C.3   117  MET117      0.0598
    140  SD       -20.0920  -33.3380   -6.3040 S.3   117  MET117     -0.1393
    141  CE       -19.9990  -35.0170   -5.6820 C.3   117  MET117      0.0692
    142  N        -14.5740  -33.0020  -11.7790 N.3   120  ILE120     -0.1231
    143  CA       -14.0670  -31.8830  -10.9920 C.3   120  ILE120      0.1692
    144  C        -13.3640  -32.3720   -9.7290 C.2   120  ILE120      0.2592
    145  O        -12.3470  -31.8160   -9.3130 O.2   120  ILE120     -0.2718
    146  CB       -15.2120  -30.9370  -10.5890 C.3   120  ILE120      0.0266
    147  CG1      -15.9730  -30.4630  -11.8310 C.3   120  ILE120      0.0019
    148  CG2      -14.6780  -29.7550   -9.7890 C.3   120  ILE120      0.0020
    149  CD1      -15.1490  -29.6100  -12.7560 C.3   120  ILE120      0.0001
    150  N        -13.9190  -33.4140   -9.1230 N.am  121  PHE121     -0.1976
    151  CA       -13.3510  -33.9980   -7.9140 C.3   121  PHE121      0.1639
    152  C        -11.8880  -34.3720   -8.1380 C.2   121  PHE121      0.2290
    153  O        -11.0230  -34.0400   -7.3280 O.2   121  PHE121     -0.2864
    154  CB       -14.1490  -35.2410   -7.5080 C.3   121  PHE121      0.0560
    155  CG       -14.0210  -35.6000   -6.0530 C.ar  121  PHE121     -0.0200
    156  CD1      -15.0750  -35.3810   -5.1790 C.ar  121  PHE121     -0.0042
    157  CD2      -12.8520  -36.1550   -5.5600 C.ar  121  PHE121     -0.0042
    158  CE1      -14.9660  -35.7120   -3.8430 C.ar  121  PHE121     -0.0003
    159  CE2      -12.7370  -36.4850   -4.2200 C.ar  121  PHE121     -0.0003
    160  CZ       -13.7950  -36.2640   -3.3620 C.ar  121  PHE121     -0.0000
    161  N         -9.6930  -31.2730   -8.3900 N.3   124  LEU124     -0.1245
    162  CA        -9.4700  -30.6800   -7.0760 C.3   124  LEU124      0.1561
    163  C         -8.4270  -31.4870   -6.3090 C.2   124  LEU124      0.2260
    164  O         -7.5180  -30.9240   -5.6950 O.2   124  LEU124     -0.2867
    165  CB       -10.7800  -30.6040   -6.2910 C.3   124  LEU124      0.0270
    166  CG       -11.8270  -29.6580   -6.8820 C.3   124  LEU124      0.0019
    167  CD1      -13.2090  -29.9310   -6.3030 C.3   124  LEU124      0.0001
    168  CD2      -11.4230  -28.2010   -6.6790 C.3   124  LEU124      0.0001
    169  N        -16.7410  -26.2190  -13.5290 N.3   208  GLY208     -0.1225
    170  CA       -17.6810  -26.2880  -12.4230 C.3   208  GLY208      0.1811
    171  C        -18.9530  -25.5010  -12.6740 C.2   208  GLY208      0.2280
    172  O        -20.0510  -25.9930  -12.4170 O.2   208  GLY208     -0.2866
    173  N        -21.5070  -27.2100  -14.8290 N.3   211  HIS211     -0.1226
    174  CA       -22.2270  -28.2890  -14.1620 C.3   211  HIS211      0.1752
    175  C        -23.2970  -27.7680  -13.2100 C.2   211  HIS211      0.2595
    176  O        -24.3620  -28.3690  -13.0770 O.2   211  HIS211     -0.2718
    177  CB       -21.2570  -29.2200  -13.4330 C.3   211  HIS211      0.0759
    178  CG       -20.4490  -30.0820  -14.3530 C.ar  211  HIS211      0.0818
    179  ND1      -21.0260  -30.9430  -15.2600 N.ar  211  HIS211     -0.2268
    180  CD2      -19.1100  -30.2140  -14.5060 C.ar  211  HIS211      0.1154
    181  CE1      -20.0770  -31.5700  -15.9340 C.ar  211  HIS211      0.1986
    182  NE2      -18.9070  -31.1460  -15.4960 N.ar  211  HIS211     -0.2212
    183  N        -23.0140  -26.6490  -12.5520 N.am  212  LEU212     -0.1980
    184  CA       -23.9960  -26.0260  -11.6750 C.3   212  LEU212      0.1596
    185  C        -25.1990  -25.5500  -12.4760 C.2   212  LEU212      0.2287
    186  O        -26.3460  -25.7620  -12.0790 O.2   212  LEU212     -0.2864
    187  CB       -23.3780  -24.8620  -10.9030 C.3   212  LEU212      0.0297
    188  CG       -22.5440  -25.2470   -9.6830 C.3   212  LEU212      0.0022
    189  CD1      -21.9560  -24.0100   -9.0260 C.3   212  LEU212      0.0001
    190  CD2      -23.3950  -26.0310   -8.6920 C.3   212  LEU212      0.0001
    191  N        -27.2840  -28.4780  -13.3140 N.3   215  MET215     -0.1245
    192  CA       -28.0790  -28.9080  -12.1710 C.3   215  MET215      0.1570
    193  C        -29.2830  -27.9950  -11.9740 C.2   215  MET215      0.2261
    194  O        -30.3870  -28.4620  -11.6960 O.2   215  MET215     -0.2867
    195  CB       -27.2280  -28.9430  -10.9020 C.3   215  MET215      0.0387
    196  CG       -27.9720  -29.4780   -9.6880 C.3   215  MET215      0.0595
    197  SD       -26.9560  -29.5320   -8.2010 S.3   215  MET215     -0.1393
    198  CE       -26.5510  -27.8000   -7.9950 C.3   215  MET215      0.0692
    199  N        -31.3030  -24.4080   -5.7490 N.3   223  LEU223     -0.1245
    200  CA       -30.1420  -23.6190   -5.3590 C.3   223  LEU223      0.1561
    201  C        -30.6060  -22.3710   -4.6210 C.2   223  LEU223      0.2260
    202  O        -31.6970  -21.8640   -4.8750 O.2   223  LEU223     -0.2867
    203  CB       -29.3200  -23.2280   -6.5880 C.3   223  LEU223      0.0270
    204  CG       -28.7910  -24.3690   -7.4590 C.3   223  LEU223      0.0019
    205  CD1      -28.0770  -23.8230   -8.6880 C.3   223  LEU223      0.0001
    206  CD2      -27.8720  -25.2790   -6.6570 C.3   223  LEU223      0.0001
    207  N        -26.6120  -18.1800   -4.6430 N.3   227  LEU227     -0.1245
    208  CA       -25.9080  -19.0040   -5.6180 C.3   227  LEU227      0.1561
    209  C        -26.4240  -18.7240   -7.0200 C.2   227  LEU227      0.2260
    210  O        -25.6430  -18.5620   -7.9590 O.2   227  LEU227     -0.2867
    211  CB       -26.0730  -20.4890   -5.2920 C.3   227  LEU227      0.0270
    212  CG       -25.0380  -21.1040   -4.3490 C.3   227  LEU227      0.0019
    213  CD1      -25.4800  -22.4840   -3.8840 C.3   227  LEU227      0.0001
    214  CD2      -23.6830  -21.1700   -5.0340 C.3   227  LEU227      0.0001
@<TRIPOS>BOND
     1   181   182   ar
     2   181   179   ar
     3   129   127   ar
     4   182   180   ar
     5   179   178   ar
     6   173   174    1
     7   126   127    1
     8   126   125    1
     9   127   128   ar
    10   180   178   ar
    11   178   177    1
    12   174   177    1
    13   174   175    1
    14   131   130    1
    15   131   132    1
    16   169   170    1
    17   191   192    1
    18   175   176    2
    19   175   183   am
    20   130   123   am
    21   125   122    1
    22   133   132    2
    23   149   147    1
    24   171   170    1
    25   171   172    2
    26   123   122    1
    27   123   124    2
    28   183   184    1
    29   185   186    2
    30   185   184    1
    31   132   134   am
    32   122   121    1
    33   192   193    1
    34   192   195    1
    35   193   194    2
    36   147   146    1
    37   142   143    1
    38   184   187    1
    39   134   135    1
    40   143   146    1
    41   143   144    1
    42   187   188    1
    43   121   116   am
    44   195   196    1
    45   146   148    1
    46   117   116    2
    47   135   136    1
    48   135   138    1
    49   136   137    2
    50   116   115    1
    51    67    65    1
    52   144   145    2
    53   144   150   am
    54   196   197    1
    55   188   189    1
    56   188   190    1
    57    83    82    1
    58   150   151    1
    59    54    52   ar
    60    54    55   ar
    61   138   139    1
    62    82    81    1
    63   205   204    1
    64   119   118    1
    65    57    55   ar
    66    57    59   ar
    67    64    65    1
    68    64    61    1
    69    65    66    1
    70   115   118    1
    71   115   114    1
    72   161   162    1
    73    52    51   ar
    74    55    53   ar
    75   197   198    1
    76   152   151    1
    77   152   153    2
    78   210   209    2
    79   151   154    1
    80   118   120    1
    81   139   140    1
    82    59    58   ar
    83   154   155    1
    84   204   206    1
    85   204   203    1
    86    46    47    1
    87    61    60    1
    88    61    62    1
    89    60    48   am
    90    62    63    2
    91    51    53   ar
    92    51    50    1
    93    53    56   ar
    94   162   163    1
    95   162   165    1
    96   209   208    1
    97    81    80    1
    98   166   168    1
    99   166   167    1
   100   166   165    1
   101   203   200    1
   102     8     7    1
   103    58    56   ar
   104   163   164    2
   105   140   141    1
   106    80    77    1
   107    47    48    1
   108    47    50    1
   109    48    49    2
   110     7     6    1
   111   155   157   ar
   112   155   156   ar
   113     6     5    1
   114   199   200    1
   115   208   211    1
   116   208   207    1
   117   157   159   ar
   118   200   201    1
   119   211   212    1
   120   156   158   ar
   121   214   212    1
   122     5     2    1
   123   202   201    2
   124    77    76    1
   125    77    78    1
   126   212   213    1
   127    76    70   am
   128   159   160   ar
   129    78    79    2
   130   158   160   ar
   131    22    21    1
   132     2     1    1
   133     2     3    1
   134    68    69    1
   135    72    69    1
   136    72    73    1
   137    74    73    1
   138    15    14    1
   139    70    69    1
   140    70    71    2
   141    73    75    1
   142     3     4    2
   143    91    89    1
   144    23    21    1
   145    21    18    1
   146   113   111   ar
   147   113   112   ar
   148   111   109   ar
   149    13    14    1
   150    13    10    1
   151    36    33    1
   152    18    17    1
   153    18    19    1
   154    14    16    1
   155    17    11   am
   156    89    88    1
   157    89    90    1
   158   112   110   ar
   159    88    85    1
   160    11    12    2
   161    11    10    1
   162   109   108   ar
   163    10     9    1
   164    20    19    2
   165    86    85    1
   166    86    87    2
   167    84    85    1
   168    33    34    1
   169    33    32    1
   170    35    34    2
   171   110   108   ar
   172   108   107    1
   173    32    26   am
   174    44    43   ar
   175   107   104    1
   176    26    27    2
   177    26    25    1
   178    39    40    2
   179    39    38    1
   180    41    38    1
   181    41    42    1
   182    24    25    1
   183    43    45   ar
   184    43    42    1
   185   102   100    1
   186   104   103    1
   187   104   105    1
   188    92    93    1
   189    28    25    1
   190    28    29    1
   191    38    37    1
   192    31    29    1
   193   101   100    1
   194    29    30    1
   195   100    99    2
   196    97    98    1
   197    97    96    1
   198    94    93    1
   199    94    95    2
   200    99    98    1
   201   105   106    2
   202    93    96    1
