@<TRIPOS>MOLECULE
tmp/5dufA00.pdb
 124 118 0 0 0
SMALL
GASTEIGER

@<TRIPOS>ATOM
      1  N        -44.0450    2.6520    8.5880 N.3    74  PRO74      -0.2116
      2  CA       -44.6440    3.9800    8.7830 C.3    74  PRO74       0.1372
      3  C        -43.7550    4.9190    9.6010 C.2    74  PRO74       0.2244
      4  O        -43.6270    6.1010    9.2630 O.2    74  PRO74      -0.2868
      5  CB       -45.9400    3.6680    9.5390 C.3    74  PRO74       0.0268
      6  CG       -46.2690    2.2560    9.1400 C.3    74  PRO74       0.0207
      7  CD       -44.9420    1.5660    9.0260 C.3    74  PRO74       0.0892
      8  N        -40.6880    5.9330    7.5830 N.3    77  LEU77      -0.1231
      9  CA       -41.0780    6.9210    6.5860 C.3    77  LEU77       0.1693
     10  C        -41.0780    8.3220    7.1950 C.2    77  LEU77       0.2591
     11  O        -40.5600    9.2740    6.5970 O.2    77  LEU77      -0.2718
     12  CB       -42.4460    6.5870    5.9900 C.3    77  LEU77       0.0284
     13  CG       -42.8440    7.4510    4.7910 C.3    77  LEU77       0.0019
     14  CD1      -41.8320    7.3160    3.6640 C.3    77  LEU77       0.0001
     15  CD2      -44.2410    7.0700    4.3040 C.3    77  LEU77       0.0001
     16  N        -41.6510    8.4530    8.3870 N.am   78  ILE78      -0.1980
     17  CA       -41.6290    9.7330    9.0910 C.3    78  ILE78       0.1595
     18  C        -40.1800   10.1900    9.3370 C.2    78  ILE78       0.2287
     19  O        -39.8640   11.3710    9.1690 O.2    78  ILE78      -0.2864
     20  CB       -42.4430    9.6860   10.4080 C.3    78  ILE78       0.0276
     21  CG1      -43.9430    9.5940   10.1020 C.3    78  ILE78       0.0022
     22  CG2      -42.1780   10.9230   11.2460 C.3    78  ILE78       0.0022
     23  CD1      -44.8090    9.2710   11.3150 C.3    78  ILE78       0.0001
     24  N        -38.7250   11.8170    6.2210 N.3    81  HIS81      -0.1226
     25  CA       -39.2110   13.1810    6.0540 C.3    81  HIS81       0.1752
     26  C        -38.5340   14.1490    7.0150 C.2    81  HIS81       0.2595
     27  O        -38.1820   15.2660    6.6250 O.2    81  HIS81      -0.2718
     28  CB       -40.7390   13.2200    6.1660 C.3    81  HIS81       0.0759
     29  CG       -41.4250   12.7530    4.9220 C.ar   81  HIS81       0.0818
     30  ND1      -41.8950   13.6260    3.9650 N.ar   81  HIS81      -0.2268
     31  CD2      -41.6710   11.5070    4.4490 C.ar   81  HIS81       0.1154
     32  CE1      -42.4160   12.9410    2.9620 C.ar   81  HIS81       0.1986
     33  NE2      -42.2970   11.6510    3.2340 N.ar   81  HIS81      -0.2212
     34  N        -38.3320   13.7240    8.2560 N.am   82  LYS82      -0.1980
     35  CA       -37.5890   14.5310    9.2160 C.3    82  LYS82       0.1596
     36  C        -36.1580   14.7890    8.7460 C.2    82  LYS82       0.2287
     37  O        -35.6500   15.8930    8.8930 O.2    82  LYS82      -0.2864
     38  CB       -37.6050   13.8900   10.6060 C.3    82  LYS82       0.0298
     39  CG       -38.9700   13.9430   11.2720 C.3    82  LYS82       0.0038
     40  CD       -38.9470   13.3460   12.6710 C.3    82  LYS82       0.0206
     41  CE       -40.2970   13.5250   13.3550 C.3    82  LYS82       0.1093
     42  NZ       -40.2910   13.0350   14.7610 N.3    82  LYS82      -0.1314
     43  N        -36.3000   17.3710    5.8820 N.3    85  ASP85      -0.1239
     44  CA       -36.6500   18.6640    6.4610 C.3    85  ASP85       0.1674
     45  C        -35.4780   19.2990    7.2100 C.2    85  ASP85       0.2266
     46  O        -35.3150   20.5260    7.1870 O.2    85  ASP85      -0.2867
     47  CB       -37.8480   18.4970    7.4060 C.3    85  ASP85       0.1410
     48  CG       -38.1490   19.7540    8.2070 C.2    85  ASP85       0.3668
     49  OD1      -38.7970   20.6670    7.6470 O.co2  85  ASP85      -0.2456
     50  OD2      -37.7480   19.8160    9.3860 O.co2  85  ASP85      -0.2456
     51  N        -45.9050   12.3930   -1.6020 N.3   105  GLN105     -0.1245
     52  CA       -45.3420   12.9260   -0.3510 C.3   105  GLN105      0.1566
     53  C        -43.8400   13.1850   -0.4630 C.2   105  GLN105      0.2260
     54  O        -43.3540   14.2510   -0.0930 O.2   105  GLN105     -0.2867
     55  CB       -45.6080   11.9800    0.8260 C.3   105  GLN105      0.0367
     56  CG       -47.0830   11.8180    1.1720 C.3   105  GLN105      0.0905
     57  CD       -47.3170   10.6910    2.1540 C.2   105  GLN105      0.2608
     58  OE1      -46.6030    9.6820    2.1490 O.2   105  GLN105     -0.2717
     59  NE2      -48.3200   10.8540    3.0080 N.am  105  GLN105     -0.0878
     60  N        -41.6360   16.8180   -0.3770 N.3   109  GLN109     -0.1245
     61  CA       -40.6290   17.0740    0.6490 C.3   109  GLN109      0.1566
     62  C        -39.3080   17.5510    0.0250 C.2   109  GLN109      0.2260
     63  O        -38.4290   18.0590    0.7240 O.2   109  GLN109     -0.2867
     64  CB       -40.4070   15.8210    1.5190 C.3   109  GLN109      0.0367
     65  CG       -39.5840   16.0680    2.7790 C.3   109  GLN109      0.0905
     66  CD       -40.3220   16.9340    3.7860 C.2   109  GLN109      0.2608
     67  OE1      -41.3030   16.4890    4.4080 O.2   109  GLN109     -0.2717
     68  NE2      -39.8560   18.1630    3.9680 N.am  109  GLN109     -0.0878
     69  N        -52.0460   12.2040    6.5650 N.3   133  ASP133     -0.1239
     70  CA       -51.5960   13.1160    7.6120 C.3   133  ASP133      0.1674
     71  C        -51.8220   14.5810    7.1930 C.2   133  ASP133      0.2266
     72  O        -51.9410   14.9030    6.0050 O.2   133  ASP133     -0.2867
     73  CB       -50.1060   12.8850    7.8890 C.3   133  ASP133      0.1410
     74  CG       -49.2510   13.2610    6.7090 C.2   133  ASP133      0.3668
     75  OD1      -49.2710   12.5130    5.7110 O.co2 133  ASP133     -0.2456
     76  OD2      -48.6090   14.3410    6.7470 O.co2 133  ASP133     -0.2456
     77  N        -49.8400   17.3280    7.2220 N.3   135  TRP135     -0.1227
     78  CA       -48.8190   17.9420    6.3770 C.3   135  TRP135      0.1737
     79  C        -49.0360   17.6440    4.8930 C.2   135  TRP135      0.2596
     80  O        -48.8990   18.5290    4.0540 O.2   135  TRP135     -0.2718
     81  CB       -47.4020   17.5220    6.8080 C.3   135  TRP135      0.0564
     82  CG       -46.3040   18.0460    5.8970 C.ar  135  TRP135      0.0003
     83  CD1      -45.6150   19.2280    6.0280 C.ar  135  TRP135      0.0946
     84  CD2      -45.7740   17.4040    4.7220 C.ar  135  TRP135      0.0152
     85  NE1      -44.6910   19.3490    5.0160 N.ar  135  TRP135     -0.2442
     86  CE2      -44.7760   18.2530    4.1940 C.ar  135  TRP135      0.0810
     87  CE3      -46.0460   16.1920    4.0700 C.ar  135  TRP135      0.0012
     88  CZ2      -44.0440   17.9270    3.0450 C.ar  135  TRP135      0.0191
     89  CZ3      -45.3220   15.8660    2.9340 C.ar  135  TRP135      0.0001
     90  CH2      -44.3360   16.7340    2.4280 C.ar  135  TRP135      0.0015
     91  N        -49.3590   16.3900    4.5570 N.am  136  SER136     -0.1952
     92  CA       -49.5730   16.0370    3.1520 C.3   136  SER136      0.1924
     93  C        -50.6310   16.9460    2.5240 C.2   136  SER136      0.2314
     94  O        -50.4710   17.4270    1.4090 O.2   136  SER136     -0.2863
     95  CB       -49.9930   14.5670    3.0060 C.3   136  SER136      0.2116
     96  OG       -48.9150   13.6950    3.3580 O.3   136  SER136     -0.2180
     97  N        -46.4650   21.7820    8.6930 N.3   207  ILE207     -0.1245
     98  CA       -46.1580   20.7840    9.7100 C.3   207  ILE207      0.1561
     99  C        -47.1510   20.9780   10.8540 C.2   207  ILE207      0.2260
    100  O        -46.9680   21.8340   11.7190 O.2   207  ILE207     -0.2867
    101  CB       -44.6970   20.9090   10.2100 C.3   207  ILE207      0.0252
    102  CG1      -43.7110   20.7370    9.0500 C.3   207  ILE207      0.0019
    103  CG2      -44.4310   19.8850   11.3090 C.3   207  ILE207      0.0019
    104  CD1      -42.2560   21.1340    9.3910 C.3   207  ILE207      0.0001
    105  N        -49.9860   19.0920   13.6460 N.3   209  GLU209     -0.1245
    106  CA       -50.5630   17.9560   14.3430 C.3   209  GLU209      0.1567
    107  C        -52.0490   17.8660   14.0140 C.2   209  GLU209      0.2260
    108  O        -52.7480   18.8770   13.9890 O.2   209  GLU209     -0.2867
    109  CB       -50.3610   18.1090   15.8520 C.3   209  GLU209      0.0388
    110  CG       -50.9220   16.9830   16.6960 C.3   209  GLU209      0.1160
    111  CD       -50.0530   15.7420   16.6990 C.2   209  GLU209      0.3649
    112  OE1      -49.0180   15.7220   16.0010 O.co2 209  GLU209     -0.2457
    113  OE2      -50.4040   14.7760   17.4100 O.co2 209  GLU209     -0.2457
    114  N        -59.4650    9.8940   10.8300 N.3   218  PHE218     -0.1241
    115  CA       -58.3330    9.1480   10.2920 C.3   218  PHE218      0.1605
    116  C        -58.3780    7.6810   10.7450 C.2   218  PHE218      0.2264
    117  O        -58.2540    6.7590    9.9290 O.2   218  PHE218     -0.2867
    118  CB       -57.0250    9.8180   10.7300 C.3   218  PHE218      0.0534
    119  CG       -55.7870    9.1610   10.1950 C.ar  218  PHE218     -0.0203
    120  CD1      -55.1000    9.7110    9.1240 C.ar  218  PHE218     -0.0042
    121  CD2      -55.2900    8.0060   10.7800 C.ar  218  PHE218     -0.0042
    122  CE1      -53.9500    9.1150    8.6370 C.ar  218  PHE218     -0.0003
    123  CE2      -54.1390    7.4030   10.2960 C.ar  218  PHE218     -0.0003
    124  CZ       -53.4650    7.9600    9.2200 C.ar  218  PHE218     -0.0000
@<TRIPOS>BOND
     1    51    52    1
     2    53    52    1
     3    53    54    2
     4    60    61    1
     5    52    55    1
     6    62    61    1
     7    62    63    2
     8    61    64    1
     9    55    56    1
    10    56    57    1
    11    94    93    2
    12    64    65    1
    13    58    57    2
    14    57    59   am
    15    90    89   ar
    16    90    88   ar
    17    93    92    1
    18    65    66    1
    19    89    87   ar
    20    32    33   ar
    21    32    30   ar
    22    95    92    1
    23    95    96    1
    24    88    86   ar
    25    92    91    1
    26    33    31   ar
    27    14    13    1
    28    66    68   am
    29    66    67    2
    30    30    29   ar
    31    80    79    2
    32    87    84   ar
    33    86    84   ar
    34    86    85   ar
    35    15    13    1
    36    31    29   ar
    37    91    79   am
    38    84    82   ar
    39    13    12    1
    40    79    78    1
    41    29    28    1
    42    85    83   ar
    43    75    74   ar
    44    43    44    1
    45    82    83   ar
    46    82    81    1
    47    12     9    1
    48    72    71    2
    49    25    28    1
    50    25    24    1
    51    25    26    1
    52    78    81    1
    53    78    77    1
    54    44    45    1
    55    44    47    1
    56    69    70    1
    57     9    10    1
    58     9     8    1
    59    11    10    2
    60    27    26    2
    61    74    76   ar
    62    74    73    1
    63    26    34   am
    64    46    45    2
    65    71    70    1
    66    10    16   am
    67    47    48    1
    68    70    73    1
    69    49    48   ar
    70    48    50   ar
    71    34    35    1
    72    16    17    1
    73     1     2    1
    74     1     7    1
    75   122   120   ar
    76   122   124   ar
    77    97    98    1
    78    36    37    2
    79    36    35    1
    80     2     5    1
    81     2     3    1
    82     7     6    1
    83   102   104    1
    84   102   101    1
    85    17    18    1
    86    17    20    1
    87   120   119   ar
    88     6     5    1
    89    19    18    2
    90    35    38    1
    91   124   123   ar
    92     4     3    2
    93    98   101    1
    94    98    99    1
    95   117   116    2
    96    21    20    1
    97    21    23    1
    98   119   118    1
    99   119   121   ar
   100   101   103    1
   101   115   118    1
   102   115   116    1
   103   115   114    1
   104   123   121   ar
   105    20    22    1
   106    38    39    1
   107    99   100    2
   108    39    40    1
   109    40    41    1
   110    41    42    1
   111   105   106    1
   112   108   107    2
   113   107   106    1
   114   106   109    1
   115   109   110    1
   116   112   111   ar
   117   110   111    1
   118   111   113   ar
