@<TRIPOS>MOLECULE
tmp/5duhB01.pdb
 214 202 0 0 0
SMALL
GASTEIGER

@<TRIPOS>ATOM
      1  N         -2.0050    8.1050  -13.2420 N.3    37  MET37      -0.1245
      2  CA        -1.9890    6.7840  -12.6250 C.3    37  MET37       0.1570
      3  C         -1.4810    5.7240  -13.5940 C.2    37  MET37       0.2261
      4  O         -0.7850    4.7920  -13.1970 O.2    37  MET37      -0.2867
      5  CB        -3.3780    6.4030  -12.1060 C.3    37  MET37       0.0387
      6  CG        -3.6410    6.8300  -10.6700 C.3    37  MET37       0.0595
      7  SD        -2.5380    6.0070   -9.5020 S.3    37  MET37      -0.1393
      8  CE        -2.9690    4.2920   -9.7930 C.3    37  MET37       0.0692
      9  N          2.3680    5.9720  -13.8780 N.3    40  LEU40      -0.1231
     10  CA         3.0100    5.4950  -12.6620 C.3    40  LEU40       0.1693
     11  C          2.9180    3.9790  -12.5400 C.2    40  LEU40       0.2592
     12  O          3.8740    3.3230  -12.1290 O.2    40  LEU40      -0.2718
     13  CB         2.3810    6.1630  -11.4390 C.3    40  LEU40       0.0284
     14  CG         2.5480    7.6820  -11.3790 C.3    40  LEU40       0.0019
     15  CD1        1.7330    8.2710  -10.2400 C.3    40  LEU40       0.0001
     16  CD2        4.0180    8.0460  -11.2420 C.3    40  LEU40       0.0001
     17  N          1.7610    3.4320  -12.8950 N.am   41  THR41      -0.1953
     18  CA         1.5470    1.9900  -12.8650 C.3    41  THR41       0.1897
     19  C          2.4520    1.2910  -13.8820 C.2    41  THR41       0.2313
     20  O          3.1820    0.3590  -13.5390 O.2    41  THR41      -0.2863
     21  CB         0.0730    1.6420  -13.1630 C.3    41  THR41       0.1794
     22  OG1       -0.7780    2.3350  -12.2420 O.3    41  THR41      -0.2208
     23  CG2       -0.1620    0.1440  -13.0390 C.3    41  THR41       0.0378
     24  N          5.1310    2.3810  -15.1680 N.3    43  LEU43      -0.1231
     25  CA         6.4880    2.5520  -14.6690 C.3    43  LEU43       0.1693
     26  C          6.8200    1.5490  -13.5690 C.2    43  LEU43       0.2591
     27  O          7.8170    0.8260  -13.6520 O.2    43  LEU43      -0.2718
     28  CB         6.6740    3.9730  -14.1360 C.3    43  LEU43       0.0284
     29  CG         8.0420    4.2970  -13.5420 C.3    43  LEU43       0.0019
     30  CD1        9.1380    4.0990  -14.5850 C.3    43  LEU43       0.0001
     31  CD2        8.0560    5.7180  -13.0070 C.3    43  LEU43       0.0001
     32  N          5.9830    1.5160  -12.5360 N.am   44  ALA44      -0.1980
     33  CA         6.1990    0.6330  -11.3980 C.3    44  ALA44       0.1597
     34  C          6.2900   -0.8220  -11.8310 C.2    44  ALA44       0.2287
     35  O          7.1120   -1.5810  -11.3170 O.2    44  ALA44      -0.2864
     36  CB         5.0850    0.8100  -10.3700 C.3    44  ALA44       0.0319
     37  N          9.6150   -1.4290  -13.2490 N.3    47  GLU47      -0.1245
     38  CA        10.5710   -1.4060  -12.1500 C.3    47  GLU47       0.1567
     39  C         10.5630   -2.7290  -11.3900 C.2    47  GLU47       0.2260
     40  O         11.6050   -3.2050  -10.9450 O.2    47  GLU47      -0.2867
     41  CB        10.2690   -0.2630  -11.1860 C.3    47  GLU47       0.0388
     42  CG        10.7120    1.1030  -11.6660 C.3    47  GLU47       0.1160
     43  CD        10.4500    2.1690  -10.6230 C.2    47  GLU47       0.3649
     44  OE1        9.2700    2.5160  -10.4200 O.co2  47  GLU47      -0.2457
     45  OE2       11.4190    2.6400   -9.9920 O.co2  47  GLU47      -0.2457
     46  N          8.1740   -5.1780   -1.7520 N.3    77  TRP77      -0.1227
     47  CA         8.3000   -4.5490   -3.0710 C.3    77  TRP77       0.1737
     48  C          7.9860   -3.0460   -3.1100 C.2    77  TRP77       0.2595
     49  O          8.7130   -2.2810   -3.7420 O.2    77  TRP77      -0.2718
     50  CB         7.4810   -5.2970   -4.1280 C.3    77  TRP77       0.0564
     51  CG         6.0060   -5.1920   -3.9350 C.ar   77  TRP77       0.0003
     52  CD1        5.2240   -6.0050   -3.1770 C.ar   77  TRP77       0.0946
     53  CD2        5.1270   -4.2260   -4.5260 C.ar   77  TRP77       0.0152
     54  NE1        3.9130   -5.6060   -3.2480 N.ar   77  TRP77      -0.2442
     55  CE2        3.8250   -4.5160   -4.0730 C.ar   77  TRP77       0.0810
     56  CE3        5.3150   -3.1440   -5.3920 C.ar   77  TRP77       0.0012
     57  CZ2        2.7160   -3.7620   -4.4540 C.ar   77  TRP77       0.0191
     58  CZ3        4.2130   -2.3970   -5.7680 C.ar   77  TRP77       0.0001
     59  CH2        2.9310   -2.7100   -5.3030 C.ar   77  TRP77       0.0015
     60  N          6.9110   -2.6220   -2.4510 N.am   78  LEU78      -0.1980
     61  CA         6.5530   -1.2070   -2.4710 C.3    78  LEU78       0.1596
     62  C          7.5260   -0.3760   -1.6340 C.2    78  LEU78       0.2287
     63  O          7.8180    0.7710   -1.9730 O.2    78  LEU78      -0.2864
     64  CB         5.1070   -0.9740   -2.0230 C.3    78  LEU78       0.0297
     65  CG         4.6200    0.4740   -2.1860 C.3    78  LEU78       0.0022
     66  CD1        4.8630    0.9740   -3.6140 C.3    78  LEU78       0.0001
     67  CD2        3.1530    0.6340   -1.8000 C.3    78  LEU78       0.0001
     68  N         10.4920    0.0950   -3.9540 N.3    81  LEU81      -0.1231
     69  CA        10.1340    1.1280   -4.9220 C.3    81  LEU81       0.1693
     70  C         10.1950    2.5220   -4.3010 C.2    81  LEU81       0.2591
     71  O         10.7510    3.4480   -4.8910 O.2    81  LEU81      -0.2718
     72  CB         8.7360    0.8770   -5.4970 C.3    81  LEU81       0.0284
     73  CG         8.6240   -0.2190   -6.5560 C.3    81  LEU81       0.0019
     74  CD1        7.2080   -0.3170   -7.0950 C.3    81  LEU81       0.0001
     75  CD2        9.6060    0.0480   -7.6840 C.3    81  LEU81       0.0001
     76  N          9.6260    2.6630   -3.1060 N.am   82  MET82      -0.1979
     77  CA         9.5670    3.9630   -2.4480 C.3    82  MET82       0.1605
     78  C         10.9430    4.5070   -2.0680 C.2    82  MET82       0.2287
     79  O         11.2450    5.6680   -2.3330 O.2    82  MET82      -0.2864
     80  CB         8.6450    3.9200   -1.2250 C.3    82  MET82       0.0413
     81  CG         7.1670    3.9830   -1.5740 C.3    82  MET82       0.0598
     82  SD         6.1020    3.8070   -0.1340 S.3    82  MET82      -0.1393
     83  CE         4.5430    4.3700   -0.8120 C.3    82  MET82       0.0692
     84  N         12.5710    5.7190   -5.0360 N.3    85  LEU85      -0.1245
     85  CA        12.0250    7.0150   -5.4280 C.3    85  LEU85       0.1561
     86  C         12.6160    8.1720   -4.6210 C.2    85  LEU85       0.2260
     87  O         13.0150    9.1880   -5.1890 O.2    85  LEU85      -0.2867
     88  CB        10.5030    7.0130   -5.2980 C.3    85  LEU85       0.0270
     89  CG         9.8040    8.3340   -5.6210 C.3    85  LEU85       0.0019
     90  CD1       10.0460    8.7290   -7.0680 C.3    85  LEU85       0.0001
     91  CD2        8.3110    8.2370   -5.3280 C.3    85  LEU85       0.0001
     92  N         16.4810    8.9370   -5.4800 N.3    88  ARG88      -0.1245
     93  CA        16.7360    9.6840   -6.7080 C.3    88  ARG88       0.1563
     94  C         16.0960   11.0770   -6.6950 C.2    88  ARG88       0.2260
     95  O         16.4460   11.9330   -7.5050 O.2    88  ARG88      -0.2867
     96  CB        16.3380    8.8800   -7.9540 C.3    88  ARG88       0.0307
     97  CG        14.8850    8.4460   -8.0330 C.3    88  ARG88       0.0489
     98  CD        14.6680    7.6040   -9.2870 C.3    88  ARG88       0.2205
     99  NE        13.2670    7.2530   -9.4990 N.pl3  88  ARG88      -0.0865
    100  CZ        12.7280    6.0900   -9.1470 C.cat  88  ARG88       0.5346
    101  NH1       13.4740    5.1600   -8.5630 N.pl3  88  ARG88       0.1354
    102  NH2       11.4440    5.8570   -9.3780 N.pl3  88  ARG88       0.1354
    103  N         10.1460   10.3450  -10.3090 N.3    98  PHE98      -0.1241
    104  CA         9.7270    8.9960  -10.6690 C.3    98  PHE98       0.1605
    105  C         10.5930    8.4850  -11.8170 C.2    98  PHE98       0.2264
    106  O         11.0390    7.3380  -11.8130 O.2    98  PHE98      -0.2867
    107  CB         8.2440    8.9670  -11.0460 C.3    98  PHE98       0.0534
    108  CG         7.3160    9.2330   -9.8870 C.ar   98  PHE98      -0.0203
    109  CD1        6.8570    8.1900   -9.0970 C.ar   98  PHE98      -0.0042
    110  CD2        6.9040   10.5220   -9.5900 C.ar   98  PHE98      -0.0042
    111  CE1        6.0010    8.4270   -8.0300 C.ar   98  PHE98      -0.0003
    112  CE2        6.0480   10.7690   -8.5260 C.ar   98  PHE98      -0.0003
    113  CZ         5.5980    9.7200   -7.7440 C.ar   98  PHE98      -0.0000
    114  N         -4.1910   12.8810   -8.5250 N.3   112  VAL112     -0.1231
    115  CA        -4.7530   11.5950   -8.1320 C.3   112  VAL112      0.1692
    116  C         -5.2670   11.6780   -6.7010 C.2   112  VAL112      0.2592
    117  O         -4.5460   12.0970   -5.7960 O.2   112  VAL112     -0.2718
    118  CB        -3.7210   10.4600   -8.2450 C.3   112  VAL112      0.0266
    119  CG1       -4.3100    9.1560   -7.7260 C.3   112  VAL112      0.0020
    120  CG2       -3.2590   10.3060   -9.6870 C.3   112  VAL112      0.0020
    121  N         -6.5190   11.2820   -6.5020 N.am  113  GLU113     -0.1966
    122  CA        -7.1590   11.4130   -5.2000 C.3   113  GLU113      0.1733
    123  C         -6.4640   10.5910   -4.1200 C.2   113  GLU113      0.2617
    124  O         -6.1850    9.4060   -4.3060 O.2   113  GLU113     -0.2715
    125  CB        -8.6370   11.0300   -5.2850 C.3   113  GLU113      0.0429
    126  CG        -9.3790   11.1560   -3.9640 C.3   113  GLU113      0.1163
    127  CD       -10.8790   11.0140   -4.1220 C.2   113  GLU113      0.3649
    128  OE1      -11.3570   10.9900   -5.2760 O.co2 113  GLU113     -0.2457
    129  OE2      -11.5790   10.9280   -3.0920 O.co2 113  GLU113     -0.2457
    130  N         -6.1880   11.2390   -2.9930 N.am  114  GLY114     -0.1940
    131  CA        -5.5810   10.5800   -1.8520 C.3   114  GLY114      0.2014
    132  C         -4.0840   10.3780   -1.9830 C.2   114  GLY114      0.2638
    133  O         -3.4420    9.8670   -1.0670 O.2   114  GLY114     -0.2714
    134  N         -3.5190   10.7870   -3.1150 N.am  115  MET115     -0.1976
    135  CA        -2.1070   10.5260   -3.3800 C.3   115  MET115      0.1605
    136  C         -1.1730   11.5510   -2.7410 C.2   115  MET115      0.2287
    137  O         -0.0120   11.2500   -2.4680 O.2   115  MET115     -0.2864
    138  CB        -1.8380   10.4230   -4.8870 C.3   115  MET115      0.0413
    139  CG        -0.6080    9.5850   -5.2270 C.3   115  MET115      0.0598
    140  SD        -0.2680    9.4320   -6.9920 S.3   115  MET115     -0.1393
    141  CE         0.3960   11.0560   -7.3510 C.3   115  MET115      0.0692
    142  N          0.5530   10.6930    0.6880 N.3   118  ILE118     -0.1231
    143  CA         1.6960    9.8090    0.5040 C.3   118  ILE118      0.1692
    144  C          2.8120   10.6040   -0.1520 C.2   118  ILE118      0.2592
    145  O          3.9750   10.5050    0.2300 O.2   118  ILE118     -0.2718
    146  CB         1.3530    8.6100   -0.3910 C.3   118  ILE118      0.0266
    147  CG1        0.0500    7.9560    0.0720 C.3   118  ILE118      0.0019
    148  CG2        2.5060    7.6060   -0.4020 C.3   118  ILE118      0.0020
    149  CD1        0.0950    7.4600    1.4980 C.3   118  ILE118      0.0001
    150  N          2.4360   11.3990   -1.1440 N.am  119  PHE119     -0.1976
    151  CA         3.3670   12.2850   -1.8240 C.3   119  PHE119      0.1639
    152  C          4.1760   13.0730   -0.7970 C.2   119  PHE119      0.2290
    153  O          5.4060   13.0690   -0.8260 O.2   119  PHE119     -0.2864
    154  CB         2.5910   13.2410   -2.7280 C.3   119  PHE119      0.0560
    155  CG         3.3210   13.6250   -3.9780 C.ar  119  PHE119     -0.0200
    156  CD1        3.0930   12.9470   -5.1630 C.ar  119  PHE119     -0.0042
    157  CD2        4.2280   14.6690   -3.9730 C.ar  119  PHE119     -0.0042
    158  CE1        3.7580   13.3010   -6.3190 C.ar  119  PHE119     -0.0003
    159  CE2        4.8980   15.0280   -5.1250 C.ar  119  PHE119     -0.0003
    160  CZ         4.6620   14.3430   -6.3000 C.ar  119  PHE119     -0.0000
    161  N          6.7080   10.9930    1.2730 N.3   122  LEU122     -0.1245
    162  CA         7.8820   10.6520    0.4770 C.3   122  LEU122      0.1561
    163  C          8.8180   11.8520    0.3590 C.2   122  LEU122      0.2260
    164  O         10.0360   11.7060    0.4550 O.2   122  LEU122     -0.2867
    165  CB         7.4660   10.1610   -0.9140 C.3   122  LEU122      0.0270
    166  CG         6.7500    8.8080   -0.9670 C.3   122  LEU122      0.0019
    167  CD1        5.8670    8.6900   -2.2020 C.3   122  LEU122      0.0001
    168  CD2        7.7520    7.6620   -0.9060 C.3   122  LEU122      0.0001
    169  N          0.1410    3.2980    1.2670 N.3   205  GLY205     -0.1225
    170  CA         0.0040    3.2830   -0.1770 C.3   205  GLY205      0.1811
    171  C         -0.6470    2.0110   -0.6740 C.2   205  GLY205      0.2280
    172  O         -1.4750    2.0410   -1.5840 O.2   205  GLY205     -0.2866
    173  N         -4.3000    2.3210   -0.4590 N.3   208  HIS208     -0.1226
    174  CA        -4.8870    3.0620   -1.5700 C.3   208  HIS208      0.1752
    175  C         -4.8770    2.2470   -2.8610 C.2   208  HIS208      0.2595
    176  O         -5.8860    2.1660   -3.5590 O.2   208  HIS208     -0.2718
    177  CB        -4.1590    4.3910   -1.7860 C.3   208  HIS208      0.0759
    178  CG        -4.4510    5.4190   -0.7380 C.ar  208  HIS208      0.0818
    179  ND1       -5.6200    6.1510   -0.7190 N.ar  208  HIS208     -0.2268
    180  CD2       -3.7250    5.8420    0.3240 C.ar  208  HIS208      0.1154
    181  CE1       -5.6020    6.9780    0.3110 C.ar  208  HIS208      0.1986
    182  NE2       -4.4640    6.8100    0.9610 N.ar  208  HIS208     -0.2212
    183  N         -3.7350    1.6410   -3.1730 N.am  209  LEU209     -0.1980
    184  CA        -3.5840    0.9030   -4.4230 C.3   209  LEU209      0.1596
    185  C         -4.6140   -0.2090   -4.5760 C.2   209  LEU209      0.2287
    186  O         -5.0680   -0.4870   -5.6820 O.2   209  LEU209     -0.2864
    187  CB        -2.1660    0.3440   -4.5620 C.3   209  LEU209      0.0297
    188  CG        -1.1000    1.3990   -4.8520 C.3   209  LEU209      0.0022
    189  CD1        0.2930    0.7870   -4.8560 C.3   209  LEU209      0.0001
    190  CD2       -1.3960    2.0900   -6.1750 C.3   209  LEU209      0.0001
    191  N         -7.9390    1.0640   -5.5950 N.3   212  MET212     -0.1245
    192  CA        -7.9860    1.3870   -7.0160 C.3   212  MET212      0.1570
    193  C         -8.2050    0.1270   -7.8450 C.2   212  MET212      0.2261
    194  O         -8.9170    0.1420   -8.8490 O.2   212  MET212     -0.2867
    195  CB        -6.6840    2.0660   -7.4440 C.3   212  MET212      0.0387
    196  CG        -6.1470    3.0950   -6.4520 C.3   212  MET212      0.0595
    197  SD        -7.0870    4.6360   -6.3870 S.3   212  MET212     -0.1393
    198  CE        -8.4620    4.1870   -5.3310 C.3   212  MET212      0.0692
    199  N         -4.1140   -2.3450  -13.7600 N.3   220  LEU220     -0.1245
    200  CA        -2.8660   -2.8050  -13.1650 C.3   220  LEU220      0.1561
    201  C         -2.4340   -4.0960  -13.8510 C.2   220  LEU220      0.2260
    202  O         -3.2710   -4.9360  -14.1840 O.2   220  LEU220     -0.2867
    203  CB        -3.0490   -3.0530  -11.6660 C.3   220  LEU220      0.0270
    204  CG        -3.4210   -1.8610  -10.7790 C.3   220  LEU220      0.0019
    205  CD1       -4.0210   -2.3380   -9.4660 C.3   220  LEU220      0.0001
    206  CD2       -2.2170   -0.9710  -10.5250 C.3   220  LEU220      0.0001
    207  N          1.5650   -6.9600  -10.9780 N.3   224  LEU224     -0.1245
    208  CA         1.2210   -5.9630   -9.9740 C.3   224  LEU224      0.1561
    209  C          0.0530   -6.4600   -9.1250 C.2   224  LEU224      0.2260
    210  O          0.0770   -6.3660   -7.8970 O.2   224  LEU224     -0.2867
    211  CB         0.8730   -4.6380  -10.6570 C.3   224  LEU224      0.0270
    212  CG         1.1090   -3.3320   -9.8990 C.3   224  LEU224      0.0019
    213  CD1        2.2350   -3.4720   -8.8850 C.3   224  LEU224      0.0001
    214  CD2        1.4030   -2.2040  -10.8810 C.3   224  LEU224      0.0001
@<TRIPOS>BOND
     1    24    25    1
     2    25    28    1
     3    25    26    1
     4    30    29    1
     5   202   201    2
     6    28    29    1
     7    19    20    2
     8    19    18    1
     9     9    10    1
    10   201   200    1
    11   199   200    1
    12    27    26    2
    13     3     4    2
    14     3     2    1
    15    26    32   am
    16    29    31    1
    17    37    38    1
    18     1     2    1
    19   200   203    1
    20    21    23    1
    21    21    18    1
    22    21    22    1
    23    17    18    1
    24    17    11   am
    25    10    11    1
    26    10    13    1
    27     2     5    1
    28    11    12    2
    29    32    33    1
    30    38    39    1
    31    38    41    1
    32     5     6    1
    33    34    33    1
    34    34    35    2
    35   105   106    2
    36   105   104    1
    37   203   204    1
    38    42    41    1
    39    42    43    1
    40    13    14    1
    41    33    36    1
    42    39    40    2
    43    14    16    1
    44    14    15    1
    45   107   104    1
    46   107   108    1
    47   207   208    1
    48   214   212    1
    49   204   206    1
    50   204   205    1
    51     6     7    1
    52   104   103    1
    53   211   208    1
    54   211   212    1
    55    43    44   ar
    56    43    45   ar
    57   208   209    1
    58   212   213    1
    59   108   110   ar
    60   108   109   ar
    61     8     7    1
    62   120   118    1
    63   110   112   ar
    64    99    98    1
    65    99   100    2
    66   102   100    1
    67    98    97    1
    68   100   101    1
    69   209   210    2
    70   109   111   ar
    71   194   193    2
    72   112   113   ar
    73   114   115    1
    74   118   115    1
    75   118   119    1
    76   115   116    1
    77    97    96    1
    78   111   113   ar
    79    96    93    1
    80   193   192    1
    81    75    73    1
    82    95    94    2
    83   195   192    1
    84   195   196    1
    85   141   140    1
    86    74    73    1
    87    90    89    1
    88   192   191    1
    89   140   139    1
    90    93    94    1
    91    93    92    1
    92   116   121   am
    93   116   117    2
    94    73    72    1
    95   121   122    1
    96   196   197    1
    97   197   198    1
    98   158   160   ar
    99   158   156   ar
   100   160   159   ar
   101   190   188    1
   102    58    56   ar
   103    58    59   ar
   104   186   185    2
   105    89    91    1
   106    89    88    1
   107    72    69    1
   108    85    88    1
   109    85    84    1
   110    85    86    1
   111    56    53   ar
   112    59    57   ar
   113   125   122    1
   114   125   126    1
   115   128   127   ar
   116   139   138    1
   117   122   123    1
   118    87    86    2
   119   156   155   ar
   120   159   157   ar
   121    69    70    1
   122    69    68    1
   123    71    70    2
   124   138   135    1
   125   189   188    1
   126   188   187    1
   127   185   184    1
   128   187   184    1
   129    53    55   ar
   130    53    51   ar
   131    57    55   ar
   132   184   183    1
   133   124   123    2
   134    70    76   am
   135    50    51    1
   136    50    47    1
   137   127   126    1
   138   127   129   ar
   139   123   130   am
   140    55    54   ar
   141   155   157   ar
   142   155   154    1
   143    51    52   ar
   144    49    48    2
   145    66    65    1
   146   176   175    2
   147   135   134    1
   148   135   136    1
   149    54    52   ar
   150   183   175   am
   151   134   132   am
   152    48    47    1
   153    48    60   am
   154    76    77    1
   155    47    46    1
   156   130   131    1
   157   175   174    1
   158   136   137    2
   159   154   151    1
   160    61    60    1
   161    61    64    1
   162    61    62    1
   163    77    78    1
   164    77    80    1
   165    79    78    2
   166   167   166    1
   167    65    64    1
   168    65    67    1
   169   132   131    1
   170   132   133    2
   171    63    62    2
   172   151   150    1
   173   151   152    1
   174   177   174    1
   175   177   178    1
   176   172   171    2
   177    81    80    1
   178    81    82    1
   179   174   173    1
   180   150   144   am
   181   166   165    1
   182   166   168    1
   183   165   162    1
   184   153   152    2
   185    83    82    1
   186   178   179   ar
   187   178   180   ar
   188   179   181   ar
   189   171   170    1
   190   148   146    1
   191   146   147    1
   192   146   143    1
   193   170   169    1
   194   144   145    2
   195   144   143    1
   196   147   149    1
   197   181   182   ar
   198   180   182   ar
   199   163   164    2
   200   163   162    1
   201   162   161    1
   202   143   142    1
