@<TRIPOS>MOLECULE
tmp/5dulB00.pdb
 166 156 0 0 0
SMALL
GASTEIGER

@<TRIPOS>ATOM
      1  N         49.3560   16.3250   19.6300 N.3     8  GLY8       -0.1225
      2  CA        49.1240   14.8830   19.6470 C.3     8  GLY8        0.1811
      3  C         49.5370   14.2070   18.3620 C.2     8  GLY8        0.2280
      4  O         48.7280   13.5750   17.6990 O.2     8  GLY8       -0.2866
      5  N         51.9710   11.8630   17.7690 N.3    10  THR10      -0.1203
      6  CA        52.5020   10.5010   17.7880 C.3    10  THR10       0.1994
      7  C         51.4200    9.4110   17.7390 C.2    10  THR10       0.2618
      8  O         51.7370    8.2150   17.4680 O.2    10  THR10      -0.2717
      9  CB        53.4200   10.2760   18.9870 C.3    10  THR10       0.1784
     10  OG1       52.7480   10.6710   20.1820 O.3    10  THR10      -0.2211
     11  CG2       54.6520   11.0960   18.8490 C.3    10  THR10       0.0376
     12  N         50.1660    9.8070   17.9790 N.am   11  GLY11      -0.1942
     13  CA        49.0630    8.8570   17.9840 C.3    11  GLY11       0.2014
     14  C         48.3910    8.6460   16.6390 C.2    11  GLY11       0.2640
     15  O         48.8970    8.9810   15.5590 O.2    11  GLY11      -0.2714
     16  N         47.1950    8.1070   16.7070 N.am   12  SER12      -0.1935
     17  CA        46.5250    7.6650   15.5040 C.3    12  SER12       0.2055
     18  C         46.1560    8.8090   14.5720 C.2    12  SER12       0.2643
     19  O         46.5240    8.7750   13.4000 O.2    12  SER12      -0.2714
     20  CB        45.3330    6.7890   15.8830 C.3    12  SER12       0.2130
     21  OG        44.7610    6.2830   14.7100 O.3    12  SER12      -0.2179
     22  N         45.4700    9.8400   15.0670 N.am   13  ILE13      -0.1963
     23  CA        45.0970   10.9900   14.2140 C.3    13  ILE13       0.1727
     24  C         46.2910   11.8130   13.8480 C.2    13  ILE13       0.2616
     25  O         46.3970   12.2610   12.7300 O.2    13  ILE13      -0.2715
     26  CB        44.0910   11.9030   14.9080 C.3    13  ILE13       0.0290
     27  CG1       42.6980   11.3170   14.7180 C.3    13  ILE13       0.0022
     28  CG2       44.1270   13.3270   14.3340 C.3    13  ILE13       0.0023
     29  CD1       41.7460   11.8610   15.7380 C.3    13  ILE13       0.0001
     30  N         47.1620   12.0390   14.8230 N.am   14  GLY14      -0.1955
     31  CA        48.4870   12.6180   14.5900 C.3    14  GLY14       0.1869
     32  C         49.1620   12.0820   13.3510 C.2    14  GLY14       0.2309
     33  O         49.6150   12.8560   12.4940 O.2    14  GLY14      -0.2863
     34  N         53.8370   18.3490   18.8440 N.3    34  VAL34      -0.1231
     35  CA        53.6280   18.1000   20.2600 C.3    34  VAL34       0.1692
     36  C         53.0480   16.6910   20.4860 C.2    34  VAL34       0.2592
     37  O         52.1490   16.2300   19.7300 O.2    34  VAL34      -0.2718
     38  CB        52.6370   19.0910   20.8350 C.3    34  VAL34       0.0266
     39  CG1       52.3600   18.7640   22.2840 C.3    34  VAL34       0.0020
     40  CG2       53.1600   20.5150   20.6650 C.3    34  VAL34       0.0020
     41  N         53.5860   16.0170   21.5180 N.am   35  ALA35      -0.1966
     42  CA        53.1070   14.7080   21.9580 C.3    35  ALA35       0.1728
     43  C         53.3870   14.4370   23.4210 C.2    35  ALA35       0.2617
     44  O         53.9470   15.2890   24.1170 O.2    35  ALA35      -0.2715
     45  CB        53.7060   13.6470   21.0980 C.3    35  ALA35       0.0334
     46  N         52.9430   13.2820   23.9160 N.am   36  GLY36      -0.1940
     47  CA        53.0840   12.9560   25.3340 C.3    36  GLY36       0.2014
     48  C         54.4480   12.3920   25.7000 C.2    36  GLY36       0.2639
     49  O         55.3980   13.1320   25.9850 O.2    36  GLY36      -0.2714
     50  N         54.5390   11.0650   25.6760 N.am   37  ARG37      -0.1963
     51  CA        55.7380   10.3450   26.1420 C.3    37  ARG37       0.1729
     52  C         56.3210    9.3330   25.1410 C.2    37  ARG37       0.2616
     53  O         57.2480    8.5900   25.4790 O.2    37  ARG37      -0.2715
     54  CB        55.4600    9.6560   27.4790 C.3    37  ARG37       0.0348
     55  CG        55.0490   10.6240   28.5800 C.3    37  ARG37       0.0492
     56  CD        55.0610    9.9770   29.9550 C.3    37  ARG37       0.2205
     57  NE        53.8520   10.2640   30.7470 N.pl3  37  ARG37      -0.0865
     58  CZ        52.7440    9.5090   30.7770 C.cat  37  ARG37       0.5346
     59  NH1       52.6280    8.4030   30.0430 N.pl3  37  ARG37       0.1354
     60  NH2       51.7240    9.8700   31.5460 N.pl3  37  ARG37       0.1354
     61  N         55.8400    9.3350   23.9090 N.am   38  ASN38      -0.1972
     62  CA        56.3990    8.4410   22.9080 C.3    38  ASN38       0.1688
     63  C         57.5490    9.1000   22.1540 C.2    38  ASN38       0.2292
     64  O         57.4570    9.4160   20.9590 O.2    38  ASN38      -0.2864
     65  CB        55.3170    7.9960   21.9420 C.3    38  ASN38       0.1181
     66  CG        55.7720    6.8910   21.0310 C.2    38  ASN38       0.2629
     67  OD1       56.9680    6.5620   20.9700 O.2    38  ASN38      -0.2716
     68  ND2       54.8240    6.3170   20.2920 N.am   38  ASN38      -0.0877
     69  N         55.0940   16.0640   26.9910 N.3    57  SER57      -0.1217
     70  CA        54.2960   16.5440   28.1360 C.3    57  SER57       0.1889
     71  C         55.1660   16.8190   29.3680 C.2    57  SER57       0.2288
     72  O         54.9010   17.7550   30.1080 O.2    57  SER57      -0.2866
     73  CB        53.1570   15.5760   28.4700 C.3    57  SER57       0.2089
     74  OG        53.6750   14.3800   29.0270 O.3    57  SER57      -0.2183
     75  N         44.6230   17.2280   18.6530 N.3   100  ALA100     -0.1231
     76  CA        44.3790   15.8000   18.6620 C.3   100  ALA100      0.1694
     77  C         45.0210   15.1410   19.8520 C.2   100  ALA100      0.2592
     78  O         45.3350   13.9610   19.7850 O.2   100  ALA100     -0.2718
     79  CB        44.9040   15.1680   17.3860 C.3   100  ALA100      0.0304
     80  N         45.2040   15.9080   20.9300 N.am  101  ILE101     -0.1966
     81  CA        45.6200   15.3860   22.2290 C.3   101  ILE101      0.1727
     82  C         44.3660   14.9080   22.9710 C.2   101  ILE101      0.2616
     83  O         43.4590   15.6900   23.2200 O.2   101  ILE101     -0.2715
     84  CB        46.3180   16.4690   23.0840 C.3   101  ILE101      0.0290
     85  CG1       47.6000   16.9410   22.4270 C.3   101  ILE101      0.0022
     86  CG2       46.6900   15.9530   24.4580 C.3   101  ILE101      0.0023
     87  CD1       48.2330   18.1250   23.1430 C.3   101  ILE101      0.0001
     88  N         44.3490   13.6310   23.3390 N.am  102  VAL102     -0.1963
     89  CA        43.1410   12.9680   23.8080 C.3   102  VAL102      0.1727
     90  C         42.7490   13.4760   25.1750 C.2   102  VAL102      0.2616
     91  O         43.5990   13.9960   25.8940 O.2   102  VAL102     -0.2715
     92  CB        43.3410   11.4320   23.8450 C.3   102  VAL102      0.0290
     93  CG1       44.5200   11.0490   24.7220 C.3   102  VAL102      0.0023
     94  CG2       42.0810   10.7150   24.3260 C.3   102  VAL102      0.0023
     95  N         41.4620   13.3410   25.5140 N.am  103  GLY103     -0.1955
     96  CA        40.9990   13.5060   26.8910 C.3   103  GLY103      0.1869
     97  C         41.2000   14.9110   27.4050 C.2   103  GLY103      0.2309
     98  O         41.5720   15.7940   26.6430 O.2   103  GLY103     -0.2863
     99  N         43.3730   16.2770   29.1840 N.3   105  ALA105     -0.1245
    100  CA        44.7350   16.8050   29.0120 C.3   105  ALA105      0.1562
    101  C         44.8340   17.6950   27.7650 C.2   105  ALA105      0.2260
    102  O         45.6810   18.5660   27.6870 O.2   105  ALA105     -0.2867
    103  CB        45.7290   15.6560   28.9290 C.3   105  ALA105      0.0290
    104  N         40.0140   17.6260   16.7720 N.3   123  ALA123     -0.1231
    105  CA        39.9040   16.2020   16.9720 C.3   123  ALA123      0.1694
    106  C         39.4560   15.8520   18.3960 C.2   123  ALA123      0.2592
    107  O         38.6620   14.9370   18.5640 O.2   123  ALA123     -0.2718
    108  CB        41.2190   15.5200   16.6170 C.3   123  ALA123      0.0304
    109  N         39.9300   16.5860   19.3980 N.am  124  ASN124     -0.1960
    110  CA        39.4830   16.4170   20.8010 C.3   124  ASN124      0.1819
    111  C         37.9660   16.6920   21.0490 C.2   124  ASN124      0.2621
    112  O         37.3830   17.5910   20.4940 O.2   124  ASN124     -0.2715
    113  CB        40.3710   17.2660   21.7370 C.3   124  ASN124      0.1195
    114  CG        40.1590   16.9470   23.2040 C.2   124  ASN124      0.2630
    115  OD1       39.2900   17.5160   23.8760 O.2   124  ASN124     -0.2716
    116  ND2       40.9750   16.0500   23.7210 N.am  124  ASN124     -0.0877
    117  N         37.3570   15.8600   21.8900 N.am  125  LYS125     -0.1963
    118  CA        35.8920   15.7510   22.0570 C.3   125  LYS125      0.1728
    119  C         35.4240   16.4320   23.3280 C.2   125  LYS125      0.2616
    120  O         34.5230   17.2530   23.3130 O.2   125  LYS125     -0.2715
    121  CB        35.5000   14.2590   22.1110 C.3   125  LYS125      0.0311
    122  CG        36.1010   13.4480   20.9670 C.3   125  LYS125      0.0038
    123  CD        35.1290   12.4150   20.3930 C.3   125  LYS125      0.0206
    124  CE        35.1750   12.3770   18.8760 C.3   125  LYS125      0.1093
    125  NZ        34.2290   13.3440   18.2480 N.3   125  LYS125     -0.1314
    126  N         36.0780   16.0710   24.4170 N.am  126  GLU126     -0.1977
    127  CA        35.8300   16.6000   25.7440 C.3   126  GLU126      0.1602
    128  C         35.6390   18.0790   25.6770 C.2   126  GLU126      0.2287
    129  O         34.7460   18.6380   26.2860 O.2   126  GLU126     -0.2864
    130  CB        37.0230   16.3030   26.6720 C.3   126  GLU126      0.0415
    131  CG        37.0600   14.8820   27.2390 C.3   126  GLU126      0.1163
    132  CD        37.6700   13.8570   26.3020 C.2   126  GLU126      0.3649
    133  OE1       38.2400   14.2490   25.2580 O.co2 126  GLU126     -0.2457
    134  OE2       37.5900   12.6520   26.6230 O.co2 126  GLU126     -0.2457
    135  N         36.9860   17.0700   12.6120 N.3   149  ILE149     -0.1231
    136  CA        37.6690   15.9350   11.9990 C.3   149  ILE149      0.1692
    137  C         36.8640   14.6100   12.0790 C.2   149  ILE149      0.2592
    138  O         36.9830   13.7710   11.2140 O.2   149  ILE149     -0.2718
    139  CB        39.0200   15.7710   12.7120 C.3   149  ILE149      0.0266
    140  CG1       39.9110   16.9820   12.3990 C.3   149  ILE149      0.0019
    141  CG2       39.6730   14.4260   12.3900 C.3   149  ILE149      0.0020
    142  CD1       39.9240   17.3870   10.9550 C.3   149  ILE149      0.0001
    143  N         36.0740   14.4090   13.1200 N.am  150  ASP150     -0.1974
    144  CA        35.2370   13.2220   13.2180 C.3   150  ASP150      0.1709
    145  C         34.3640   13.1450   11.9740 C.2   150  ASP150      0.2293
    146  O         33.8110   14.1490   11.5160 O.2   150  ASP150     -0.2864
    147  CB        34.3350   13.3060   14.4650 C.3   150  ASP150      0.1436
    148  CG        33.7130   11.9540   14.8660 C.2   150  ASP150      0.3671
    149  OD1       34.2470   10.8780   14.4870 O.co2 150  ASP150     -0.2456
    150  OD2       32.6860   11.9780   15.5910 O.co2 150  ASP150     -0.2456
    151  N         34.8580    2.3240   22.9820 N.3   212  ILE212     -0.1245
    152  CA        34.0790    2.9190   21.9120 C.3   212  ILE212      0.1561
    153  C         33.0910    1.8750   21.4120 C.2   212  ILE212      0.2260
    154  O         31.9580    2.2070   21.0660 O.2   212  ILE212     -0.2867
    155  CB        34.9790    3.3970   20.7560 C.3   212  ILE212      0.0252
    156  CG1       36.0410    4.3740   21.2930 C.3   212  ILE212      0.0019
    157  CG2       34.1380    4.0190   19.6400 C.3   212  ILE212      0.0019
    158  CD1       36.8120    5.1480   20.2350 C.3   212  ILE212      0.0001
    159  N         40.2200    7.4970    7.8880 N.3   270  MET270     -0.1245
    160  CA        40.6940    8.6710    8.6320 C.3   270  MET270      0.1570
    161  C         41.0830    9.8510    7.7430 C.2   270  MET270      0.2261
    162  O         40.5830   10.9560    7.9020 O.2   270  MET270     -0.2867
    163  CB        41.9390    8.2960    9.4470 C.3   270  MET270      0.0387
    164  CG        41.7590    8.2480   10.9500 C.3   270  MET270      0.0595
    165  SD        43.3320    8.0240   11.8360 S.3   270  MET270     -0.1393
    166  CE        42.6820    7.3280   13.3510 C.3   270  MET270      0.0692
@<TRIPOS>BOND
     1   161   162    2
     2   161   160    1
     3   159   160    1
     4   160   163    1
     5   163   164    1
     6   164   165    1
     7   142   140    1
     8   138   137    2
     9   146   145    2
    10   165   166    1
    11   145   144    1
    12   136   137    1
    13   136   135    1
    14   136   139    1
    15   137   143   am
    16   141   139    1
    17   140   139    1
    18    33    32    2
    19    25    24    2
    20   143   144    1
    21   144   147    1
    22    32    31    1
    23    19    18    2
    24    24    23    1
    25    24    30   am
    26    23    26    1
    27    23    22    1
    28    28    26    1
    29   147   148    1
    30   149   148   ar
    31    18    22   am
    32    18    17    1
    33    31    30    1
    34    21    20    1
    35    27    26    1
    36    27    29    1
    37   148   150   ar
    38    17    20    1
    39    17    16    1
    40    15    14    2
    41   108   105    1
    42    14    16   am
    43    14    13    1
    44   104   105    1
    45   105   106    1
    46    79    76    1
    47     8     7    2
    48     4     3    2
    49     7     6    1
    50     7    12   am
    51     5     6    1
    52     6     9    1
    53    12    13    1
    54   125   124    1
    55     3     2    1
    56   106   107    2
    57   106   109   am
    58    75    76    1
    59    76    77    1
    60    34    35    1
    61    11     9    1
    62   124   123    1
    63     9    10    1
    64   109   110    1
    65     1     2    1
    66   157   155    1
    67    37    36    2
    68    78    77    2
    69    77    80   am
    70   158   156    1
    71    35    36    1
    72    35    38    1
    73    68    66   am
    74   123   122    1
    75    36    41   am
    76   112   111    2
    77    40    38    1
    78   155   156    1
    79   155   152    1
    80   110   111    1
    81   110   113    1
    82    38    39    1
    83    80    81    1
    84    64    63    2
    85   122   121    1
    86    67    66    2
    87    66    65    1
    88   111   117   am
    89   154   153    2
    90    45    42    1
    91   153   152    1
    92    41    42    1
    93   113   114    1
    94   117   118    1
    95   152   151    1
    96    65    62    1
    97    42    43    1
    98   118   121    1
    99   118   119    1
   100    63    62    1
   101    81    82    1
   102    81    84    1
   103    85    84    1
   104    85    87    1
   105    62    61    1
   106    82    83    2
   107    82    88   am
   108    84    86    1
   109   114   116   am
   110   114   115    2
   111   120   119    2
   112   119   126   am
   113    88    89    1
   114    43    46   am
   115    43    44    2
   116    89    92    1
   117    89    90    1
   118    92    94    1
   119    92    93    1
   120    61    52   am
   121    46    47    1
   122   126   127    1
   123    52    53    2
   124    52    51    1
   125    90    95   am
   126    90    91    2
   127   133   132   ar
   128    47    48    1
   129    95    96    1
   130    50    48   am
   131    50    51    1
   132   128   127    1
   133   128   129    2
   134    48    49    2
   135   127   130    1
   136    51    54    1
   137   132   134   ar
   138   132   131    1
   139    98    97    2
   140   130   131    1
   141    96    97    1
   142    69    70    1
   143    54    55    1
   144   102   101    2
   145   101   100    1
   146    70    73    1
   147    70    71    1
   148    73    74    1
   149    55    56    1
   150   103   100    1
   151   100    99    1
   152    71    72    2
   153    56    57    1
   154    59    58    1
   155    57    58    2
   156    58    60    1
