@<TRIPOS>MOLECULE
tmp/5dulC00.pdb
 162 153 0 0 0
SMALL
GASTEIGER

@<TRIPOS>ATOM
      1  N          6.2150   39.4450   34.8820 N.3    11  GLY11      -0.1225
      2  CA         5.5380   40.7540   34.7970 C.3    11  GLY11       0.1811
      3  C          4.7310   40.8270   33.5120 C.2    11  GLY11       0.2280
      4  O          4.7310   41.8500   32.8190 O.2    11  GLY11      -0.2866
      5  N          1.6180   40.8830   32.7550 N.3    13  THR13      -0.1203
      6  CA         0.3770   41.5990   32.6550 C.3    13  THR13       0.1994
      7  C          0.6070   43.1040   32.6180 C.2    13  THR13       0.2618
      8  O         -0.3630   43.8510   32.6540 O.2    13  THR13      -0.2717
      9  CB        -0.5170   41.2110   33.8240 C.3    13  THR13       0.1784
     10  OG1        0.2620   41.2550   35.0210 O.3    13  THR13      -0.2211
     11  CG2       -1.0470   39.8040   33.6110 C.3    13  THR13       0.0376
     12  N          1.8750   43.5280   32.5130 N.am   14  GLY14      -0.1942
     13  CA         2.2600   44.9480   32.5290 C.3    14  GLY14       0.2014
     14  C          2.4180   45.4600   31.1120 C.2    14  GLY14       0.2640
     15  O          2.0350   44.7750   30.1690 O.2    14  GLY14      -0.2714
     16  N          2.9790   46.6590   30.9380 N.am   15  SER15      -0.1935
     17  CA         3.0880   47.2260   29.5930 C.3    15  SER15       0.2055
     18  C          4.2000   46.5300   28.8240 C.2    15  SER15       0.2643
     19  O          3.9880   46.1380   27.6630 O.2    15  SER15      -0.2714
     20  CB         3.2560   48.7600   29.5950 C.3    15  SER15       0.2130
     21  OG         4.5570   49.1550   29.9860 O.3    15  SER15      -0.2179
     22  N          5.3670   46.3700   29.4590 N.am   16  ILE16      -0.1963
     23  CA         6.5030   45.7000   28.8180 C.3    16  ILE16       0.1727
     24  C          6.1050   44.2920   28.4590 C.2    16  ILE16       0.2616
     25  O          6.3150   43.8400   27.3100 O.2    16  ILE16      -0.2715
     26  CB         7.7630   45.5950   29.6920 C.3    16  ILE16       0.0290
     27  CG1        8.6500   46.8280   29.5880 C.3    16  ILE16       0.0022
     28  CG2        8.6550   44.4610   29.1800 C.3    16  ILE16       0.0023
     29  CD1        7.9100   48.1270   29.6340 C.3    16  ILE16       0.0001
     30  N          5.5360   43.6040   29.4420 N.am   17  GLY17      -0.1955
     31  CA         5.0180   42.2420   29.2460 C.3    17  GLY17       0.1869
     32  C          4.0980   42.0910   28.0430 C.2    17  GLY17       0.2309
     33  O          4.1900   41.1000   27.3140 O.2    17  GLY17      -0.2863
     34  N          4.2490   34.9360   33.9730 N.3    37  VAL37      -0.1231
     35  CA         4.1870   35.2340   35.4140 C.3    37  VAL37       0.1692
     36  C          3.6920   36.6410   35.7000 C.2    37  VAL37       0.2592
     37  O          4.3400   37.6180   35.3110 O.2    37  VAL37      -0.2718
     38  CB         5.5670   35.1080   36.0910 C.3    37  VAL37       0.0266
     39  CG1        5.4460   35.2680   37.6060 C.3    37  VAL37       0.0020
     40  CG2        6.2060   33.7720   35.7400 C.3    37  VAL37       0.0020
     41  N          2.5680   36.7410   36.4090 N.am   38  ALA38      -0.1966
     42  CA         2.0550   38.0310   36.8690 C.3    38  ALA38       0.1728
     43  C          1.7920   38.0060   38.3640 C.2    38  ALA38       0.2617
     44  O          1.8710   36.9550   38.9960 O.2    38  ALA38      -0.2715
     45  CB         0.7850   38.3890   36.1240 C.3    38  ALA38       0.0334
     46  N          1.5120   39.1720   38.9320 N.am   39  GLY39      -0.1940
     47  CA         1.1240   39.2310   40.3270 C.3    39  GLY39       0.2014
     48  C         -0.3650   38.9780   40.5500 C.2    39  GLY39       0.2639
     49  O         -0.7640   37.9840   41.1680 O.2    39  GLY39      -0.2714
     50  N         -1.1810   39.8620   39.9860 N.am   40  ARG40      -0.1963
     51  CA        -2.5000   40.1580   40.5400 C.3    40  ARG40       0.1729
     52  C         -3.6320   40.2600   39.5000 C.2    40  ARG40       0.2616
     53  O         -4.7580   39.8860   39.7800 O.2    40  ARG40      -0.2715
     54  CB        -2.3950   41.4780   41.3230 C.3    40  ARG40       0.0348
     55  CG        -2.7480   41.3850   42.8000 C.3    40  ARG40       0.0492
     56  CD        -1.5290   41.6010   43.6910 C.3    40  ARG40       0.2205
     57  NE        -1.0750   42.9990   43.6520 N.pl3  40  ARG40      -0.0865
     58  CZ        -1.0620   43.8520   44.6810 C.cat  40  ARG40       0.5346
     59  NH1       -1.4570   43.4830   45.9000 N.pl3  40  ARG40       0.1354
     60  NH2       -0.6330   45.0980   44.4900 N.pl3  40  ARG40       0.1354
     61  N         -3.3410   40.7890   38.3190 N.am   41  ASN41      -0.1972
     62  CA        -4.3350   40.9300   37.2630 C.3    41  ASN41       0.1688
     63  C         -4.6740   39.5490   36.6930 C.2    41  ASN41       0.2292
     64  O         -4.0130   39.0500   35.7730 O.2    41  ASN41      -0.2864
     65  CB        -3.8020   41.8710   36.1750 C.3    41  ASN41       0.1181
     66  CG        -4.8420   42.2300   35.1300 C.2    41  ASN41       0.2629
     67  OD1       -5.8350   41.5240   34.9350 O.2    41  ASN41      -0.2716
     68  ND2       -4.5990   43.3280   34.4270 N.am   41  ASN41      -0.0877
     69  N          0.8840   33.2200   39.6030 N.3    59  MET59      -0.1230
     70  CA         0.4840   34.5150   40.1410 C.3    59  MET59       0.1702
     71  C          1.2220   34.7250   41.4620 C.2    59  MET59       0.2593
     72  O          2.0130   33.8700   41.8520 O.2    59  MET59      -0.2718
     73  CB        -1.0290   34.5580   40.3270 C.3    59  MET59       0.0401
     74  CG        -1.8320   34.0640   39.1250 C.3    59  MET59       0.0596
     75  SD        -1.8770   35.1760   37.6940 S.3    59  MET59      -0.1393
     76  CE        -2.1890   36.7740   38.4400 C.3    59  MET59       0.0692
     77  N          0.9960   35.8460   42.1430 N.am   60  SER60      -0.1952
     78  CA         1.7690   36.1540   43.3670 C.3    60  SER60       0.1924
     79  C          1.1790   35.5890   44.6840 C.2    60  SER60       0.2314
     80  O          1.7600   35.8010   45.7550 O.2    60  SER60      -0.2863
     81  CB         2.0570   37.6740   43.4850 C.3    60  SER60       0.2116
     82  OG         0.9060   38.4680   43.2090 O.3    60  SER60      -0.2180
     83  N         10.4880   41.6460   33.7630 N.3   101  ALA101     -0.1231
     84  CA         9.6520   42.8540   33.8160 C.3   101  ALA101      0.1694
     85  C          8.6970   42.9790   35.0290 C.2   101  ALA101      0.2592
     86  O          7.5990   43.5510   34.8950 O.2   101  ALA101     -0.2718
     87  CB         8.8230   42.9210   32.5380 C.3   101  ALA101      0.0304
     88  N          9.0760   42.4450   36.1950 N.am  102  ILE102     -0.1966
     89  CA         8.3000   42.6910   37.4210 C.3   102  ILE102      0.1727
     90  C          8.7930   44.0100   38.0110 C.2   102  ILE102      0.2616
     91  O         10.0010   44.2690   38.0210 O.2   102  ILE102     -0.2715
     92  CB         8.4340   41.5440   38.4410 C.3   102  ILE102      0.0290
     93  CG1        7.7610   40.2710   37.9050 C.3   102  ILE102      0.0022
     94  CG2        7.8090   41.9340   39.7680 C.3   102  ILE102      0.0023
     95  CD1        8.1230   38.9940   38.6730 C.3   102  ILE102      0.0001
     96  N          7.8740   44.8490   38.4840 N.am  103  VAL103     -0.1977
     97  CA         8.2560   46.1750   38.9600 C.3   103  VAL103      0.1596
     98  C          8.6510   46.0830   40.4160 C.2   103  VAL103      0.2287
     99  O          8.4140   45.0600   41.0630 O.2   103  VAL103     -0.2864
    100  CB         7.1160   47.2100   38.7900 C.3   103  VAL103      0.0276
    101  CG1        5.9570   46.9060   39.7280 C.3   103  VAL103      0.0022
    102  CG2        7.6190   48.6360   39.0150 C.3   103  VAL103      0.0022
    103  N         10.2050   43.8530   44.4700 N.3   106  ALA106     -0.1245
    104  CA         9.6540   42.5230   44.3480 C.3   106  ALA106      0.1562
    105  C         10.2410   41.7450   43.1560 C.2   106  ALA106      0.2260
    106  O         10.2930   40.5220   43.1940 O.2   106  ALA106     -0.2867
    107  CB         8.1340   42.5910   44.2550 C.3   106  ALA106      0.0290
    108  N         14.2910   44.2300   32.3330 N.3   124  ALA124     -0.1231
    109  CA        13.4430   45.4580   32.3740 C.3   124  ALA124      0.1694
    110  C         13.3700   46.0310   33.7980 C.2   124  ALA124      0.2592
    111  O         13.5950   47.2150   33.9900 O.2   124  ALA124     -0.2718
    112  CB        12.0640   45.1690   31.8220 C.3   124  ALA124      0.0304
    113  N         13.0880   45.1820   34.7840 N.am  125  ASN125     -0.1960
    114  CA        13.3550   45.4870   36.2130 C.3   125  ASN125      0.1819
    115  C         14.5490   46.4090   36.4390 C.2   125  ASN125      0.2621
    116  O         15.6840   46.0160   36.2120 O.2   125  ASN125     -0.2715
    117  CB        13.6230   44.1810   37.0050 C.3   125  ASN125      0.1195
    118  CG        13.8140   44.4310   38.4890 C.2   125  ASN125      0.2630
    119  OD1       14.9440   44.4340   39.0140 O.2   125  ASN125     -0.2716
    120  ND2       12.7030   44.6780   39.1760 N.am  125  ASN125     -0.0877
    121  N         14.2920   47.6050   36.9400 N.am  126  LYS126     -0.1963
    122  CA        15.3380   48.6170   37.0950 C.3   126  LYS126      0.1728
    123  C         16.0810   48.4500   38.4200 C.2   126  LYS126      0.2616
    124  O         17.2570   48.7540   38.5230 O.2   126  LYS126     -0.2715
    125  CB        14.7520   50.0450   37.0340 C.3   126  LYS126      0.0311
    126  CG        13.4930   50.2510   36.1850 C.3   126  LYS126      0.0038
    127  CD        13.7280   51.0560   34.9070 C.3   126  LYS126      0.0206
    128  CE        14.3630   52.4220   35.1680 C.3   126  LYS126      0.1093
    129  NZ        15.5620   52.6640   34.3090 N.3   126  LYS126     -0.1314
    130  N         15.3810   48.0050   39.4530 N.am  127  GLU127     -0.1977
    131  CA        15.9770   47.9850   40.7870 C.3   127  GLU127      0.1602
    132  C         17.1110   46.9620   40.8540 C.2   127  GLU127      0.2287
    133  O         18.1020   47.1700   41.5510 O.2   127  GLU127     -0.2864
    134  CB        14.9280   47.7110   41.8670 C.3   127  GLU127      0.0415
    135  CG        14.1170   48.9410   42.2600 C.3   127  GLU127      0.1163
    136  CD        12.9850   49.2320   41.2930 C.2   127  GLU127      0.3649
    137  OE1       12.8130   48.4540   40.3350 O.co2 127  GLU127     -0.2457
    138  OE2       12.2610   50.2280   41.4900 O.co2 127  GLU127     -0.2457
    139  N         16.5010   46.3950   28.3340 N.3   150  ILE150     -0.1231
    140  CA        15.2790   46.7840   27.6050 C.3   150  ILE150      0.1692
    141  C         14.9860   48.2760   27.6830 C.2   150  ILE150      0.2592
    142  O         14.2410   48.7860   26.8570 O.2   150  ILE150     -0.2718
    143  CB        14.0530   46.0270   28.1780 C.3   150  ILE150      0.0266
    144  CG1       14.1120   44.5340   27.8270 C.3   150  ILE150      0.0019
    145  CG2       12.7260   46.6280   27.7290 C.3   150  ILE150      0.0020
    146  CD1       14.3050   44.2340   26.3640 C.3   150  ILE150      0.0001
    147  N         15.5390   48.9830   28.6670 N.am  151  ASP151     -0.1974
    148  CA        15.3300   50.4260   28.7490 C.3   151  ASP151      0.1709
    149  C         15.9070   51.0130   27.4950 C.2   151  ASP151      0.2293
    150  O         16.9200   50.5390   26.9710 O.2   151  ASP151     -0.2864
    151  CB        15.9740   51.0570   29.9940 C.3   151  ASP151      0.1436
    152  CG        15.6750   52.5750   30.1320 C.2   151  ASP151      0.3671
    153  OD1       14.5440   53.0170   29.8320 O.co2 151  ASP151     -0.2456
    154  OD2       16.5880   53.3350   30.5480 O.co2 151  ASP151     -0.2456
    155  N          8.3810   50.8830   22.2800 N.3   248  MET248     -0.1245
    156  CA         9.2090   49.9320   23.0330 C.3   248  MET248      0.1570
    157  C          9.2760   48.5360   22.4240 C.2   248  MET248      0.2261
    158  O         10.0730   47.6970   22.8490 O.2   248  MET248     -0.2867
    159  CB         8.7080   49.8240   24.4770 C.3   248  MET248      0.0387
    160  CG         9.0210   51.0540   25.2950 C.3   248  MET248      0.0595
    161  SD        10.7780   51.0880   25.5310 S.3   248  MET248     -0.1393
    162  CE        10.9810   52.5460   26.5780 C.3   248  MET248      0.0692
@<TRIPOS>BOND
     1   155   156    1
     2   157   158    2
     3   157   156    1
     4   156   159    1
     5   159   160    1
     6   160   161    1
     7   161   162    1
     8   146   144    1
     9   142   141    2
    10   150   149    2
    11    25    24    2
    12    33    32    2
    13   149   148    1
    14   140   141    1
    15   140   143    1
    16   140   139    1
    17    19    18    2
    18   141   147   am
    19   145   143    1
    20   144   143    1
    21    32    31    1
    22    24    23    1
    23    24    30   am
    24   147   148    1
    25   148   151    1
    26    23    22    1
    27    23    26    1
    28    18    22   am
    29    18    17    1
    30    28    26    1
    31    31    30    1
    32    27    29    1
    33    27    26    1
    34    17    20    1
    35    17    16    1
    36    20    21    1
    37   153   152   ar
    38   151   152    1
    39   152   154   ar
    40    15    14    2
    41    16    14   am
    42    14    13    1
    43   112   109    1
    44   108   109    1
    45   109   110    1
    46    12    13    1
    47    12     7   am
    48    87    84    1
    49     7     8    2
    50     7     6    1
    51     6     5    1
    52     6     9    1
    53     4     3    2
    54     3     2    1
    55    11     9    1
    56    83    84    1
    57   110   111    2
    58   110   113   am
    59    84    85    1
    60     9    10    1
    61    34    35    1
    62   129   128    1
    63    68    66   am
    64   113   114    1
    65     2     1    1
    66    86    85    2
    67   127   128    1
    68   127   126    1
    69    67    66    2
    70    85    88   am
    71    66    65    1
    72    37    36    2
    73    35    36    1
    74    35    38    1
    75    36    41   am
    76    40    38    1
    77    64    63    2
    78    38    39    1
    79    45    42    1
    80    65    62    1
    81   126   125    1
    82    88    89    1
    83   116   115    2
    84   114   115    1
    85   114   117    1
    86    41    42    1
    87   115   121   am
    88    63    62    1
    89    42    43    1
    90   121   122    1
    91   117   118    1
    92   125   122    1
    93   122   123    1
    94    62    61    1
    95    89    90    1
    96    89    92    1
    97    75    76    1
    98    75    74    1
    99    93    92    1
   100    93    95    1
   101    90    91    2
   102    90    96   am
   103    61    52   am
   104    43    46   am
   105    43    44    2
   106   123   124    2
   107   123   130   am
   108    92    94    1
   109    96    97    1
   110   118   119    2
   111   118   120   am
   112   100    97    1
   113   100   102    1
   114   100   101    1
   115    46    47    1
   116    97    98    1
   117    74    73    1
   118   130   131    1
   119    52    53    2
   120    52    51    1
   121    69    70    1
   122    50    51    1
   123    50    48   am
   124    70    73    1
   125    70    71    1
   126    47    48    1
   127   137   136   ar
   128    98    99    2
   129    51    54    1
   130    48    49    2
   131   131   132    1
   132   131   134    1
   133   132   133    2
   134   136   138   ar
   135   136   135    1
   136    54    55    1
   137    71    72    2
   138    71    77   am
   139   134   135    1
   140    77    78    1
   141    55    56    1
   142   105   106    2
   143   105   104    1
   144    82    81    1
   145    78    81    1
   146    78    79    1
   147    57    56    1
   148    57    58    2
   149   107   104    1
   150   104   103    1
   151    60    58    1
   152    58    59    1
   153    79    80    2
