@<TRIPOS>MOLECULE
tmp/5duoB05.pdb
 85 81 0 0 0
SMALL
GASTEIGER

@<TRIPOS>ATOM
      1  N        -10.1480   26.1680   31.1100 N.3    98  ALA98      -0.1245
      2  CA        -9.7820   26.9600   32.2790 C.3    98  ALA98       0.1562
      3  C         -8.9700   28.1820   31.8770 C.2    98  ALA98       0.2260
      4  O         -9.1520   29.2730   32.4360 O.2    98  ALA98      -0.2867
      5  CB        -9.0080   26.0980   33.2830 C.3    98  ALA98       0.0290
      6  N        -11.2840   30.8210   30.5060 N.3   101  LEU101     -0.1231
      7  CA       -11.9900   31.5840   31.5310 C.3   101  LEU101      0.1693
      8  C        -11.1420   32.7610   31.9980 C.2   101  LEU101      0.2591
      9  O        -11.6230   33.8970   32.0770 O.2   101  LEU101     -0.2718
     10  CB       -12.3710   30.6700   32.7060 C.3   101  LEU101      0.0284
     11  CG       -13.1910   31.3230   33.8280 C.3   101  LEU101      0.0019
     12  CD1      -14.5520   31.8440   33.3390 C.3   101  LEU101      0.0001
     13  CD2      -13.3790   30.3410   34.9670 C.3   101  LEU101      0.0001
     14  N         -9.8640   32.5100   32.2800 N.am  102  ALA102     -0.1980
     15  CA        -8.9560   33.5960   32.6050 C.3   102  ALA102      0.1597
     16  C         -8.9760   34.6550   31.5150 C.2   102  ALA102      0.2287
     17  O         -9.0030   35.8620   31.8030 O.2   102  ALA102     -0.2864
     18  CB        -7.5420   33.0620   32.7930 C.3   102  ALA102      0.0319
     19  N        -12.2350   36.6500   31.3630 N.3   105  MET105     -0.1230
     20  CA       -12.3370   37.5220   32.5300 C.3   105  MET105      0.1702
     21  C        -11.4690   38.7630   32.3710 C.2   105  MET105      0.2592
     22  O        -11.9040   39.8730   32.6980 O.2   105  MET105     -0.2718
     23  CB       -11.9370   36.7750   33.7970 C.3   105  MET105      0.0401
     24  CG       -13.0050   35.8860   34.3870 C.3   105  MET105      0.0596
     25  SD       -12.4120   34.9630   35.8350 S.3   105  MET105     -0.1393
     26  CE       -14.0140   34.4670   36.4780 C.3   105  MET105      0.0692
     27  N        -10.2190   38.5890   31.9170 N.am  106  VAL106     -0.1980
     28  CA        -9.3870   39.7380   31.5630 C.3   106  VAL106      0.1595
     29  C        -10.0650   40.5770   30.4820 C.2   106  VAL106      0.2287
     30  O        -10.0900   41.8130   30.5540 O.2   106  VAL106     -0.2864
     31  CB        -7.9900   39.2850   31.1120 C.3   106  VAL106      0.0276
     32  CG1       -7.2210   40.4810   30.5790 C.3   106  VAL106      0.0022
     33  CG2       -7.2450   38.6420   32.2530 C.3   106  VAL106      0.0022
     34  N        -12.7450   42.7010   32.0870 N.3   109  LEU109     -0.1245
     35  CA       -12.2030   43.8560   32.7850 C.3   109  LEU109      0.1561
     36  C        -11.8770   44.9820   31.8160 C.2   109  LEU109      0.2260
     37  O        -12.1360   46.1580   32.1060 O.2   109  LEU109     -0.2867
     38  CB       -10.9660   43.4540   33.5800 C.3   109  LEU109      0.0270
     39  CG       -11.3790   42.6940   34.8290 C.3   109  LEU109      0.0019
     40  CD1      -10.2830   41.7100   35.2410 C.3   109  LEU109      0.0001
     41  CD2      -11.7490   43.6580   35.9770 C.3   109  LEU109      0.0001
     42  N        -17.6480   29.7290   32.4460 N.3   144  PHE144     -0.1241
     43  CA       -17.6340   29.1690   33.7970 C.3   144  PHE144      0.1605
     44  C        -18.5070   27.9160   33.9000 C.2   144  PHE144      0.2264
     45  O        -18.0850   26.8920   34.4510 O.2   144  PHE144     -0.2867
     46  CB       -18.1080   30.2270   34.7790 C.3   144  PHE144      0.0534
     47  CG       -18.1630   29.7540   36.1800 C.ar  144  PHE144     -0.0203
     48  CD1      -17.0100   29.6590   36.9300 C.ar  144  PHE144     -0.0042
     49  CD2      -19.3760   29.4230   36.7630 C.ar  144  PHE144     -0.0042
     50  CE1      -17.0640   29.2300   38.2430 C.ar  144  PHE144     -0.0003
     51  CE2      -19.4390   28.9970   38.0730 C.ar  144  PHE144     -0.0003
     52  CZ       -18.2850   28.8930   38.8150 C.ar  144  PHE144     -0.0000
     53  N        -17.0430   24.7080   32.2960 N.3   147  MET147     -0.1230
     54  CA       -16.1420   23.9900   33.2010 C.3   147  MET147      0.1702
     55  C        -16.9140   23.3310   34.3310 C.2   147  MET147      0.2592
     56  O        -16.7410   22.1380   34.6100 O.2   147  MET147     -0.2718
     57  CB       -15.1020   24.9430   33.7910 C.3   147  MET147      0.0401
     58  CG       -14.1390   25.5490   32.8030 C.3   147  MET147      0.0596
     59  SD       -13.2090   26.9190   33.5490 S.3   147  MET147     -0.1393
     60  CE       -12.3970   26.1690   34.9580 C.3   147  MET147      0.0692
     61  N        -17.7660   24.1100   34.9980 N.am  148  ARG148     -0.1980
     62  CA       -18.5420   23.6020   36.1210 C.3   148  ARG148      0.1597
     63  C        -19.3270   22.3350   35.7520 C.2   148  ARG148      0.2287
     64  O        -19.3700   21.3760   36.5240 O.2   148  ARG148     -0.2864
     65  CB       -19.4730   24.7150   36.6140 C.3   148  ARG148      0.0334
     66  CG       -19.8340   24.6050   38.0610 C.3   148  ARG148      0.0492
     67  CD       -20.6820   25.7710   38.5070 C.3   148  ARG148      0.2205
     68  NE       -22.0630   25.6930   38.0300 N.pl3 148  ARG148     -0.0865
     69  CZ       -22.9490   24.7910   38.4470 C.cat 148  ARG148      0.5346
     70  NH1      -22.5910   23.8630   39.3300 N.pl3 148  ARG148      0.1354
     71  NH2      -24.1890   24.8060   37.9700 N.pl3 148  ARG148      0.1354
     72  N        -16.7740   19.0390   34.5040 N.3   151  TRP151     -0.1241
     73  CA       -15.5330   18.9730   35.2690 C.3   151  TRP151      0.1605
     74  C        -14.8380   17.6100   35.1700 C.2   151  TRP151      0.2264
     75  O        -13.6230   17.5280   35.3940 O.2   151  TRP151     -0.2867
     76  CB       -15.8130   19.3380   36.7340 C.3   151  TRP151      0.0550
     77  CG       -14.5490   19.6060   37.4900 C.ar  151  TRP151      0.0003
     78  CD1      -13.9980   18.8360   38.4720 C.ar  151  TRP151      0.0946
     79  CD2      -13.6520   20.7050   37.2870 C.ar  151  TRP151      0.0152
     80  NE1      -12.8150   19.3930   38.8970 N.ar  151  TRP151     -0.2442
     81  CE2      -12.5840   20.5420   38.1870 C.ar  151  TRP151      0.0810
     82  CE3      -13.6540   21.8110   36.4350 C.ar  151  TRP151      0.0012
     83  CZ2      -11.5320   21.4460   38.2620 C.ar  151  TRP151      0.0191
     84  CZ3      -12.6150   22.7000   36.5100 C.ar  151  TRP151      0.0001
     85  CH2      -11.5700   22.5210   37.4180 C.ar  151  TRP151      0.0015
@<TRIPOS>BOND
     1    29    30    2
     2    29    28    1
     3     6     7    1
     4    32    31    1
     5     1     2    1
     6    31    28    1
     7    31    33    1
     8    19    20    1
     9    16    17    2
    10    16    15    1
    11     7     8    1
    12     7    10    1
    13    28    27    1
    14    36    37    2
    15    36    35    1
    16     3     2    1
    17     3     4    2
    18    27    21   am
    19     8     9    2
    20     8    14   am
    21    34    35    1
    22     2     5    1
    23    14    15    1
    24    53    54    1
    25    21    20    1
    26    21    22    2
    27    42    43    1
    28    20    23    1
    29    15    18    1
    30    10    11    1
    31    35    38    1
    32    58    59    1
    33    58    57    1
    34    54    57    1
    35    54    55    1
    36    12    11    1
    37    59    60    1
    38    38    39    1
    39    43    44    1
    40    43    46    1
    41    23    24    1
    42    11    13    1
    43    44    45    2
    44    55    56    2
    45    55    61   am
    46    24    25    1
    47    72    73    1
    48    46    47    1
    49    39    40    1
    50    39    41    1
    51    61    62    1
    52    74    73    1
    53    74    75    2
    54    73    76    1
    55    63    62    1
    56    63    64    2
    57    25    26    1
    58    62    65    1
    59    47    49   ar
    60    47    48   ar
    61    82    84   ar
    62    82    79   ar
    63    84    85   ar
    64    65    66    1
    65    76    77    1
    66    49    51   ar
    67    48    50   ar
    68    79    77   ar
    69    79    81   ar
    70    85    83   ar
    71    77    78   ar
    72    71    69    1
    73    68    69    2
    74    68    67    1
    75    66    67    1
    76    51    52   ar
    77    81    83   ar
    78    81    80   ar
    79    50    52   ar
    80    69    70    1
    81    78    80   ar
