@<TRIPOS>MOLECULE
tmp/5duvC00.pdb
 98 91 0 0 0
SMALL
GASTEIGER

@<TRIPOS>ATOM
      1  N        -13.7450   -1.8730   -1.4070 N.3    31  ARG31      -0.1245
      2  CA       -12.7400   -1.3940   -2.3680 C.3    31  ARG31       0.1563
      3  C        -12.5500    0.1280   -2.2810 C.2    31  ARG31       0.2260
      4  O        -13.4260    0.8680   -1.8240 O.2    31  ARG31      -0.2867
      5  CB       -13.1060   -1.7660   -3.8150 C.3    31  ARG31       0.0307
      6  CG       -13.3370   -3.2490   -4.0890 C.3    31  ARG31       0.0489
      7  CD       -13.5970   -3.5120   -5.5720 C.3    31  ARG31       0.2205
      8  NE       -13.7220   -4.9340   -5.9000 N.pl3  31  ARG31      -0.0865
      9  CZ       -13.9800   -5.3920   -7.1270 C.cat  31  ARG31       0.5346
     10  NH1      -14.1380   -4.5510   -8.1410 N.pl3  31  ARG31       0.1354
     11  NH2      -14.0760   -6.6930   -7.3470 N.pl3  31  ARG31       0.1354
     12  N         -4.6050    2.6190  -12.9050 N.3    49  HIS49      -0.1241
     13  CA        -5.6930    2.3030  -11.9870 C.3    49  HIS49       0.1621
     14  C         -5.1420    1.3980  -10.8860 C.2    49  HIS49       0.2264
     15  O         -4.6150    0.3180  -11.1680 O.2    49  HIS49      -0.2867
     16  CB        -6.8010    1.5860  -12.7800 C.3    49  HIS49       0.0745
     17  CG        -7.9210    1.0370  -11.9460 C.ar   49  HIS49       0.0817
     18  ND1       -8.8620    1.8350  -11.3380 N.ar   49  HIS49      -0.2268
     19  CD2       -8.2710   -0.2410  -11.6570 C.ar   49  HIS49       0.1154
     20  CE1       -9.7350    1.0800  -10.6970 C.ar   49  HIS49       0.1986
     21  NE2       -9.3960   -0.1850  -10.8700 N.ar   49  HIS49      -0.2212
     22  N         -6.1830   -0.4630   -7.3910 N.3    51  ASN51      -0.1240
     23  CA        -7.4650   -0.9140   -6.8670 C.3    51  ASN51       0.1653
     24  C         -7.3220   -2.0080   -5.8030 C.2    51  ASN51       0.2266
     25  O         -7.3500   -3.1910   -6.1400 O.2    51  ASN51      -0.2867
     26  CB        -8.3110   -1.4500   -8.0390 C.3    51  ASN51       0.1155
     27  CG        -9.7670   -1.7320   -7.6750 C.2    51  ASN51       0.2627
     28  OD1      -10.4150   -2.5400   -8.3310 O.2    51  ASN51      -0.2716
     29  ND2      -10.2990   -1.0410   -6.6780 N.am   51  ASN51      -0.0877
     30  N         -8.7160   -4.5290   -3.0500 N.3    53  ARG53      -0.1245
     31  CA        -9.9820   -5.2390   -2.9840 C.3    53  ARG53       0.1563
     32  C         -9.9780   -6.2440   -1.8260 C.2    53  ARG53       0.2260
     33  O         -9.0700   -7.0680   -1.7290 O.2    53  ARG53      -0.2867
     34  CB       -10.2200   -6.0170   -4.2740 C.3    53  ARG53       0.0307
     35  CG       -10.1250   -5.2140   -5.5610 C.3    53  ARG53       0.0489
     36  CD       -10.3740   -6.1240   -6.7520 C.3    53  ARG53       0.2205
     37  NE       -10.5820   -5.3780   -7.9940 N.pl3  53  ARG53      -0.0865
     38  CZ       -10.8330   -5.9330   -9.1700 C.cat  53  ARG53       0.5346
     39  NH1      -10.9200   -7.2500   -9.2830 N.pl3  53  ARG53       0.1354
     40  NH2      -10.9970   -5.1650  -10.2400 N.pl3  53  ARG53       0.1354
     41  N         -6.4770   -8.5710   -2.2560 N.3    59  LYS59      -0.1245
     42  CA        -5.4210   -8.3270   -3.2260 C.3    59  LYS59       0.1561
     43  C         -5.4770   -6.8830   -3.7120 C.2    59  LYS59       0.2260
     44  O         -6.3880   -6.1240   -3.3820 O.2    59  LYS59      -0.2867
     45  CB        -5.5570   -9.2680   -4.4340 C.3    59  LYS59       0.0271
     46  CG        -6.8510   -9.0720   -5.2160 C.3    59  LYS59       0.0035
     47  CD        -6.9190   -9.9650   -6.4450 C.3    59  LYS59       0.0206
     48  CE        -8.3480  -10.4130   -6.7070 C.3    59  LYS59       0.1093
     49  NZ        -8.5330  -10.9510   -8.0840 N.3    59  LYS59      -0.1314
     50  N         -5.2230   -4.7790   -7.4420 N.3    61  VAL61      -0.1245
     51  CA        -5.2480   -4.9420   -8.8850 C.3    61  VAL61       0.1561
     52  C         -4.7250   -3.6630   -9.5280 C.2    61  VAL61       0.2260
     53  O         -4.9670   -2.5590   -9.0280 O.2    61  VAL61      -0.2867
     54  CB        -6.6850   -5.2430   -9.3770 C.3    61  VAL61       0.0252
     55  CG1       -6.7820   -5.1000  -10.8810 C.3    61  VAL61       0.0019
     56  CG2       -7.0900   -6.6470   -8.9570 C.3    61  VAL61       0.0019
     57  N         -4.1880   -1.7330  -13.4430 N.3    63  ASN63      -0.1240
     58  CA        -4.5130   -1.7630  -14.8530 C.3    63  ASN63       0.1653
     59  C         -4.5190   -0.3790  -15.4710 C.2    63  ASN63       0.2266
     60  O         -4.2870    0.6330  -14.7970 O.2    63  ASN63      -0.2867
     61  CB        -5.8870   -2.4310  -15.0850 C.3    63  ASN63       0.1155
     62  CG        -5.9690   -3.1980  -16.4140 C.2    63  ASN63       0.2627
     63  OD1       -5.1780   -3.0020  -17.3360 O.2    63  ASN63      -0.2716
     64  ND2       -6.9360   -4.0910  -16.4980 N.am   63  ASN63      -0.0877
     65  N        -10.3060   -1.9340  -20.5980 N.3    70  TRP70      -0.1241
     66  CA        -9.2890   -2.3720  -19.6420 C.3    70  TRP70       0.1605
     67  C         -8.2930   -3.3080  -20.3170 C.2    70  TRP70       0.2264
     68  O         -8.6850   -4.2220  -21.0470 O.2    70  TRP70      -0.2867
     69  CB        -9.9320   -3.0850  -18.4570 C.3    70  TRP70       0.0550
     70  CG       -10.6880   -2.1940  -17.5440 C.ar   70  TRP70       0.0003
     71  CD1      -12.0370   -2.1810  -17.3350 C.ar   70  TRP70       0.0946
     72  CD2      -10.1390   -1.1770  -16.6810 C.ar   70  TRP70       0.0152
     73  NE1      -12.3600   -1.2190  -16.4050 N.ar   70  TRP70      -0.2442
     74  CE2      -11.2150   -0.5940  -15.9870 C.ar   70  TRP70       0.0810
     75  CE3       -8.8400   -0.7070  -16.4370 C.ar   70  TRP70       0.0012
     76  CZ2      -11.0410    0.4460  -15.0760 C.ar   70  TRP70       0.0191
     77  CZ3       -8.6640    0.3120  -15.5300 C.ar   70  TRP70       0.0001
     78  CH2       -9.7610    0.8800  -14.8560 C.ar   70  TRP70       0.0015
     79  N         -4.8500   -7.2590  -16.6920 N.3    73  GLU73      -0.1245
     80  CA        -4.8300   -6.9130  -15.2980 C.3    73  GLU73       0.1567
     81  C         -3.5490   -7.4280  -14.6580 C.2    73  GLU73       0.2260
     82  O         -3.1890   -8.5860  -14.8260 O.2    73  GLU73      -0.2867
     83  CB        -6.0340   -7.5720  -14.6310 C.3    73  GLU73       0.0388
     84  CG        -6.5680   -6.8450  -13.4280 C.3    73  GLU73       0.1160
     85  CD        -7.8530   -7.4580  -12.9230 C.2    73  GLU73       0.3649
     86  OE1       -8.9310   -6.8980  -13.2180 O.co2  73  GLU73      -0.2457
     87  OE2       -7.7770   -8.5010  -12.2410 O.co2  73  GLU73      -0.2457
     88  N         -1.7860   -8.1030  -10.8870 N.3    75  ARG75      -0.1245
     89  CA        -2.2620   -8.3790   -9.5450 C.3    75  ARG75       0.1563
     90  C         -1.1300   -8.6510   -8.5580 C.2    75  ARG75       0.2260
     91  O         -0.0870   -9.1860   -8.9160 O.2    75  ARG75      -0.2867
     92  CB        -3.1880   -9.6000   -9.5490 C.3    75  ARG75       0.0307
     93  CG        -4.3180   -9.5190  -10.5620 C.3    75  ARG75       0.0489
     94  CD        -5.1260  -10.8120  -10.6290 C.3    75  ARG75       0.2205
     95  NE        -6.2190  -10.6790  -11.5850 N.pl3  75  ARG75      -0.0865
     96  CZ        -6.9590  -11.6850  -12.0420 C.cat  75  ARG75       0.5346
     97  NH1       -6.7450  -12.9230  -11.6300 N.pl3  75  ARG75       0.1354
     98  NH2       -7.9260  -11.4450  -12.9140 N.pl3  75  ARG75       0.1354
@<TRIPOS>BOND
     1    68    67    2
     2    65    66    1
     3    67    66    1
     4    66    69    1
     5    69    70    1
     6    70    71   ar
     7    70    72   ar
     8    63    62    2
     9    71    73   ar
    10    79    80    1
    11    72    75   ar
    12    72    74   ar
    13    64    62   am
    14    75    77   ar
    15    62    61    1
    16    73    74   ar
    17    74    76   ar
    18    77    78   ar
    19    59    58    1
    20    59    60    2
    21    80    81    1
    22    80    83    1
    23    61    58    1
    24    76    78   ar
    25    58    57    1
    26    82    81    2
    27    83    84    1
    28    84    85    1
    29    86    85   ar
    30    85    87   ar
    31    98    96    1
    32    12    13    1
    33    16    13    1
    34    16    17    1
    35    96    97    1
    36    96    95    2
    37    13    14    1
    38    17    19   ar
    39    17    18   ar
    40    19    21   ar
    41    95    94    1
    42    18    20   ar
    43    15    14    2
    44    88    89    1
    45    55    54    1
    46    21    20   ar
    47    94    93    1
    48    93    92    1
    49    40    38    1
    50    92    89    1
    51    89    90    1
    52    52    53    2
    53    52    51    1
    54    54    56    1
    55    54    51    1
    56    39    38    1
    57    38    37    2
    58    91    90    2
    59    51    50    1
    60    28    27    2
    61    10     9    1
    62    49    48    1
    63    26    27    1
    64    26    23    1
    65    37    36    1
    66    27    29   am
    67    22    23    1
    68    11     9    1
    69     9     8    2
    70    23    24    1
    71    36    35    1
    72    48    47    1
    73    47    46    1
    74    25    24    2
    75     8     7    1
    76     7     6    1
    77    35    34    1
    78    46    45    1
    79    45    42    1
    80    34    31    1
    81     6     5    1
    82     5     2    1
    83    43    44    2
    84    43    42    1
    85    42    41    1
    86    30    31    1
    87    31    32    1
    88     2     3    1
    89     2     1    1
    90     3     4    2
    91    32    33    2
