@<TRIPOS>MOLECULE
tmp/5duwB01.pdb
 117 109 0 0 0
SMALL
GASTEIGER

@<TRIPOS>ATOM
      1  N         81.6590  -16.3700  -33.2270 N.3    31  ARG31      -0.1245
      2  CA        82.6600  -15.9530  -34.2320 C.3    31  ARG31       0.1563
      3  C         82.9230  -14.4700  -34.1250 C.2    31  ARG31       0.2260
      4  O         82.1090  -13.7180  -33.6140 O.2    31  ARG31      -0.2867
      5  CB        82.1510  -16.2250  -35.6540 C.3    31  ARG31       0.0307
      6  CG        81.7600  -17.6640  -35.9440 C.3    31  ARG31       0.0489
      7  CD        81.3560  -17.8630  -37.4030 C.3    31  ARG31       0.2205
      8  NE        81.0580  -19.2760  -37.6810 N.pl3  31  ARG31      -0.0865
      9  CZ        80.6590  -19.7500  -38.8570 C.cat  31  ARG31       0.5346
     10  NH1       80.5200  -18.9420  -39.8930 N.pl3  31  ARG31       0.1354
     11  NH2       80.3990  -21.0390  -38.9960 N.pl3  31  ARG31       0.1354
     12  N         85.1410  -11.4770  -36.9530 N.3    33  PHE33      -0.1241
     13  CA        86.0140  -11.3520  -38.0980 C.3    33  PHE33       0.1605
     14  C         86.6750   -9.9910  -38.1850 C.2    33  PHE33       0.2264
     15  O         86.1800   -8.9800  -37.6430 O.2    33  PHE33      -0.2867
     16  CB        85.2640  -11.6570  -39.4000 C.3    33  PHE33       0.0534
     17  CG        84.1390  -10.6930  -39.7000 C.ar   33  PHE33      -0.0203
     18  CD1       84.3910   -9.4640  -40.2820 C.ar   33  PHE33      -0.0042
     19  CD2       82.8330  -11.0210  -39.3930 C.ar   33  PHE33      -0.0042
     20  CE1       83.3630   -8.5730  -40.5550 C.ar   33  PHE33      -0.0003
     21  CE2       81.7930  -10.1290  -39.6600 C.ar   33  PHE33      -0.0003
     22  CZ        82.0640   -8.9050  -40.2470 C.ar   33  PHE33      -0.0000
     23  N         88.1820   -7.9150  -41.5270 N.3    35  ASN35      -0.1240
     24  CA        88.2950   -7.8440  -42.9780 C.3    35  ASN35       0.1653
     25  C         89.1470   -6.6670  -43.4410 C.2    35  ASN35       0.2266
     26  O         88.9710   -5.5450  -42.9680 O.2    35  ASN35      -0.2867
     27  CB        86.9110   -7.6550  -43.6130 C.3    35  ASN35       0.1155
     28  CG        86.0630   -8.9010  -43.5470 C.2    35  ASN35       0.2627
     29  OD1       86.5680  -10.0010  -43.3270 O.2    35  ASN35      -0.2716
     30  ND2       84.7540   -8.7310  -43.7550 N.am   35  ASN35      -0.0877
     31  N         90.0060  -11.9300  -45.0340 N.3    49  HIS49      -0.1241
     32  CA        89.0060  -12.2160  -44.0170 C.3    49  HIS49       0.1621
     33  C         89.6460  -13.1830  -43.0180 C.2    49  HIS49       0.2264
     34  O         90.0620  -14.2790  -43.3730 O.2    49  HIS49      -0.2867
     35  CB        87.8150  -12.8910  -44.7240 C.3    49  HIS49       0.0745
     36  CG        86.7250  -13.3840  -43.8250 C.ar   49  HIS49       0.0817
     37  ND1       85.8160  -12.5450  -43.2070 N.ar   49  HIS49      -0.2268
     38  CD2       86.3130  -14.6450  -43.5560 C.ar   49  HIS49       0.1154
     39  CE1       84.9140  -13.2770  -42.5640 C.ar   49  HIS49       0.1986
     40  NE2       85.2030  -14.5480  -42.7560 N.ar   49  HIS49      -0.2212
     41  N         88.8760  -15.0250  -39.4800 N.3    51  ASN51      -0.1240
     42  CA        87.5830  -15.4050  -38.9030 C.3    51  ASN51       0.1653
     43  C         87.6930  -16.5450  -37.8790 C.2    51  ASN51       0.2266
     44  O         87.5340  -17.7200  -38.2160 O.2    51  ASN51      -0.2867
     45  CB        86.6680  -15.7610  -40.0720 C.3    51  ASN51       0.1155
     46  CG        85.2430  -16.1480  -39.6580 C.2    51  ASN51       0.2627
     47  OD1       84.6390  -16.9910  -40.3180 O.2    51  ASN51      -0.2716
     48  ND2       84.6970  -15.5270  -38.6440 N.am   51  ASN51      -0.0877
     49  N         86.4380  -19.0750  -35.1970 N.3    53  ARG53      -0.1245
     50  CA        85.1550  -19.7450  -34.9890 C.3    53  ARG53       0.1563
     51  C         85.2150  -20.7570  -33.8410 C.2    53  ARG53       0.2260
     52  O         86.0850  -21.6390  -33.8300 O.2    53  ARG53      -0.2867
     53  CB        84.7690  -20.4980  -36.2510 C.3    53  ARG53       0.0307
     54  CG        84.5850  -19.6120  -37.4680 C.3    53  ARG53       0.0489
     55  CD        84.1210  -20.4480  -38.6370 C.3    53  ARG53       0.2205
     56  NE        83.9420  -19.6460  -39.8530 N.pl3  53  ARG53      -0.0865
     57  CZ        83.5930  -20.1440  -41.0260 C.cat  53  ARG53       0.5346
     58  NH1       83.3610  -21.4420  -41.1480 N.pl3  53  ARG53       0.1354
     59  NH2       83.4730  -19.3350  -42.0840 N.pl3  53  ARG53       0.1354
     60  N         88.5020  -23.2610  -34.5590 N.3    59  LYS59      -0.1245
     61  CA        89.4600  -23.0320  -35.6470 C.3    59  LYS59       0.1561
     62  C         89.4470  -21.5750  -36.0700 C.2    59  LYS59       0.2260
     63  O         88.5950  -20.7970  -35.6560 O.2    59  LYS59      -0.2867
     64  CB        89.1260  -23.8820  -36.8560 C.3    59  LYS59       0.0271
     65  CG        87.8170  -23.4890  -37.5220 C.3    59  LYS59       0.0035
     66  CD        87.6070  -24.3030  -38.8010 C.3    59  LYS59       0.0206
     67  CE        86.1430  -24.5860  -39.1130 C.3    59  LYS59       0.1093
     68  NZ        85.9120  -25.2050  -40.4580 N.3    59  LYS59      -0.1314
     69  N         89.4400  -19.4080  -39.6440 N.3    61  VAL61      -0.1245
     70  CA        89.2980  -19.4560  -41.0960 C.3    61  VAL61       0.1561
     71  C         89.9010  -18.2000  -41.6960 C.2    61  VAL61       0.2260
     72  O         89.7630  -17.1120  -41.1330 O.2    61  VAL61      -0.2867
     73  CB        87.8100  -19.5850  -41.4930 C.3    61  VAL61       0.0252
     74  CG1       87.6140  -19.4610  -42.9910 C.3    61  VAL61       0.0019
     75  CG2       87.2520  -20.9120  -40.9950 C.3    61  VAL61       0.0019
     76  N         90.3270  -16.2970  -45.6010 N.3    63  ASN63      -0.1240
     77  CA        89.8850  -16.3610  -46.9870 C.3    63  ASN63       0.1653
     78  C         89.8680  -14.9730  -47.6290 C.2    63  ASN63       0.2266
     79  O         90.1860  -13.9650  -46.9880 O.2    63  ASN63      -0.2867
     80  CB        88.4940  -16.9960  -47.0700 C.3    63  ASN63       0.1155
     81  CG        88.2380  -17.7630  -48.3740 C.2    63  ASN63       0.2627
     82  OD1       89.0120  -17.7100  -49.3260 O.2    63  ASN63      -0.2716
     83  ND2       87.0780  -18.4030  -48.4370 N.am   63  ASN63      -0.0877
     84  N         83.6800  -16.3080  -52.5460 N.3    70  TRP70      -0.1241
     85  CA        84.6900  -16.7110  -51.5850 C.3    70  TRP70       0.1605
     86  C         85.6490  -17.7130  -52.2140 C.2    70  TRP70       0.2264
     87  O         85.2340  -18.6190  -52.9610 O.2    70  TRP70      -0.2867
     88  CB        84.0310  -17.3130  -50.3500 C.3    70  TRP70       0.0550
     89  CG        83.4150  -16.2990  -49.4540 C.ar   70  TRP70       0.0003
     90  CD1       82.0980  -16.0900  -49.2500 C.ar   70  TRP70       0.0946
     91  CD2       84.1090  -15.3620  -48.6160 C.ar   70  TRP70       0.0152
     92  NE1       81.9060  -15.0890  -48.3350 N.ar   70  TRP70      -0.2442
     93  CE2       83.1340  -14.6220  -47.9290 C.ar   70  TRP70       0.0810
     94  CE3       85.4630  -15.0790  -48.3770 C.ar   70  TRP70       0.0012
     95  CZ2       83.4570  -13.6060  -47.0420 C.ar   70  TRP70       0.0191
     96  CZ3       85.7830  -14.0750  -47.4600 C.ar   70  TRP70       0.0001
     97  CH2       84.8000  -13.3610  -46.8080 C.ar   70  TRP70       0.0015
     98  N         89.0700  -21.6630  -48.6250 N.3    73  GLU73      -0.1245
     99  CA        89.4230  -21.3280  -47.2690 C.3    73  GLU73       0.1567
    100  C         90.7260  -21.9690  -46.8700 C.2    73  GLU73       0.2260
    101  O         91.0120  -23.1170  -47.2160 O.2    73  GLU73      -0.2867
    102  CB        88.3600  -21.8130  -46.2790 C.3    73  GLU73       0.0388
    103  CG        87.0730  -21.0730  -46.3560 C.3    73  GLU73       0.1160
    104  CD        86.0470  -21.5760  -45.3550 C.2    73  GLU73       0.3649
    105  OE1       85.0270  -20.8870  -45.2410 O.co2  73  GLU73      -0.2457
    106  OE2       86.2640  -22.6280  -44.6920 O.co2  73  GLU73      -0.2457
    107  N         92.5140  -22.8790  -43.1550 N.3    75  ARG75      -0.1245
    108  CA        92.0370  -23.0490  -41.7950 C.3    75  ARG75       0.1563
    109  C         93.1900  -23.4890  -40.9320 C.2    75  ARG75       0.2260
    110  O         94.0240  -24.2900  -41.3510 O.2    75  ARG75      -0.2867
    111  CB        90.9510  -24.1140  -41.7300 C.3    75  ARG75       0.0307
    112  CG        89.7370  -23.7700  -42.5650 C.3    75  ARG75       0.0489
    113  CD        88.5800  -24.6930  -42.2740 C.3    75  ARG75       0.2205
    114  NE        87.5970  -24.6190  -43.3390 N.pl3  75  ARG75      -0.0865
    115  CZ        87.6500  -25.3740  -44.4340 C.cat  75  ARG75       0.5346
    116  NH1       88.6420  -26.2470  -44.6100 N.pl3  75  ARG75       0.1354
    117  NH2       86.7070  -25.2550  -45.3610 N.pl3  75  ARG75       0.1354
@<TRIPOS>BOND
     1    87    86    2
     2    84    85    1
     3    86    85    1
     4    85    88    1
     5    88    89    1
     6    89    90   ar
     7    89    91   ar
     8    82    81    2
     9    90    92   ar
    10    98    99    1
    11    91    94   ar
    12    91    93   ar
    13    83    81   am
    14    94    96   ar
    15    81    80    1
    16    92    93   ar
    17    93    95   ar
    18    78    79    2
    19    78    77    1
    20    96    97   ar
    21    99   100    1
    22    99   102    1
    23   101   100    2
    24    80    77    1
    25    95    97   ar
    26    77    76    1
    27   103   102    1
    28   103   104    1
    29   117   115    1
    30   104   105   ar
    31   104   106   ar
    32    31    32    1
    33    35    32    1
    34    35    36    1
    35   116   115    1
    36   115   114    2
    37    32    33    1
    38    36    38   ar
    39    36    37   ar
    40    30    28   am
    41    27    28    1
    42    27    24    1
    43    38    40   ar
    44    28    29    2
    45    25    24    1
    46    25    26    2
    47    34    33    2
    48   114   113    1
    49    37    39   ar
    50   107   108    1
    51    74    73    1
    52    24    23    1
    53    40    39   ar
    54   112   113    1
    55   112   111    1
    56    59    57    1
    57   108   111    1
    58   108   109    1
    59    71    72    2
    60    71    70    1
    61    73    70    1
    62    73    75    1
    63   110   109    2
    64    58    57    1
    65    70    69    1
    66    57    56    2
    67    20    18   ar
    68    20    22   ar
    69    68    67    1
    70    47    46    2
    71    18    17   ar
    72    22    21   ar
    73    45    46    1
    74    45    42    1
    75    10     9    1
    76    56    55    1
    77    17    16    1
    78    17    19   ar
    79    21    19   ar
    80    46    48   am
    81    41    42    1
    82    16    13    1
    83    67    66    1
    84    11     9    1
    85    42    43    1
    86     9     8    2
    87    66    65    1
    88    55    54    1
    89    44    43    2
    90    14    13    1
    91    14    15    2
    92    13    12    1
    93     8     7    1
    94    65    64    1
    95    54    53    1
    96     7     6    1
    97    64    61    1
    98    53    50    1
    99    62    63    2
   100    62    61    1
   101     6     5    1
   102     5     2    1
   103    61    60    1
   104    49    50    1
   105    50    51    1
   106     2     3    1
   107     2     1    1
   108     3     4    2
   109    51    52    2
