@<TRIPOS>MOLECULE
tmp/5dv2A00.pdb
 171 164 0 0 0
SMALL
GASTEIGER

@<TRIPOS>ATOM
      1  N        -31.9020    5.6170    7.0880 N.3    25  LEU25      -0.1245
      2  CA       -30.5610    5.9300    7.5990 C.3    25  LEU25       0.1561
      3  C        -29.5070    5.6230    6.5450 C.2    25  LEU25       0.2260
      4  O        -29.1370    4.4620    6.3290 O.2    25  LEU25      -0.2867
      5  CB       -30.2490    5.1950    8.9140 C.3    25  LEU25       0.0270
      6  CG       -28.7990    5.4150    9.4090 C.3    25  LEU25       0.0019
      7  CD1      -28.5050    6.9070    9.7190 C.3    25  LEU25       0.0001
      8  CD2      -28.4980    4.5670   10.6490 C.3    25  LEU25       0.0001
      9  N        -24.2150    8.5740    7.1220 N.3    29  TYR29      -0.1241
     10  CA       -24.3950    8.9240    8.5270 C.3    29  TYR29       0.1605
     11  C        -24.2990    7.7330    9.4670 C.2    29  TYR29       0.2264
     12  O        -24.2810    7.9270   10.6890 O.2    29  TYR29      -0.2867
     13  CB       -25.7510    9.5950    8.7370 C.3    29  TYR29       0.0534
     14  CG       -25.9700   10.8320    7.8990 C.ar   29  TYR29      -0.0201
     15  CD1      -24.9030   11.6460    7.5270 C.ar   29  TYR29      -0.0009
     16  CD2      -27.2530   11.1870    7.4770 C.ar   29  TYR29      -0.0009
     17  CE1      -25.1060   12.7750    6.7580 C.ar   29  TYR29       0.0417
     18  CE2      -27.4640   12.3100    6.7060 C.ar   29  TYR29       0.0417
     19  CZ       -26.3890   13.1010    6.3510 C.ar   29  TYR29       0.1957
     20  OH       -26.6100   14.2230    5.5860 O.3    29  TYR29      -0.2866
     21  N        -23.3000    6.0830   16.2290 N.3    35  TYR35      -0.1241
     22  CA       -24.0040    4.8610   16.6370 C.3    35  TYR35       0.1605
     23  C        -23.0220    3.8320   17.1760 C.2    35  TYR35       0.2264
     24  O        -23.0040    2.6690   16.7630 O.2    35  TYR35      -0.2867
     25  CB       -24.8150    4.2790   15.4790 C.3    35  TYR35       0.0534
     26  CG       -25.7600    5.2830   14.8550 C.ar   35  TYR35      -0.0201
     27  CD1      -26.9580    5.6110   15.4800 C.ar   35  TYR35      -0.0009
     28  CD2      -25.4400    5.9250   13.6610 C.ar   35  TYR35      -0.0009
     29  CE1      -27.8200    6.5360   14.9280 C.ar   35  TYR35       0.0417
     30  CE2      -26.2960    6.8590   13.0990 C.ar   35  TYR35       0.0417
     31  CZ       -27.4800    7.1650   13.7400 C.ar   35  TYR35       0.1957
     32  OH       -28.3510    8.0850   13.1960 O.3    35  TYR35      -0.2866
     33  N        -33.4230    9.8470    3.1910 N.3    68  GLU68      -0.1245
     34  CA       -32.0260    9.3890    3.2650 C.3    68  GLU68       0.1567
     35  C        -31.7620    8.2530    2.2800 C.2    68  GLU68       0.2260
     36  O        -31.0230    7.3100    2.5700 O.2    68  GLU68      -0.2867
     37  CB       -31.6240    8.9920    4.7000 C.3    68  GLU68       0.0388
     38  CG       -31.6700   10.1980    5.6350 C.3    68  GLU68       0.1160
     39  CD       -30.9450   10.0160    6.9590 C.2    68  GLU68       0.3649
     40  OE1      -30.0300    9.1830    7.0650 O.co2  68  GLU68      -0.2457
     41  OE2      -31.3050   10.7290    7.9100 O.co2  68  GLU68      -0.2457
     42  N        -37.7650   15.9940    4.1350 N.3   177  HIS177     -0.1241
     43  CA       -36.8340   15.6840    5.2090 C.3   177  HIS177      0.1621
     44  C        -36.2350   17.0160    5.6450 C.2   177  HIS177      0.2264
     45  O        -35.4140   17.5910    4.9200 O.2   177  HIS177     -0.2867
     46  CB       -35.7600   14.7090    4.7350 C.3   177  HIS177      0.0745
     47  CG       -34.7910   14.2940    5.8040 C.ar  177  HIS177      0.0817
     48  ND1      -33.7290   13.4520    5.5500 N.ar  177  HIS177     -0.2268
     49  CD2      -34.7320   14.5870    7.1250 C.ar  177  HIS177      0.1154
     50  CE1      -33.0560   13.2450    6.6680 C.ar  177  HIS177      0.1986
     51  NE2      -33.6440   13.9210    7.6390 N.ar  177  HIS177     -0.2212
     52  N        -32.3040   19.1210   10.9120 N.3   180  TRP180     -0.1241
     53  CA       -32.3600   18.2700   12.1020 C.3   180  TRP180      0.1605
     54  C        -32.0990   19.0140   13.4120 C.2   180  TRP180      0.2264
     55  O        -32.6170   18.6040   14.4600 O.2   180  TRP180     -0.2867
     56  CB       -31.3300   17.1340   11.9720 C.3   180  TRP180      0.0550
     57  CG       -29.9250   17.6880   11.9340 C.ar  180  TRP180      0.0003
     58  CD1      -29.2490   18.1240   10.8330 C.ar  180  TRP180      0.0946
     59  CD2      -29.0580   17.9150   13.0560 C.ar  180  TRP180      0.0152
     60  NE1      -28.0110   18.5920   11.1970 N.ar  180  TRP180     -0.2442
     61  CE2      -27.8660   18.4730   12.5550 C.ar  180  TRP180      0.0810
     62  CE3      -29.1640   17.6730   14.4310 C.ar  180  TRP180      0.0012
     63  CZ2      -26.7920   18.8140   13.3800 C.ar  180  TRP180      0.0191
     64  CZ3      -28.0940   18.0160   15.2490 C.ar  180  TRP180      0.0001
     65  CH2      -26.9250   18.5810   14.7190 C.ar  180  TRP180      0.0015
     66  N        -31.7860   20.7020   16.8040 N.3   182  PRO182     -0.2116
     67  CA       -32.8140   21.1650   17.7500 C.3   182  PRO182      0.1372
     68  C        -32.7310   22.6420   18.0700 C.2   182  PRO182      0.2244
     69  O        -33.7100   23.1980   18.5740 O.2   182  PRO182     -0.2868
     70  CB       -32.5620   20.3070   19.0010 C.3   182  PRO182      0.0268
     71  CG       -31.1630   19.8490   18.8750 C.3   182  PRO182      0.0207
     72  CD       -30.9150   19.6730   17.4010 C.3   182  PRO182      0.0892
     73  N        -36.8730   24.6760   10.8270 N.3   188  LYS188     -0.1245
     74  CA       -37.8000   23.5630   10.6050 C.3   188  LYS188      0.1561
     75  C        -39.2030   24.0670   10.2780 C.2   188  LYS188      0.2260
     76  O        -39.8500   23.5760    9.3410 O.2   188  LYS188     -0.2867
     77  CB       -37.8360   22.6560   11.8380 C.3   188  LYS188      0.0271
     78  CG       -36.4710   22.0750   12.2110 C.3   188  LYS188      0.0035
     79  CD       -36.4990   21.3300   13.5370 C.3   188  LYS188      0.0206
     80  CE       -35.1180   20.7640   13.8660 C.3   188  LYS188      0.1093
     81  NZ       -35.1340   19.9230   15.0930 N.3   188  LYS188     -0.1314
     82  N        -39.9500   13.2630    7.4970 N.3   215  ASP215     -0.1239
     83  CA       -39.1020   13.3490    8.6770 C.3   215  ASP215      0.1674
     84  C        -39.0200   14.8460    8.9770 C.2   215  ASP215      0.2266
     85  O        -38.2120   15.5680    8.3850 O.2   215  ASP215     -0.2867
     86  CB       -37.7290   12.7330    8.4160 C.3   215  ASP215      0.1410
     87  CG       -36.8140   12.7990    9.6300 C.2   215  ASP215      0.3668
     88  OD1      -37.1690   13.4800   10.6220 O.co2 215  ASP215     -0.2456
     89  OD2      -35.7270   12.1730    9.6010 O.co2 215  ASP215     -0.2456
     90  N        -38.2920   16.1270   11.9180 N.3   217  ASN217     -0.1225
     91  CA       -37.3370   16.4140   12.9890 C.3   217  ASN217      0.1785
     92  C        -37.9700   17.3080   14.0500 C.2   217  ASN217      0.2598
     93  O        -37.2880   18.0930   14.7120 O.2   217  ASN217     -0.2718
     94  CB       -36.0530   17.0310   12.4240 C.3   217  ASN217      0.1169
     95  CG       -35.0470   15.9650   12.0140 C.2   217  ASN217      0.2627
     96  OD1      -34.7090   15.0960   12.8080 O.2   217  ASN217     -0.2716
     97  ND2      -34.5770   16.0260   10.7810 N.am  217  ASN217     -0.0877
     98  N        -39.2860   17.1550   14.2300 N.am  218  SER218     -0.1938
     99  CA       -40.0900   18.0020   15.1000 C.3   218  SER218      0.2055
    100  C        -40.9740   17.1230   15.9710 C.2   218  SER218      0.2642
    101  O        -41.6830   16.2420   15.4640 O.2   218  SER218     -0.2714
    102  CB       -40.9480   18.9770   14.2800 C.3   218  SER218      0.2130
    103  OG       -40.1410   19.8030   13.4550 O.3   218  SER218     -0.2179
    104  N        -40.9220   17.3660   17.2780 N.am  219  LEU219     -0.1977
    105  CA       -41.7240   16.6290   18.2320 C.3   219  LEU219      0.1596
    106  C        -43.1840   17.0760   18.1480 C.2   219  LEU219      0.2287
    107  O        -43.4830   18.1400   17.6000 O.2   219  LEU219     -0.2864
    108  CB       -41.1690   16.8320   19.6430 C.3   219  LEU219      0.0297
    109  CG       -39.8040   16.1860   19.9120 C.3   219  LEU219      0.0022
    110  CD1      -39.2220   16.7180   21.2060 C.3   219  LEU219      0.0001
    111  CD2      -39.9240   14.6590   19.9550 C.3   219  LEU219      0.0001
    112  N        -38.0250    7.8760   16.0680 N.3   274  ASN274     -0.1240
    113  CA       -36.5640    7.8970   16.0330 C.3   274  ASN274      0.1653
    114  C        -36.1030    7.3920   17.3890 C.2   274  ASN274      0.2266
    115  O        -36.5820    7.8740   18.4200 O.2   274  ASN274     -0.2867
    116  CB       -36.0640    9.3240   15.7550 C.3   274  ASN274      0.1155
    117  CG       -34.5370    9.4460   15.6830 C.2   274  ASN274      0.2627
    118  OD1      -33.9970   10.4050   16.2010 O.2   274  ASN274     -0.2716
    119  ND2      -33.8590    8.5230   14.9980 N.am  274  ASN274     -0.0877
    120  N        -32.6980    6.4310   19.4150 N.3   276  THR276     -0.1218
    121  CA       -31.2540    6.3850   19.6060 C.3   276  THR276      0.1862
    122  C        -30.9540    6.5190   21.0900 C.2   276  THR276      0.2287
    123  O        -31.8290    6.8640   21.8920 O.2   276  THR276     -0.2866
    124  CB       -30.5260    7.4950   18.8260 C.3   276  THR276      0.1770
    125  OG1      -30.8190    8.7640   19.4220 O.3   276  THR276     -0.2211
    126  CG2      -30.9610    7.5150   17.3700 C.3   276  THR276      0.0375
    127  N        -29.1830    8.7940   22.6330 N.3   278  ASP278     -0.1225
    128  CA       -29.2950   10.1780   23.0890 C.3   278  ASP278      0.1805
    129  C        -30.6690   10.7940   22.8480 C.2   278  ASP278      0.2597
    130  O        -31.0060   11.7720   23.5150 O.2   278  ASP278     -0.2718
    131  CB       -28.2370   11.0540   22.3990 C.3   278  ASP278      0.1424
    132  CG       -26.8090   10.6970   22.8130 C.2   278  ASP278      0.3668
    133  OD1      -26.5840   10.3790   23.9970 O.co2 278  ASP278     -0.2456
    134  OD2      -25.9100   10.7410   21.9480 O.co2 278  ASP278     -0.2456
    135  N        -31.4590   10.2700   21.9120 N.am  279  PHE279     -0.1976
    136  CA       -32.7100   10.9160   21.5200 C.3   279  PHE279      0.1639
    137  C        -33.7330    9.8720   21.1030 C.2   279  PHE279      0.2290
    138  O        -33.4710    9.0730   20.1980 O.2   279  PHE279     -0.2864
    139  CB       -32.5050   11.8960   20.3520 C.3   279  PHE279      0.0560
    140  CG       -33.7740   12.5800   19.9090 C.ar  279  PHE279     -0.0200
    141  CD1      -34.1670   13.7800   20.4870 C.ar  279  PHE279     -0.0042
    142  CD2      -34.5740   12.0240   18.9150 C.ar  279  PHE279     -0.0042
    143  CE1      -35.3300   14.4100   20.0870 C.ar  279  PHE279     -0.0003
    144  CE2      -35.7470   12.6490   18.5170 C.ar  279  PHE279     -0.0003
    145  CZ       -36.1220   13.8440   19.1020 C.ar  279  PHE279     -0.0000
    146  N        -40.8140   12.0920   15.4410 N.3   283  ILE283     -0.1245
    147  CA       -40.3920   13.1960   14.5780 C.3   283  ILE283      0.1561
    148  C        -40.7150   12.8940   13.1190 C.2   283  ILE283      0.2260
    149  O        -40.4080   13.7030   12.2310 O.2   283  ILE283     -0.2867
    150  CB       -38.8880   13.5150   14.7410 C.3   283  ILE283      0.0252
    151  CG1      -38.0030   12.2980   14.4100 C.3   283  ILE283      0.0019
    152  CG2      -38.5990   14.0400   16.1510 C.3   283  ILE283      0.0019
    153  CD1      -36.4490   12.6310   14.4800 C.3   283  ILE283      0.0001
    154  N        -32.2150    3.8680   12.5230 N.3   323  ASP323     -0.1225
    155  CA       -32.5550    4.5260   13.7760 C.3   323  ASP323      0.1805
    156  C        -33.9590    5.1100   13.7590 C.2   323  ASP323      0.2597
    157  O        -34.3830    5.7110   14.7560 O.2   323  ASP323     -0.2718
    158  CB       -31.5380    5.6230   14.1110 C.3   323  ASP323      0.1424
    159  CG       -31.4780    6.7250   13.0560 C.2   323  ASP323      0.3668
    160  OD1      -31.6670    6.4550   11.8490 O.co2 323  ASP323     -0.2456
    161  OD2      -31.2420    7.8830   13.4480 O.co2 323  ASP323     -0.2456
    162  N        -34.6850    4.9640   12.6590 N.am  324  HIS324     -0.1975
    163  CA       -36.0990    5.2960   12.6210 C.3   324  HIS324      0.1656
    164  C        -36.9150    4.0250   12.4280 C.2   324  HIS324      0.2291
    165  O        -36.4780    3.0870   11.7580 O.2   324  HIS324     -0.2864
    166  CB       -36.4300    6.2660   11.4820 C.3   324  HIS324      0.0771
    167  CG       -35.8610    7.6460   11.6520 C.ar  324  HIS324      0.0820
    168  ND1      -36.6510    8.7450   11.9200 N.ar  324  HIS324     -0.2267
    169  CD2      -34.5900    8.1130   11.5480 C.ar  324  HIS324      0.1154
    170  CE1      -35.8900    9.8310   11.9900 C.ar  324  HIS324      0.1986
    171  NE2      -34.6370    9.4770   11.7590 N.ar  324  HIS324     -0.2212
@<TRIPOS>BOND
     1    35    36    2
     2    35    34    1
     3    33    34    1
     4    34    37    1
     5    42    43    1
     6    37    38    1
     7    46    43    1
     8    46    47    1
     9    45    44    2
    10    43    44    1
    11    48    47   ar
    12    48    50   ar
    13    20    19    1
    14    38    39    1
    15    47    49   ar
    16     4     3    2
    17    19    18   ar
    18    19    17   ar
    19     3     2    1
    20    50    51   ar
    21    18    16   ar
    22    17    15   ar
    23    39    40   ar
    24    39    41   ar
    25     1     2    1
    26     9    10    1
    27    49    51   ar
    28    16    14   ar
    29    82    83    1
    30    15    14   ar
    31     2     5    1
    32    14    13    1
    33    85    84    2
    34    86    83    1
    35    86    87    1
    36    10    13    1
    37    10    11    1
    38    83    84    1
    39     5     6    1
    40    76    75    2
    41     6     7    1
    42     6     8    1
    43    11    12    2
    44    89    87   ar
    45    87    88   ar
    46    75    74    1
    47    74    73    1
    48    74    77    1
    49    97    95   am
    50    58    60   ar
    51    58    57   ar
    52    52    53    1
    53    60    61   ar
    54   166   167    1
    55   166   163    1
    56   169   167   ar
    57   169   171   ar
    58   167   168   ar
    59   165   164    2
    60   171   170   ar
    61    77    78    1
    62   160   159   ar
    63    90    91    1
    64   168   170   ar
    65    57    56    1
    66    57    59   ar
    67    56    53    1
    68    95    94    1
    69    95    96    2
    70    53    54    1
    71    78    79    1
    72   149   148    2
    73    94    91    1
    74   164   163    1
    75   154   155    1
    76    61    59   ar
    77    61    63   ar
    78   163   162    1
    79   162   156   am
    80    91    92    1
    81   159   161   ar
    82   159   158    1
    83    59    62   ar
    84    30    28   ar
    85    30    31   ar
    86   148   147    1
    87    32    31    1
    88    63    65   ar
    89    54    55    2
    90   103   102    1
    91    79    80    1
    92    28    26   ar
    93    31    29   ar
    94   156   155    1
    95   156   157    2
    96   155   158    1
    97    80    81    1
    98    92    98   am
    99    92    93    2
   100    98    99    1
   101   102    99    1
   102   151   153    1
   103   151   150    1
   104    62    64   ar
   105   147   150    1
   106   147   146    1
   107    65    64   ar
   108   150   152    1
   109    26    25    1
   110    26    27   ar
   111    29    27   ar
   112   119   117   am
   113    99   100    1
   114   101   100    2
   115    25    22    1
   116   117   116    1
   117   117   118    2
   118   116   113    1
   119   100   104   am
   120   113   112    1
   121   113   114    1
   122    21    22    1
   123    22    23    1
   124    24    23    2
   125    66    72    1
   126    66    67    1
   127   104   105    1
   128   126   124    1
   129   114   115    2
   130    72    71    1
   131   107   106    2
   132    67    68    1
   133    67    70    1
   134    68    69    2
   135   106   105    1
   136   105   108    1
   137   144   142   ar
   138   144   145   ar
   139   124   125    1
   140   124   121    1
   141    71    70    1
   142   142   140   ar
   143   145   143   ar
   144   120   121    1
   145   121   122    1
   146   108   109    1
   147   140   139    1
   148   140   141   ar
   149   109   111    1
   150   109   110    1
   151   143   141   ar
   152   138   137    2
   153   139   136    1
   154   122   123    2
   155   137   136    1
   156   136   135    1
   157   135   129   am
   158   134   132   ar
   159   131   132    1
   160   131   128    1
   161   127   128    1
   162   132   133   ar
   163   129   128    1
   164   129   130    2
