@<TRIPOS>MOLECULE
tmp/5dv3A01.pdb
 223 209 0 0 0
SMALL
GASTEIGER

@<TRIPOS>ATOM
      1  N        -24.8140   36.2340  -25.0910 N.3    57  ILE57      -0.1245
      2  CA       -24.1040   34.9410  -25.1720 C.3    57  ILE57       0.1561
      3  C        -22.6490   35.0580  -24.6830 C.2    57  ILE57       0.2260
      4  O        -21.9290   36.0140  -25.0060 O.2    57  ILE57      -0.2867
      5  CB       -24.1800   34.2820  -26.5930 C.3    57  ILE57       0.0252
      6  CG1      -24.2370   32.7490  -26.4830 C.3    57  ILE57       0.0019
      7  CG2      -23.0040   34.6790  -27.4930 C.3    57  ILE57       0.0019
      8  CD1      -24.7220   32.0390  -27.7340 C.3    57  ILE57       0.0001
      9  N        -23.9040   28.3960  -32.8110 N.3    67  ILE67      -0.1231
     10  CA       -24.4580   27.8340  -31.5630 C.3    67  ILE67       0.1692
     11  C        -23.5920   26.7120  -31.0220 C.2    67  ILE67       0.2592
     12  O        -23.2790   26.7010  -29.8380 O.2    67  ILE67      -0.2718
     13  CB       -25.9050   27.3150  -31.7230 C.3    67  ILE67       0.0266
     14  CG1      -26.8590   28.5020  -31.8770 C.3    67  ILE67       0.0019
     15  CG2      -26.3430   26.4780  -30.5080 C.3    67  ILE67       0.0020
     16  CD1      -28.2950   28.1350  -32.2200 C.3    67  ILE67       0.0001
     17  N        -23.2090   25.7800  -31.8870 N.am   68  PHE68      -0.1976
     18  CA       -22.3490   24.6510  -31.5040 C.3    68  PHE68       0.1639
     19  C        -20.9770   25.1060  -31.0280 C.2    68  PHE68       0.2290
     20  O        -20.3810   24.4630  -30.1870 O.2    68  PHE68      -0.2864
     21  CB       -22.2000   23.6900  -32.6860 C.3    68  PHE68       0.0560
     22  CG       -21.3750   22.4620  -32.3910 C.ar   68  PHE68      -0.0200
     23  CD1      -20.0050   22.4600  -32.6090 C.ar   68  PHE68      -0.0042
     24  CD2      -21.9730   21.2990  -31.9170 C.ar   68  PHE68      -0.0042
     25  CE1      -19.2530   21.3260  -32.3590 C.ar   68  PHE68      -0.0003
     26  CE2      -21.2210   20.1620  -31.6600 C.ar   68  PHE68      -0.0003
     27  CZ       -19.8620   20.1750  -31.8910 C.ar   68  PHE68      -0.0000
     28  N        -20.3830   28.1000  -29.4930 N.3    70  GLY70      -0.1210
     29  CA       -20.7280   28.5670  -28.1490 C.3    70  GLY70       0.1956
     30  C        -20.9170   27.4250  -27.1580 C.2    70  GLY70       0.2612
     31  O        -20.4220   27.4740  -26.0420 O.2    70  GLY70      -0.2717
     32  N        -21.6240   26.3880  -27.5830 N.am   71  CYS71      -0.1956
     33  CA       -21.7840   25.1800  -26.7920 C.3    71  CYS71       0.1843
     34  C        -20.4130   24.4820  -26.5650 C.2    71  CYS71       0.2625
     35  O        -20.1520   23.8980  -25.5140 O.2    71  CYS71      -0.2714
     36  CB       -22.8350   24.2870  -27.4820 C.3    71  CYS71       0.0997
     37  SG       -23.2740   22.7650  -26.7020 S.3    71  CYS71      -0.0797
     38  N        -19.5240   24.5890  -27.5290 N.am   72  GLN72      -0.1977
     39  CA       -18.1970   23.9890  -27.4350 C.3    72  GLN72       0.1601
     40  C        -17.2580   24.7330  -26.4750 C.2    72  GLN72       0.2287
     41  O        -16.4330   24.1440  -25.8090 O.2    72  GLN72      -0.2864
     42  CB       -17.5780   23.9830  -28.8260 C.3    72  GLN72       0.0394
     43  CG       -16.5850   22.8770  -29.0660 C.3    72  GLN72       0.0908
     44  CD       -15.8030   23.1030  -30.3340 C.2    72  GLN72       0.2608
     45  OE1      -14.5900   23.2150  -30.2910 O.2    72  GLN72      -0.2717
     46  NE2      -16.4910   23.2030  -31.4640 N.am   72  GLN72      -0.0878
     47  N        -18.1440   26.4700  -23.7700 N.3    74  ARG74      -0.1231
     48  CA       -18.5760   26.1400  -22.4170 C.3    74  ARG74       0.1694
     49  C        -18.1860   24.7210  -22.0060 C.2    74  ARG74       0.2592
     50  O        -17.8540   24.4760  -20.8460 O.2    74  ARG74      -0.2718
     51  CB       -20.0840   26.3750  -22.2770 C.3    74  ARG74       0.0321
     52  CG       -20.6980   25.9250  -20.9530 C.3    74  ARG74       0.0489
     53  CD       -20.0400   26.4990  -19.6970 C.3    74  ARG74       0.2205
     54  NE       -20.1760   25.5950  -18.5470 N.pl3  74  ARG74      -0.0865
     55  CZ       -19.5070   25.6850  -17.3930 C.cat  74  ARG74       0.5346
     56  NH1      -18.6080   26.6570  -17.1670 N.pl3  74  ARG74       0.1354
     57  NH2      -19.7540   24.7850  -16.4440 N.pl3  74  ARG74       0.1354
     58  N        -18.2200   23.7960  -22.9570 N.am   75  SER75      -0.1952
     59  CA       -17.7600   22.4170  -22.7480 C.3    75  SER75       0.1924
     60  C        -16.3300   22.3380  -22.2470 C.2    75  SER75       0.2314
     61  O        -16.0400   21.6130  -21.3040 O.2    75  SER75      -0.2863
     62  CB       -17.8740   21.6340  -24.0510 C.3    75  SER75       0.2116
     63  OG       -17.7040   20.2580  -23.8040 O.3    75  SER75      -0.2180
     64  N        -16.0910   23.3740  -18.6950 N.3    78  ALA78      -0.1245
     65  CA       -16.6250   22.3030  -17.8760 C.3    78  ALA78       0.1562
     66  C        -15.5400   21.2770  -17.5910 C.2    78  ALA78       0.2260
     67  O        -15.3700   20.8570  -16.4340 O.2    78  ALA78      -0.2867
     68  CB       -17.8400   21.6700  -18.5400 C.3    78  ALA78       0.0290
     69  N        -17.6590   13.3390  -20.1130 N.3   109  HIS109     -0.1241
     70  CA       -18.9200   13.3710  -20.8790 C.3   109  HIS109      0.1621
     71  C        -20.1120   12.8790  -20.0900 C.2   109  HIS109      0.2264
     72  O        -21.2220   13.3760  -20.2590 O.2   109  HIS109     -0.2867
     73  CB       -18.7810   12.5750  -22.1730 C.3   109  HIS109      0.0745
     74  CG       -17.7870   13.1780  -23.1050 C.ar  109  HIS109      0.0817
     75  ND1      -16.7100   12.4860  -23.6140 N.ar  109  HIS109     -0.2268
     76  CD2      -17.6690   14.4500  -23.5520 C.ar  109  HIS109      0.1154
     77  CE1      -15.9920   13.3010  -24.3690 C.ar  109  HIS109      0.1986
     78  NE2      -16.5520   14.4990  -24.3460 N.ar  109  HIS109     -0.2212
     79  N        -20.7310   15.7760  -17.8060 N.3   112  ILE112     -0.1245
     80  CA       -21.2280   16.9410  -18.5390 C.3   112  ILE112      0.1561
     81  C        -22.7280   16.7960  -18.7030 C.2   112  ILE112      0.2260
     82  O        -23.4760   17.7210  -18.4690 O.2   112  ILE112     -0.2867
     83  CB       -20.5030   17.0810  -19.9040 C.3   112  ILE112      0.0252
     84  CG1      -19.1690   17.8110  -19.7090 C.3   112  ILE112      0.0019
     85  CG2      -21.3450   17.8240  -20.9330 C.3   112  ILE112      0.0019
     86  CD1      -18.1630   17.5500  -20.8130 C.3   112  ILE112      0.0001
     87  N        -24.1850   17.4920  -15.3310 N.3   115  MET115     -0.1230
     88  CA       -24.1880   18.9420  -15.1520 C.3   115  MET115      0.1702
     89  C        -25.2870   19.6300  -15.9630 C.2   115  MET115      0.2592
     90  O        -26.0750   20.3920  -15.4230 O.2   115  MET115     -0.2718
     91  CB       -22.8480   19.5320  -15.5910 C.3   115  MET115      0.0401
     92  CG       -21.6690   19.3040  -14.6490 C.3   115  MET115      0.0596
     93  SD       -20.1090   19.7310  -15.4830 S.3   115  MET115     -0.1393
     94  CE       -20.2730   21.5080  -15.6170 C.3   115  MET115      0.0692
     95  N        -25.3220   19.3720  -17.2620 N.am  116  LEU116     -0.1980
     96  CA       -26.4010   19.8760  -18.1140 C.3   116  LEU116      0.1596
     97  C        -27.7780   19.6330  -17.5200 C.2   116  LEU116      0.2287
     98  O        -28.6090   20.5200  -17.5310 O.2   116  LEU116     -0.2864
     99  CB       -26.3730   19.2410  -19.5110 C.3   116  LEU116      0.0297
    100  CG       -25.3700   19.8000  -20.4910 C.3   116  LEU116      0.0022
    101  CD1      -25.3780   18.9530  -21.7450 C.3   116  LEU116      0.0001
    102  CD2      -25.6930   21.2330  -20.8420 C.3   116  LEU116      0.0001
    103  N        -29.0340   22.1920  -15.3730 N.3   119  LEU119     -0.1245
    104  CA       -29.4080   23.3640  -16.1740 C.3   119  LEU119      0.1561
    105  C        -30.6080   23.2250  -17.1100 C.2   119  LEU119      0.2260
    106  O        -31.0110   24.2110  -17.7200 O.2   119  LEU119     -0.2867
    107  CB       -28.2360   23.7990  -17.0500 C.3   119  LEU119      0.0270
    108  CG       -26.8920   24.0060  -16.3450 C.3   119  LEU119      0.0019
    109  CD1      -25.8560   24.4760  -17.3550 C.3   119  LEU119      0.0001
    110  CD2      -26.9980   24.9700  -15.1730 C.3   119  LEU119      0.0001
    111  N        -32.6960   24.9440  -21.8840 N.3   125  VAL125     -0.1231
    112  CA       -31.4680   24.9100  -21.0840 C.3   125  VAL125      0.1692
    113  C        -30.9700   26.3110  -20.7080 C.2   125  VAL125      0.2592
    114  O        -30.9090   27.2090  -21.5500 O.2   125  VAL125     -0.2718
    115  CB       -30.3310   24.1350  -21.8350 C.3   125  VAL125      0.0266
    116  CG1      -29.9410   24.7830  -23.1720 C.3   125  VAL125      0.0020
    117  CG2      -29.0940   23.9410  -20.9540 C.3   125  VAL125      0.0020
    118  N        -30.5740   26.4870  -19.4500 N.am  126  LEU126     -0.1966
    119  CA       -29.8830   27.7090  -19.0470 C.3   126  LEU126      0.1728
    120  C        -28.4840   27.7940  -19.6580 C.2   126  LEU126      0.2616
    121  O        -27.7360   26.8130  -19.6770 O.2   126  LEU126     -0.2715
    122  CB       -29.7580   27.8030  -17.5320 C.3   126  LEU126      0.0311
    123  CG       -30.9960   28.1500  -16.7090 C.3   126  LEU126      0.0022
    124  CD1      -30.6060   28.1130  -15.2420 C.3   126  LEU126      0.0001
    125  CD2      -31.5710   29.5160  -17.0380 C.3   126  LEU126      0.0001
    126  N        -28.1390   28.9750  -20.1550 N.am  127  ILE127     -0.1977
    127  CA       -26.7910   29.2430  -20.6520 C.3   127  ILE127      0.1596
    128  C        -26.2760   30.5750  -20.1150 C.2   127  ILE127      0.2287
    129  O        -27.0250   31.3410  -19.5070 O.2   127  ILE127     -0.2864
    130  CB       -26.7380   29.1980  -22.1830 C.3   127  ILE127      0.0276
    131  CG1      -27.6790   30.2360  -22.7950 C.3   127  ILE127      0.0022
    132  CG2      -27.1090   27.8020  -22.6610 C.3   127  ILE127      0.0022
    133  CD1      -27.2840   30.6240  -24.2010 C.3   127  ILE127      0.0001
    134  N        -31.9140   28.8620  -23.7580 N.3   134  MET134     -0.1245
    135  CA       -32.0510   28.4150  -25.1280 C.3   134  MET134      0.1570
    136  C        -33.0350   27.2590  -25.2040 C.2   134  MET134      0.2261
    137  O        -32.8640   26.2630  -24.5040 O.2   134  MET134     -0.2867
    138  CB       -30.7150   27.9920  -25.7110 C.3   134  MET134      0.0387
    139  CG       -30.8020   27.7720  -27.2200 C.3   134  MET134      0.0595
    140  SD       -29.2220   27.6640  -28.0690 S.3   134  MET134     -0.1393
    141  CE       -28.4550   29.2670  -27.7860 C.3   134  MET134      0.0692
    142  N        -33.2460   24.2840  -30.6270 N.3   139  LEU139     -0.1245
    143  CA       -32.0490   23.4440  -30.8030 C.3   139  LEU139      0.1561
    144  C        -32.3390   22.2470  -31.6830 C.2   139  LEU139      0.2260
    145  O        -31.5820   21.9650  -32.5960 O.2   139  LEU139     -0.2867
    146  CB       -31.5370   22.9530  -29.4540 C.3   139  LEU139      0.0270
    147  CG       -30.7410   23.9740  -28.6500 C.3   139  LEU139      0.0019
    148  CD1      -30.6950   23.5990  -27.1700 C.3   139  LEU139      0.0001
    149  CD2      -29.3430   24.1120  -29.2190 C.3   139  LEU139      0.0001
    150  N        -28.1300   16.8800  -31.6640 N.3   149  PHE149     -0.1227
    151  CA       -26.9890   16.8690  -30.7780 C.3   149  PHE149      0.1736
    152  C        -27.3640   16.9860  -29.2900 C.2   149  PHE149      0.2595
    153  O        -26.8570   16.2380  -28.4520 O.2   149  PHE149     -0.2718
    154  CB       -26.0500   18.0010  -31.1630 C.3   149  PHE149      0.0547
    155  CG       -24.7930   18.0100  -30.3650 C.ar  149  PHE149     -0.0202
    156  CD1      -23.7410   17.1740  -30.7050 C.ar  149  PHE149     -0.0042
    157  CD2      -24.6790   18.8210  -29.2440 C.ar  149  PHE149     -0.0042
    158  CE1      -22.5820   17.1570  -29.9480 C.ar  149  PHE149     -0.0003
    159  CE2      -23.5310   18.8100  -28.4840 C.ar  149  PHE149     -0.0003
    160  CZ       -22.4760   17.9750  -28.8350 C.ar  149  PHE149     -0.0000
    161  N        -28.2280   17.9470  -28.9700 N.am  150  MET150     -0.1979
    162  CA       -28.6370   18.1990  -27.5930 C.3   150  MET150      0.1605
    163  C        -29.8430   17.3970  -27.1580 C.2   150  MET150      0.2287
    164  O        -30.0440   17.2070  -25.9620 O.2   150  MET150     -0.2864
    165  CB       -28.9610   19.6710  -27.3990 C.3   150  MET150      0.0413
    166  CG       -27.7540   20.5820  -27.4630 C.3   150  MET150      0.0598
    167  SD       -26.5800   20.3020  -26.1350 S.3   150  MET150     -0.1393
    168  CE       -27.5950   20.6960  -24.7090 C.3   150  MET150      0.0692
    169  N        -29.4300   14.6290  -24.6470 N.3   153  LYS153     -0.1245
    170  CA       -29.1000   15.2110  -23.3520 C.3   153  LYS153      0.1561
    171  C        -30.3480   15.7410  -22.6560 C.2   153  LYS153      0.2260
    172  O        -30.4780   15.5990  -21.4510 O.2   153  LYS153     -0.2867
    173  CB       -28.0480   16.3040  -23.5340 C.3   153  LYS153      0.0271
    174  CG       -26.7540   15.7750  -24.1280 C.3   153  LYS153      0.0035
    175  CD       -25.9310   16.8440  -24.8220 C.3   153  LYS153      0.0206
    176  CE       -24.5210   16.3610  -25.1610 C.3   153  LYS153      0.1093
    177  NZ       -23.4900   17.4130  -24.9090 N.3   153  LYS153     -0.1314
    178  N        -22.9800   10.0830  -28.2050 N.3   235  HIS235     -0.1241
    179  CA       -22.4850   11.4700  -28.2540 C.3   235  HIS235      0.1621
    180  C        -21.0570   11.5510  -28.8060 C.2   235  HIS235      0.2264
    181  O        -20.7550   12.4290  -29.6180 O.2   235  HIS235     -0.2867
    182  CB       -22.5930   12.1090  -26.8550 C.3   235  HIS235      0.0745
    183  CG       -21.8030   13.3760  -26.6740 C.ar  235  HIS235      0.0817
    184  ND1      -20.5930   13.4050  -26.0150 N.ar  235  HIS235     -0.2268
    185  CD2      -22.0710   14.6580  -27.0200 C.ar  235  HIS235      0.1154
    186  CE1      -20.1410   14.6450  -25.9780 C.ar  235  HIS235      0.1986
    187  NE2      -21.0230   15.4260  -26.5750 N.ar  235  HIS235     -0.2212
    188  N        -20.0220   13.3120  -32.5460 N.3   239  LEU239     -0.1245
    189  CA       -18.9490   14.2960  -32.6300 C.3   239  LEU239      0.1561
    190  C        -17.8960   13.9250  -33.6510 C.2   239  LEU239      0.2260
    191  O        -17.5540   14.7470  -34.4930 O.2   239  LEU239     -0.2867
    192  CB       -18.3200   14.5410  -31.2570 C.3   239  LEU239      0.0270
    193  CG       -19.2290   15.5080  -30.4910 C.3   239  LEU239      0.0019
    194  CD1      -19.1490   15.3810  -28.9950 C.3   239  LEU239      0.0001
    195  CD2      -18.9320   16.9500  -30.8630 C.3   239  LEU239      0.0001
    196  N        -12.7550   22.2050  -34.2540 N.3   251  LEU251     -0.1245
    197  CA       -13.0710   21.5810  -32.9730 C.3   251  LEU251      0.1561
    198  C        -11.9240   21.8710  -32.0170 C.2   251  LEU251      0.2260
    199  O        -10.7690   21.8150  -32.4110 O.2   251  LEU251     -0.2867
    200  CB       -13.2280   20.0690  -33.1490 C.3   251  LEU251      0.0270
    201  CG       -13.5730   19.2280  -31.9110 C.3   251  LEU251      0.0019
    202  CD1      -14.9520   19.5900  -31.3780 C.3   251  LEU251      0.0001
    203  CD2      -13.5130   17.7470  -32.2340 C.3   251  LEU251      0.0001
    204  N        -10.8800   19.2220  -26.4220 N.3   255  LEU255     -0.1245
    205  CA       -11.9630   18.3180  -26.7570 C.3   255  LEU255      0.1561
    206  C        -11.4040   17.1570  -27.5500 C.2   255  LEU255      0.2260
    207  O        -11.5900   16.0250  -27.1440 O.2   255  LEU255     -0.2867
    208  CB       -13.1120   19.0250  -27.4800 C.3   255  LEU255      0.0270
    209  CG       -13.8750   20.0810  -26.6590 C.3   255  LEU255      0.0019
    210  CD1      -15.2270   20.3150  -27.3150 C.3   255  LEU255      0.0001
    211  CD2      -14.0680   19.7440  -25.1770 C.3   255  LEU255      0.0001
    212  N        -11.5380   12.7620  -27.4570 N.3   259  TYR259     -0.1241
    213  CA       -12.1970   11.8920  -28.4690 C.3   259  TYR259      0.1605
    214  C        -11.2560   10.8690  -29.1010 C.2   259  TYR259      0.2264
    215  O        -11.7170    9.9500  -29.7770 O.2   259  TYR259     -0.2867
    216  CB       -12.8680   12.7260  -29.5660 C.3   259  TYR259      0.0534
    217  CG       -13.9290   13.5990  -28.9800 C.ar  259  TYR259     -0.0201
    218  CD1      -13.5810   14.7470  -28.3190 C.ar  259  TYR259     -0.0009
    219  CD2      -15.2650   13.2560  -29.0240 C.ar  259  TYR259     -0.0009
    220  CE1      -14.5110   15.5700  -27.7270 C.ar  259  TYR259      0.0417
    221  CE2      -16.2190   14.0720  -28.4370 C.ar  259  TYR259      0.0417
    222  CZ       -15.8290   15.2420  -27.7840 C.ar  259  TYR259      0.1957
    223  OH       -16.7090   16.1120  -27.1760 O.3   259  TYR259     -0.2866
@<TRIPOS>BOND
     1   191   190    2
     2   196   197    1
     3   190   189    1
     4   200   197    1
     5   200   201    1
     6   197   198    1
     7     9    10    1
     8    21    22    1
     9    21    18    1
    10   189   188    1
    11   189   192    1
    12    23    22   ar
    13    23    25   ar
    14   145   144    2
    15   199   198    2
    16    22    24   ar
    17    25    27   ar
    18   203   201    1
    19    16    14    1
    20    24    26   ar
    21   201   202    1
    22    27    26   ar
    23    17    18    1
    24    17    11   am
    25    14    13    1
    26    13    10    1
    27    13    15    1
    28   144   143    1
    29   150   151    1
    30    10    11    1
    31    18    19    1
    32    46    44   am
    33   192   193    1
    34   154   151    1
    35   154   155    1
    36    19    20    2
    37    11    12    2
    38   195   193    1
    39   143   142    1
    40   143   146    1
    41   151   152    1
    42   156   155   ar
    43   156   158   ar
    44   193   194    1
    45   155   157   ar
    46    44    45    2
    47    44    43    1
    48   158   160   ar
    49   215   214    2
    50   181   180    2
    51   216   217    1
    52   216   213    1
    53    28    29    1
    54   146   147    1
    55   152   161   am
    56   152   153    2
    57   157   159   ar
    58   149   147    1
    59   214   213    1
    60    43    42    1
    61   219   217   ar
    62   219   221   ar
    63   217   218   ar
    64   161   162    1
    65   160   159   ar
    66    42    39    1
    67   180   179    1
    68   147   148    1
    69   213   212    1
    70   221   222   ar
    71   218   220   ar
    72   179   178    1
    73   179   182    1
    74    29    30    1
    75   140   141    1
    76   140   139    1
    77   222   220   ar
    78   222   223    1
    79     8     6    1
    80   162   165    1
    81   162   163    1
    82    32    30   am
    83    32    33    1
    84   206   207    2
    85   206   205    1
    86    38    39    1
    87    38    34   am
    88     7     5    1
    89    36    33    1
    90    36    37    1
    91   208   205    1
    92   208   209    1
    93   166   165    1
    94   166   167    1
    95    39    40    1
    96   210   209    1
    97   139   138    1
    98    30    31    2
    99   163   164    2
   100   185   183   ar
   101   185   187   ar
   102   182   183    1
   103    33    34    1
   104   205   204    1
   105   183   184   ar
   106   209   211    1
   107     5     6    1
   108     5     2    1
   109   187   186   ar
   110    34    35    2
   111    40    41    2
   112   167   168    1
   113   184   186   ar
   114   138   135    1
   115   136   135    1
   116   136   137    2
   117     2     1    1
   118     2     3    1
   119   176   177    1
   120   176   175    1
   121   135   134    1
   122     4     3    2
   123   175   174    1
   124   169   170    1
   125    77    78   ar
   126    77    75   ar
   127    78    76   ar
   128   133   131    1
   129   174   173    1
   130    62    63    1
   131    62    59    1
   132    47    48    1
   133    75    74   ar
   134    76    74   ar
   135   173   170    1
   136   170   171    1
   137   116   115    1
   138    74    73    1
   139    58    59    1
   140    58    49   am
   141   131   130    1
   142    59    60    1
   143   132   130    1
   144   171   172    2
   145    48    51    1
   146    48    49    1
   147    51    52    1
   148    60    61    2
   149   130   127    1
   150    73    70    1
   151    49    50    2
   152   111   112    1
   153   115   112    1
   154   115   117    1
   155   101   100    1
   156   114   113    2
   157   112   113    1
   158    52    53    1
   159    85    83    1
   160    70    69    1
   161    70    71    1
   162   102   100    1
   163    86    84    1
   164   113   118   am
   165   127   126    1
   166   127   128    1
   167   100    99    1
   168    72    71    2
   169   126   120   am
   170   128   129    2
   171    83    84    1
   172    83    80    1
   173    53    54    1
   174   121   120    2
   175   120   119    1
   176    99    96    1
   177   118   119    1
   178   119   122    1
   179    81    80    1
   180    81    82    2
   181    64    65    1
   182    54    55    2
   183    68    65    1
   184    80    79    1
   185    96    97    1
   186    96    95    1
   187    65    66    1
   188   106   105    2
   189    66    67    2
   190   122   123    1
   191    98    97    2
   192    55    56    1
   193    55    57    1
   194   109   108    1
   195    95    89   am
   196   105   104    1
   197   107   108    1
   198   107   104    1
   199   125   123    1
   200   123   124    1
   201   108   110    1
   202   104   103    1
   203    89    90    2
   204    89    88    1
   205    94    93    1
   206    91    88    1
   207    91    92    1
   208    93    92    1
   209    87    88    1
