@<TRIPOS>MOLECULE
tmp/5dv4A00.pdb
 212 202 0 0 0
SMALL
GASTEIGER

@<TRIPOS>ATOM
      1  N        -37.2970    7.2260    7.2890 N.3    24  ASN24      -0.1240
      2  CA       -35.9540    7.7350    7.1300 C.3    24  ASN24       0.1653
      3  C        -35.0230    6.5470    7.3190 C.2    24  ASN24       0.2266
      4  O        -35.0060    5.9470    8.3940 O.2    24  ASN24      -0.2867
      5  CB       -35.7280    8.8500    8.1430 C.3    24  ASN24       0.1155
      6  CG       -34.2850    9.3700    8.1560 C.2    24  ASN24       0.2627
      7  OD1      -33.3390    8.6440    7.8410 O.2    24  ASN24      -0.2716
      8  ND2      -34.1320   10.6440    8.4710 N.am   24  ASN24      -0.0877
      9  N        -31.7950    6.1300    7.3250 N.3    26  LEU26      -0.1245
     10  CA       -30.4380    6.4500    7.8290 C.3    26  LEU26       0.1561
     11  C        -29.3880    6.1840    6.7480 C.2    26  LEU26       0.2260
     12  O        -29.0090    5.0370    6.4880 O.2    26  LEU26      -0.2867
     13  CB       -30.1090    5.6810    9.1380 C.3    26  LEU26       0.0270
     14  CG       -28.6680    5.8500    9.6690 C.3    26  LEU26       0.0019
     15  CD1      -28.3440    7.3380    9.9460 C.3    26  LEU26       0.0001
     16  CD2      -28.3990    4.9210   10.8800 C.3    26  LEU26       0.0001
     17  N        -24.0810    9.0170    7.2790 N.3    30  TYR30      -0.1241
     18  CA       -24.3080    9.4250    8.6540 C.3    30  TYR30       0.1605
     19  C        -24.2450    8.2870    9.6460 C.2    30  TYR30       0.2264
     20  O        -24.2490    8.5520   10.8570 O.2    30  TYR30      -0.2867
     21  CB       -25.6700   10.1250    8.7740 C.3    30  TYR30       0.0534
     22  CG       -25.8030   11.3690    7.9080 C.ar   30  TYR30      -0.0201
     23  CD1      -27.0510   11.7910    7.4690 C.ar   30  TYR30      -0.0009
     24  CD2      -24.6960   12.1380    7.5760 C.ar   30  TYR30      -0.0009
     25  CE1      -27.1890   12.9310    6.6990 C.ar   30  TYR30       0.0417
     26  CE2      -24.8270   13.2770    6.7880 C.ar   30  TYR30       0.0417
     27  CZ       -26.0820   13.6600    6.3560 C.ar   30  TYR30       0.1957
     28  OH       -26.2350   14.7980    5.5860 O.3    30  TYR30      -0.2866
     29  N        -21.6530    8.5370   16.0410 N.3    35  LEU35      -0.1231
     30  CA       -23.0440    8.7980   16.3960 C.3    35  LEU35       0.1693
     31  C        -23.7660    7.5760   16.9230 C.2    35  LEU35       0.2592
     32  O        -24.7860    7.7120   17.6230 O.2    35  LEU35      -0.2718
     33  CB       -23.8060    9.3190   15.1840 C.3    35  LEU35       0.0284
     34  CG       -23.6060   10.7830   14.8090 C.3    35  LEU35       0.0019
     35  CD1      -24.3420   11.0650   13.4960 C.3    35  LEU35       0.0001
     36  CD2      -24.1680   11.6220   15.9730 C.3    35  LEU35       0.0001
     37  N        -23.3120    6.3930   16.5480 N.am   36  TYR36      -0.1976
     38  CA       -24.0640    5.1620   16.8130 C.3    36  TYR36       0.1639
     39  C        -23.0880    4.1050   17.3140 C.2    36  TYR36       0.2290
     40  O        -23.1140    2.9500   16.8910 O.2    36  TYR36      -0.2864
     41  CB       -24.8140    4.6590   15.6010 C.3    36  TYR36       0.0560
     42  CG       -25.7160    5.6910   15.0070 C.ar   36  TYR36      -0.0198
     43  CD1      -26.9480    5.9660   15.5870 C.ar   36  TYR36      -0.0009
     44  CD2      -25.3330    6.4100   13.8760 C.ar   36  TYR36      -0.0009
     45  CE1      -27.7820    6.9400   15.0600 C.ar   36  TYR36       0.0417
     46  CE2      -26.1700    7.4000   13.3230 C.ar   36  TYR36       0.0417
     47  CZ       -27.3790    7.6570   13.9200 C.ar   36  TYR36       0.1957
     48  OH       -28.2190    8.6170   13.4460 O.3    36  TYR36      -0.2866
     49  N        -33.2440   10.3510    3.5090 N.3    69  GLU69      -0.1196
     50  CA       -31.8880    9.8740    3.6160 C.3    69  GLU69       0.1783
     51  C        -31.5670    8.8270    2.5340 C.2    69  GLU69       0.2306
     52  O        -30.8490    7.9120    2.7890 O.2    69  GLU69      -0.2863
     53  CB       -31.4900    9.4390    5.0770 C.2    69  GLU69       0.0071
     54  CG       -31.1200   10.5490    6.0830 C.2    69  GLU69       0.0834
     55  CD       -30.3820   10.1810    7.4360 C.2    69  GLU69       0.3877
     56  OE1      -30.8650   10.9190    8.2670 O.co2  69  GLU69      -0.2406
     57  OE2      -29.4760    9.4440    7.4610 O.co2  69  GLU69      -0.2406
     58  N        -30.3950   16.3810   -2.2910 N.3    95  LYS95      -0.1245
     59  CA       -29.9400   17.7370   -1.9550 C.3    95  LYS95       0.1561
     60  C        -28.7280   18.1520   -2.7960 C.2    95  LYS95       0.2260
     61  O        -28.1190   17.3470   -3.5000 O.2    95  LYS95      -0.2867
     62  CB       -29.5490   17.7970   -0.4910 C.3    95  LYS95       0.0271
     63  CG       -30.6570   17.3970    0.4150 C.3    95  LYS95       0.0035
     64  CD       -30.2760   17.7450    1.8840 C.3    95  LYS95       0.0206
     65  CE       -29.1820   16.9120    2.5220 C.3    95  LYS95       0.1093
     66  NZ       -28.8570   17.4510    3.9390 N.3    95  LYS95      -0.1314
     67  N        -31.5060   21.9450    2.6320 N.3   154  ASN154     -0.1240
     68  CA       -32.5680   20.9420    2.7050 C.3   154  ASN154      0.1653
     69  C        -33.5960   21.1160    1.5920 C.2   154  ASN154      0.2266
     70  O        -33.7920   22.2060    1.0340 O.2   154  ASN154     -0.2867
     71  CB       -33.2620   21.0350    4.0650 C.3   154  ASN154      0.1155
     72  CG       -32.2800   20.8950    5.1950 C.2   154  ASN154      0.2627
     73  OD1      -31.8200   21.8770    5.7270 O.2   154  ASN154     -0.2716
     74  ND2      -31.9200   19.6490    5.5340 N.am  154  ASN154     -0.0877
     75  N        -37.4510   16.6620    4.1860 N.3   178  HIS178     -0.1226
     76  CA       -36.5280   16.3690    5.2820 C.3   178  HIS178      0.1752
     77  C        -35.9440   17.7040    5.7400 C.2   178  HIS178      0.2595
     78  O        -35.1020   18.2730    5.0500 O.2   178  HIS178     -0.2718
     79  CB       -35.4250   15.3940    4.8240 C.3   178  HIS178      0.0759
     80  CG       -34.5380   14.9130    5.9370 C.ar  178  HIS178      0.0818
     81  ND1      -33.4390   14.0890    5.7350 N.ar  178  HIS178     -0.2268
     82  CD2      -34.5910   15.1510    7.2670 C.ar  178  HIS178      0.1154
     83  CE1      -32.8470   13.8460    6.9060 C.ar  178  HIS178      0.1986
     84  NE2      -33.5270   14.4730    7.8490 N.ar  178  HIS178     -0.2212
     85  N        -36.3370   18.1760    6.9230 N.am  179  MET179     -0.1979
     86  CA       -35.9210   19.5050    7.3710 C.3   179  MET179      0.1605
     87  C        -34.5440   19.4870    8.0510 C.2   179  MET179      0.2287
     88  O        -34.0080   18.4450    8.4450 O.2   179  MET179     -0.2864
     89  CB       -36.9700   20.0840    8.3180 C.3   179  MET179      0.0413
     90  CG       -38.1430   20.7960    7.6040 C.3   179  MET179      0.0598
     91  SD       -38.8730   19.7480    6.3200 S.3   179  MET179     -0.1393
     92  CE       -40.2740   20.7760    5.7770 C.3   179  MET179      0.0692
     93  N        -31.7310   19.8550   10.9420 N.3   181  TRP181     -0.1241
     94  CA       -31.8150   18.9820   12.1210 C.3   181  TRP181      0.1605
     95  C        -31.5670   19.6890   13.4580 C.2   181  TRP181      0.2264
     96  O        -32.0410   19.2050   14.5000 O.2   181  TRP181     -0.2867
     97  CB       -30.8030   17.8120   11.9870 C.3   181  TRP181      0.0550
     98  CG       -29.3620   18.3470   11.8760 C.ar  181  TRP181      0.0003
     99  CD1      -28.7250   18.7660   10.7410 C.ar  181  TRP181      0.0946
    100  CD2      -28.4600   18.6300   12.9680 C.ar  181  TRP181      0.0152
    101  NE1      -27.4800   19.2570   11.0510 N.ar  181  TRP181     -0.2442
    102  CE2      -27.2790   19.1530   12.4040 C.ar  181  TRP181      0.0810
    103  CE3      -28.5140   18.3980   14.3600 C.ar  181  TRP181      0.0012
    104  CZ2      -26.1730   19.5140   13.1830 C.ar  181  TRP181      0.0191
    105  CZ3      -27.4240   18.7440   15.1330 C.ar  181  TRP181      0.0001
    106  CH2      -26.2610   19.2940   14.5460 C.ar  181  TRP181      0.0015
    107  N        -31.1910   21.2480   16.9390 N.3   183  PRO183     -0.2116
    108  CA       -32.1880   21.7020   17.9170 C.3   183  PRO183      0.1372
    109  C        -32.1590   23.1840   18.1580 C.2   183  PRO183      0.2244
    110  O        -33.1640   23.7300   18.6340 O.2   183  PRO183     -0.2868
    111  CB       -31.8100   20.9640   19.2250 C.3   183  PRO183      0.0268
    112  CG       -30.9500   19.8440   18.7990 C.3   183  PRO183      0.0207
    113  CD       -30.3340   20.1690   17.4750 C.3   183  PRO183      0.0892
    114  N        -36.3570   25.3870   10.9180 N.3   189  LYS189     -0.1245
    115  CA       -37.2920   24.2870   10.7150 C.3   189  LYS189      0.1561
    116  C        -38.6950   24.8030   10.4410 C.2   189  LYS189      0.2260
    117  O        -39.3610   24.3530    9.5010 O.2   189  LYS189     -0.2867
    118  CB       -37.3000   23.3560   11.9450 C.3   189  LYS189      0.0271
    119  CG       -35.9220   22.6990   12.1580 C.3   189  LYS189      0.0035
    120  CD       -35.8950   21.9220   13.5540 C.3   189  LYS189      0.0206
    121  CE       -34.4930   21.3510   13.8410 C.3   189  LYS189      0.1093
    122  NZ       -34.6360   20.7300   15.2570 N.3   189  LYS189     -0.1314
    123  N        -39.6120   13.9950    7.6460 N.3   221  ASP221     -0.1239
    124  CA       -38.7980   14.0240    8.8560 C.3   221  ASP221      0.1674
    125  C        -38.6400   15.5050    9.1460 C.2   221  ASP221      0.2266
    126  O        -37.9010   16.1900    8.4560 O.2   221  ASP221     -0.2867
    127  CB       -37.4380   13.3480    8.6770 C.3   221  ASP221      0.1410
    128  CG       -36.5660   13.4280    9.9080 C.2   221  ASP221      0.3668
    129  OD1      -36.8910   14.1680   10.8640 O.co2 221  ASP221     -0.2456
    130  OD2      -35.5110   12.7020    9.9140 O.co2 221  ASP221     -0.2456
    131  N        -37.7920   16.8210   12.1010 N.3   223  ASN223     -0.1225
    132  CA       -36.8120   17.1030   13.1300 C.3   223  ASN223      0.1785
    133  C        -37.3990   18.0330   14.1680 C.2   223  ASN223      0.2598
    134  O        -36.7370   18.8490   14.7090 O.2   223  ASN223     -0.2718
    135  CB       -35.5360   17.6920   12.5290 C.3   223  ASN223      0.1169
    136  CG       -34.5830   16.6280   12.0530 C.2   223  ASN223      0.2627
    137  OD1      -34.2740   15.7240   12.7620 O.2   223  ASN223     -0.2716
    138  ND2      -34.1290   16.7480   10.8440 N.am  223  ASN223     -0.0877
    139  N        -38.6670   17.8590   14.4280 N.am  224  SER224     -0.1938
    140  CA       -39.4660   18.7170   15.3110 C.3   224  SER224      0.2055
    141  C        -40.3930   17.8350   16.1320 C.2   224  SER224      0.2642
    142  O        -41.1380   17.0260   15.5740 O.2   224  SER224     -0.2714
    143  CB       -40.3190   19.7240   14.4840 C.3   224  SER224      0.2130
    144  OG       -39.4750   20.5880   13.6670 O.3   224  SER224     -0.2179
    145  N        -40.4290   18.0620   17.4480 N.am  225  LEU225     -0.1977
    146  CA       -41.2910   17.3260   18.3390 C.3   225  LEU225      0.1596
    147  C        -42.7320   17.8150   18.2120 C.2   225  LEU225      0.2287
    148  O        -42.9700   18.9070   17.6810 O.2   225  LEU225     -0.2864
    149  CB       -40.7820   17.4790   19.7740 C.3   225  LEU225      0.0297
    150  CG       -39.4300   16.7650   19.9680 C.3   225  LEU225      0.0022
    151  CD1      -38.7570   17.2020   21.2800 C.3   225  LEU225      0.0001
    152  CD2      -39.6210   15.2790   19.9700 C.3   225  LEU225      0.0001
    153  N        -37.7890    8.5470   16.1460 N.3   283  ASN283     -0.1240
    154  CA       -36.3330    8.4870   16.1520 C.3   283  ASN283      0.1653
    155  C        -35.9380    7.9140   17.5070 C.2   283  ASN283      0.2266
    156  O        -36.4190    8.3980   18.5220 O.2   283  ASN283     -0.2867
    157  CB       -35.7970    9.9050   15.9460 C.3   283  ASN283      0.1155
    158  CG       -34.2610   10.0200   15.7760 C.2   283  ASN283      0.2627
    159  OD1      -33.7090   11.0390   16.0700 O.2   283  ASN283     -0.2716
    160  ND2      -33.6080    8.9600   15.2270 N.am  283  ASN283     -0.0877
    161  N        -32.6140    6.7810   19.5890 N.3   285  THR285     -0.1218
    162  CA       -31.1780    6.6660   19.8070 C.3   285  THR285      0.1862
    163  C        -30.8910    6.7660   21.2880 C.2   285  THR285      0.2287
    164  O        -31.7730    7.0190   22.1290 O.2   285  THR285     -0.2866
    165  CB       -30.3700    7.7560   19.0710 C.3   285  THR285      0.1770
    166  OG1      -30.6320    9.0490   19.6530 O.3   285  THR285     -0.2211
    167  CG2      -30.7840    7.8230   17.5960 C.3   285  THR285      0.0375
    168  N        -29.1230    8.9620   22.8380 N.3   287  ASP287     -0.1225
    169  CA       -29.1660   10.3430   23.3070 C.3   287  ASP287      0.1805
    170  C        -30.5270   11.0070   23.1160 C.2   287  ASP287      0.2597
    171  O        -30.8400   11.9730   23.8220 O.2   287  ASP287     -0.2718
    172  CB       -28.1070   11.1800   22.5840 C.3   287  ASP287      0.1424
    173  CG       -26.7040   10.8670   23.0670 C.2   287  ASP287      0.3668
    174  OD1      -26.5740   10.4140   24.2150 O.co2 287  ASP287     -0.2456
    175  OD2      -25.7360   11.0570   22.2990 O.co2 287  ASP287     -0.2456
    176  N        -31.3190   10.5620   22.1410 N.am  288  PHE288     -0.1976
    177  CA       -32.5680   11.2330   21.7990 C.3   288  PHE288      0.1639
    178  C        -33.6110   10.2140   21.3440 C.2   288  PHE288      0.2290
    179  O        -33.3420    9.4350   20.4260 O.2   288  PHE288     -0.2864
    180  CB       -32.3640   12.2490   20.6460 C.3   288  PHE288      0.0560
    181  CG       -33.6440   12.8700   20.1940 C.ar  288  PHE288     -0.0200
    182  CD1      -34.1530   13.9700   20.8540 C.ar  288  PHE288     -0.0042
    183  CD2      -34.3600   12.3280   19.1410 C.ar  288  PHE288     -0.0042
    184  CE1      -35.3860   14.5330   20.4680 C.ar  288  PHE288     -0.0003
    185  CE2      -35.5590   12.8590   18.7610 C.ar  288  PHE288     -0.0003
    186  CZ       -36.0840   13.9540   19.4280 C.ar  288  PHE288     -0.0000
    187  N        -40.4740   12.7450   15.6210 N.3   292  ILE292     -0.1245
    188  CA       -40.0470   13.8120   14.7370 C.3   292  ILE292      0.1561
    189  C        -40.3870   13.5260   13.2780 C.2   292  ILE292      0.2260
    190  O        -40.1700   14.3800   12.4130 O.2   292  ILE292     -0.2867
    191  CB       -38.5380   14.1040   14.8780 C.3   292  ILE292      0.0252
    192  CG1      -37.7100   12.8690   14.5330 C.3   292  ILE292      0.0019
    193  CG2      -38.2270   14.5270   16.3310 C.3   292  ILE292      0.0019
    194  CD1      -36.1830   13.1910   14.4540 C.3   292  ILE292      0.0001
    195  N        -32.0790    4.2890   12.6270 N.3   332  ASP332     -0.1225
    196  CA       -32.4370    4.9390   13.8740 C.3   332  ASP332      0.1805
    197  C        -33.8310    5.5590   13.8350 C.2   332  ASP332      0.2597
    198  O        -34.2140    6.1820   14.8180 O.2   332  ASP332     -0.2718
    199  CB       -31.3980    6.0110   14.2470 C.3   332  ASP332      0.1424
    200  CG       -31.2710    7.1250   13.2580 C.2   332  ASP332      0.3668
    201  OD1      -31.4770    6.9660   12.0370 O.co2 332  ASP332     -0.2456
    202  OD2      -30.8180    8.1760   13.7090 O.co2 332  ASP332     -0.2456
    203  N        -34.5830    5.4460   12.7400 N.am  333  HIS333     -0.1975
    204  CA       -35.9980    5.8400   12.7360 C.3   333  HIS333      0.1656
    205  C        -36.8410    4.5970   12.5280 C.2   333  HIS333      0.2291
    206  O        -36.4190    3.6890   11.8080 O.2   333  HIS333     -0.2864
    207  CB       -36.3270    6.8380   11.6100 C.3   333  HIS333      0.0771
    208  CG       -35.6700    8.1620   11.7830 C.ar  333  HIS333      0.0820
    209  ND1      -36.3900    9.3110   12.0560 N.ar  333  HIS333     -0.2267
    210  CD2      -34.3640    8.5380   11.6970 C.ar  333  HIS333      0.1154
    211  CE1      -35.5500   10.3460   12.0970 C.ar  333  HIS333      0.1986
    212  NE2      -34.3220    9.9010   11.8880 N.ar  333  HIS333     -0.2212
@<TRIPOS>BOND
     1    61    60    2
     2    60    59    1
     3    58    59    1
     4    59    62    1
     5    62    63    1
     6    63    64    1
     7    70    69    2
     8    69    68    1
     9    64    65    1
    10    65    66    1
    11    51    52    2
    12    51    50    1
    13    67    68    1
    14    68    71    1
    15    49    50    1
    16    50    53    1
    17    71    72    1
    18    75    76    1
    19    79    76    1
    20    79    80    1
    21    78    77    2
    22    53    54    2
    23    72    74   am
    24    72    73    2
    25    76    77    1
    26    28    27    1
    27    81    80   ar
    28    81    83   ar
    29    77    85   am
    30    92    91    1
    31    80    82   ar
    32    54    55    1
    33    91    90    1
    34    27    25   ar
    35    27    26   ar
    36    12    11    2
    37    25    23   ar
    38    11    10    1
    39    26    24   ar
    40    83    84   ar
    41    85    86    1
    42     2     1    1
    43     2     3    1
    44     2     5    1
    45    82    84   ar
    46    17    18    1
    47     3     4    2
    48     9    10    1
    49    86    87    1
    50    86    89    1
    51    55    57   ar
    52    55    56   ar
    53    23    22   ar
    54    24    22   ar
    55    90    89    1
    56   123   124    1
    57    10    13    1
    58     7     6    2
    59    22    21    1
    60    87    88    2
    61     5     6    1
    62     6     8   am
    63   126   125    2
    64    18    21    1
    65    18    19    1
    66   127   124    1
    67   127   128    1
    68   124   125    1
    69    13    14    1
    70   117   116    2
    71    19    20    2
    72    14    15    1
    73    14    16    1
    74   128   130   ar
    75   128   129   ar
    76   116   115    1
    77   115   114    1
    78   115   118    1
    79    99   101   ar
    80    99    98   ar
    81   138   136   am
    82    93    94    1
    83   101   102   ar
    84   207   208    1
    85   207   204    1
    86   210   208   ar
    87   210   212   ar
    88   208   209   ar
    89   206   205    2
    90    98    97    1
    91    98   100   ar
    92   212   211   ar
    93   118   119    1
    94    97    94    1
    95   201   200   ar
    96   136   135    1
    97   136   137    2
    98   209   211   ar
    99   131   132    1
   100    94    95    1
   101   119   120    1
   102   102   100   ar
   103   102   104   ar
   104   190   189    2
   105   205   204    1
   106   135   132    1
   107   195   196    1
   108   204   203    1
   109   203   197   am
   110   100   103   ar
   111   132   133    1
   112   104   106   ar
   113   200   202   ar
   114   200   199    1
   115   189   188    1
   116    46    44   ar
   117    46    47   ar
   118    48    47    1
   119    95    96    2
   120    35    34    1
   121   120   121    1
   122   144   143    1
   123   197   196    1
   124   197   198    2
   125   121   122    1
   126   196   199    1
   127    44    42   ar
   128    47    45   ar
   129   133   139   am
   130   133   134    2
   131   103   105   ar
   132   139   140    1
   133   194   192    1
   134   143   140    1
   135   192   191    1
   136   106   105   ar
   137   188   191    1
   138   188   187    1
   139    34    33    1
   140    34    36    1
   141   191   193    1
   142    42    43   ar
   143    42    41    1
   144    45    43   ar
   145    33    30    1
   146   160   158   am
   147   140   141    1
   148   142   141    2
   149    41    38    1
   150   158   157    1
   151   158   159    2
   152   157   154    1
   153    29    30    1
   154   141   145   am
   155   153   154    1
   156   154   155    1
   157    30    31    1
   158    37    38    1
   159    37    31   am
   160    38    39    1
   161    40    39    2
   162    31    32    2
   163   107   113    1
   164   107   108    1
   165   145   146    1
   166   113   112    1
   167   155   156    2
   168   167   165    1
   169   148   147    2
   170   108   109    1
   171   108   111    1
   172   109   110    2
   173   147   146    1
   174   146   149    1
   175   185   183   ar
   176   185   186   ar
   177   112   111    1
   178   165   166    1
   179   165   162    1
   180   183   181   ar
   181   186   184   ar
   182   161   162    1
   183   149   150    1
   184   162   163    1
   185   150   152    1
   186   150   151    1
   187   181   180    1
   188   181   182   ar
   189   179   178    2
   190   184   182   ar
   191   180   177    1
   192   163   164    2
   193   178   177    1
   194   177   176    1
   195   176   170   am
   196   175   173   ar
   197   172   173    1
   198   172   169    1
   199   168   169    1
   200   173   174   ar
   201   170   169    1
   202   170   171    2
