@<TRIPOS>MOLECULE
tmp/5dv5B03.pdb
 226 215 0 0 0
SMALL
GASTEIGER

@<TRIPOS>ATOM
      1  N         21.7720    0.3910   -2.4420 N.3    77  ILE77      -0.1231
      2  CA        21.9690    1.2670   -3.5900 C.3    77  ILE77       0.1692
      3  C         23.3130    0.9910   -4.2560 C.2    77  ILE77       0.2591
      4  O         23.5910    1.4890   -5.3470 O.2    77  ILE77      -0.2718
      5  CB        21.8990    2.7550   -3.1980 C.3    77  ILE77       0.0266
      6  CG1       23.1420    3.1590   -2.4050 C.3    77  ILE77       0.0019
      7  CG2       20.6260    3.0420   -2.4170 C.3    77  ILE77       0.0020
      8  CD1       23.3470    4.6550   -2.3100 C.3    77  ILE77       0.0001
      9  N         24.1430    0.1900   -3.5950 N.am   78  LEU78      -0.1980
     10  CA        25.5160   -0.0120   -4.0440 C.3    78  LEU78       0.1596
     11  C         25.7150   -1.3900   -4.6570 C.2    78  LEU78       0.2287
     12  O         26.5170   -1.5600   -5.5760 O.2    78  LEU78      -0.2864
     13  CB        26.4900    0.1820   -2.8800 C.3    78  LEU78       0.0297
     14  CG        26.4610    1.4950   -2.0960 C.3    78  LEU78       0.0022
     15  CD1       26.2730    2.6810   -3.0270 C.3    78  LEU78       0.0001
     16  CD2       25.3860    1.4640   -1.0180 C.3    78  LEU78       0.0001
     17  N         24.4820   -0.7740   -7.8000 N.3    81  LEU81      -0.1245
     18  CA        25.4180    0.0760   -8.5230 C.3    81  LEU81       0.1561
     19  C         26.4740   -0.7630   -9.2350 C.2    81  LEU81       0.2260
     20  O         27.0040   -0.3620  -10.2710 O.2    81  LEU81      -0.2867
     21  CB        26.0880    1.0720   -7.5740 C.3    81  LEU81       0.0270
     22  CG        27.1510    1.9720   -8.2070 C.3    81  LEU81       0.0019
     23  CD1       26.5490    2.8230   -9.3170 C.3    81  LEU81       0.0001
     24  CD2       27.8130    2.8480   -7.1530 C.3    81  LEU81       0.0001
     25  N         48.2740   23.7940   -7.8860 N.3   118  ASN118     -0.1240
     26  CA        47.9460   22.3770   -7.9210 C.3   118  ASN118      0.1653
     27  C         47.0450   21.9900   -9.0600 C.2   118  ASN118      0.2266
     28  O         47.1680   20.9010   -9.6080 O.2   118  ASN118     -0.2867
     29  CB        47.2770   21.9500   -6.6090 C.3   118  ASN118      0.1155
     30  CG        48.2600   21.7960   -5.4830 C.2   118  ASN118      0.2627
     31  OD1       48.9550   20.7940   -5.3720 O.2   118  ASN118     -0.2716
     32  ND2       48.3490   22.8110   -4.6560 N.am  118  ASN118     -0.0877
     33  N         49.0950   21.9920  -12.3300 N.3   121  ARG121     -0.1231
     34  CA        49.9450   20.8070  -12.3160 C.3   121  ARG121      0.1694
     35  C         49.1640   19.5610  -12.7140 C.2   121  ARG121      0.2592
     36  O         49.6360   18.7480  -13.5090 O.2   121  ARG121     -0.2718
     37  CB        50.5700   20.6120  -10.9350 C.3   121  ARG121      0.0321
     38  CG        51.0270   19.1890  -10.6580 C.3   121  ARG121      0.0489
     39  CD        51.5180   19.0410   -9.2280 C.3   121  ARG121      0.2205
     40  NE        51.3510   17.6780   -8.7320 N.pl3 121  ARG121     -0.0865
     41  CZ        50.2470   17.2300   -8.1430 C.cat 121  ARG121      0.5346
     42  NH1       49.2080   18.0360   -7.9750 N.pl3 121  ARG121      0.1354
     43  NH2       50.1810   15.9740   -7.7210 N.pl3 121  ARG121      0.1354
     44  N         47.9680   19.4210  -12.1500 N.am  122  THR122     -0.1953
     45  CA        47.0980   18.2880  -12.4440 C.3   122  THR122      0.1897
     46  C         46.7140   18.2190  -13.9190 C.2   122  THR122      0.2313
     47  O         46.8650   17.1790  -14.5600 O.2   122  THR122     -0.2863
     48  CB        45.8050   18.3420  -11.6040 C.3   122  THR122      0.1794
     49  OG1       46.1090   18.0630  -10.2310 O.3   122  THR122     -0.2208
     50  CG2       44.7960   17.3230  -12.1110 C.3   122  THR122      0.0378
     51  N         49.6980   17.5440  -16.1850 N.3   125  ASN125     -0.1240
     52  CA        50.1080   16.1550  -16.0480 C.3   125  ASN125      0.1653
     53  C         49.2010   15.2160  -16.8370 C.2   125  ASN125      0.2266
     54  O         49.6640   14.2520  -17.4460 O.2   125  ASN125     -0.2867
     55  CB        50.1280   15.7620  -14.5720 C.3   125  ASN125      0.1155
     56  CG        50.5260   14.3210  -14.3600 C.2   125  ASN125      0.2627
     57  OD1       51.3890   13.7930  -15.0610 O.2   125  ASN125     -0.2716
     58  ND2       49.9030   13.6750  -13.3820 N.am  125  ASN125     -0.0877
     59  N         50.3860   13.1590  -20.3120 N.3   129  SER129     -0.1217
     60  CA        50.2040   11.7120  -20.3040 C.3   129  SER129      0.1889
     61  C         49.2840   11.2640  -21.4360 C.2   129  SER129      0.2288
     62  O         49.5890   10.3130  -22.1560 O.2   129  SER129     -0.2866
     63  CB        49.6410   11.2510  -18.9570 C.3   129  SER129      0.2089
     64  OG        50.4200   11.7420  -17.8800 O.3   129  SER129     -0.2183
     65  N         55.1560    6.8630  -14.8190 N.3   148  TYR148     -0.1241
     66  CA        54.1600    6.1670  -14.0120 C.3   148  TYR148      0.1605
     67  C         53.7400    4.8420  -14.6360 C.2   148  TYR148      0.2264
     68  O         52.5690    4.4640  -14.5860 O.2   148  TYR148     -0.2867
     69  CB        52.9410    7.0650  -13.7950 C.3   148  TYR148      0.0534
     70  CG        53.2950    8.4080  -13.1990 C.ar  148  TYR148     -0.0201
     71  CD1       53.4060    8.5730  -11.8240 C.ar  148  TYR148     -0.0009
     72  CD2       53.5450    9.5050  -14.0120 C.ar  148  TYR148     -0.0009
     73  CE1       53.7380    9.7960  -11.2750 C.ar  148  TYR148      0.0417
     74  CE2       53.8770   10.7340  -13.4720 C.ar  148  TYR148      0.0417
     75  CZ        53.9740   10.8730  -12.1030 C.ar  148  TYR148      0.1957
     76  OH        54.3070   12.0940  -11.5630 O.3   148  TYR148     -0.2866
     77  N         52.1330    2.6540  -12.0180 N.3   151  LYS151     -0.1231
     78  CA        50.8000    3.0870  -11.6130 C.3   151  LYS151      0.1693
     79  C         49.7400    2.7490  -12.6590 C.2   151  LYS151      0.2591
     80  O         48.6110    2.3970  -12.3170 O.2   151  LYS151     -0.2718
     81  CB        50.7980    4.5890  -11.3260 C.3   151  LYS151      0.0285
     82  CG        51.8870    5.0190  -10.3560 C.3   151  LYS151      0.0035
     83  CD        51.6460    4.4430   -8.9700 C.3   151  LYS151      0.0206
     84  CE        52.8870    4.5590   -8.1000 C.3   151  LYS151      0.1093
     85  NZ        52.6560    4.0080   -6.7360 N.3   151  LYS151     -0.1314
     86  N         50.1070    2.8570  -13.9320 N.am  152  VAL152     -0.1980
     87  CA        49.1650    2.6200  -15.0210 C.3   152  VAL152      0.1595
     88  C         48.8990    1.1330  -15.2350 C.2   152  VAL152      0.2287
     89  O         47.7680    0.7280  -15.5050 O.2   152  VAL152     -0.2864
     90  CB        49.6730    3.2270  -16.3450 C.3   152  VAL152      0.0276
     91  CG1       48.7540    2.8390  -17.4950 C.3   152  VAL152      0.0022
     92  CG2       49.7870    4.7380  -16.2270 C.3   152  VAL152      0.0022
     93  N         48.9740   -1.0360  -12.9680 N.3   154  GLN154     -0.1245
     94  CA        48.1720   -1.4650  -11.8290 C.3   154  GLN154      0.1566
     95  C         46.6840   -1.3010  -12.1140 C.2   154  GLN154      0.2260
     96  O         45.8600   -2.0700  -11.6210 O.2   154  GLN154     -0.2867
     97  CB        48.5390   -0.6670  -10.5740 C.3   154  GLN154      0.0367
     98  CG        49.9750   -0.8180  -10.1040 C.3   154  GLN154      0.0905
     99  CD        50.3350    0.1910   -9.0270 C.2   154  GLN154      0.2608
    100  OE1       49.4580    0.8070   -8.4200 O.2   154  GLN154     -0.2717
    101  NE2       51.6290    0.3680   -8.7890 N.am  154  GLN154     -0.0878
    102  N         41.3890    6.5530  -17.7020 N.3   178  PHE178     -0.1227
    103  CA        42.1900    6.6150  -16.4830 C.3   178  PHE178      0.1736
    104  C         42.6240    8.0420  -16.1520 C.2   178  PHE178      0.2595
    105  O         42.6430    8.4380  -14.9870 O.2   178  PHE178     -0.2718
    106  CB        43.4200    5.7120  -16.6230 C.3   178  PHE178      0.0547
    107  CG        44.3440    5.7450  -15.4370 C.ar  178  PHE178     -0.0202
    108  CD1       45.4130    6.6250  -15.3990 C.ar  178  PHE178     -0.0042
    109  CD2       44.1490    4.8920  -14.3630 C.ar  178  PHE178     -0.0042
    110  CE1       46.2650    6.6590  -14.3140 C.ar  178  PHE178     -0.0003
    111  CE2       45.0010    4.9180  -13.2740 C.ar  178  PHE178     -0.0003
    112  CZ        46.0600    5.8030  -13.2500 C.ar  178  PHE178     -0.0000
    113  N         42.9850    8.8040  -17.1790 N.am  179  TYR179     -0.1976
    114  CA        43.4430   10.1770  -16.9820 C.3   179  TYR179      0.1639
    115  C         42.3010   11.1860  -16.9750 C.2   179  TYR179      0.2290
    116  O         42.4030   12.2360  -16.3410 O.2   179  TYR179     -0.2864
    117  CB        44.4720   10.5490  -18.0520 C.3   179  TYR179      0.0560
    118  CG        45.8180    9.9050  -17.8190 C.ar  179  TYR179     -0.0198
    119  CD1       46.5970   10.2640  -16.7270 C.ar  179  TYR179     -0.0009
    120  CD2       46.3020    8.9240  -18.6750 C.ar  179  TYR179     -0.0009
    121  CE1       47.8240    9.6760  -16.5010 C.ar  179  TYR179      0.0417
    122  CE2       47.5300    8.3280  -18.4550 C.ar  179  TYR179      0.0417
    123  CZ        48.2860    8.7090  -17.3670 C.ar  179  TYR179      0.1957
    124  OH        49.5090    8.1220  -17.1420 O.3   179  TYR179     -0.2866
    125  N         41.1910   10.9510  -13.4860 N.3   182  MET182     -0.1245
    126  CA        42.1790   11.6500  -12.6710 C.3   182  MET182      0.1570
    127  C         41.9490   13.1600  -12.6640 C.2   182  MET182      0.2261
    128  O         41.9430   13.7890  -11.6060 O.2   182  MET182     -0.2867
    129  CB        43.5920   11.3330  -13.1670 C.3   182  MET182      0.0387
    130  CG        44.7000   11.9820  -12.3560 C.3   182  MET182      0.0595
    131  SD        46.3400   11.5370  -12.9670 S.3   182  MET182     -0.1393
    132  CE        46.3500    9.7790  -12.6320 C.3   182  MET182      0.0692
    133  N         38.4840   13.8900  -10.8130 N.3   185  GLN185     -0.1231
    134  CA        38.5100   13.4580   -9.4200 C.3   185  GLN185      0.1698
    135  C         39.5150   14.2530   -8.5940 C.2   185  GLN185      0.2592
    136  O         39.2280   14.6440   -7.4620 O.2   185  GLN185     -0.2718
    137  CB        38.8340   11.9650   -9.3250 C.3   185  GLN185      0.0381
    138  CG        38.8780   11.4350   -7.8990 C.3   185  GLN185      0.0905
    139  CD        40.2710   11.0150   -7.4700 C.2   185  GLN185      0.2608
    140  OE1       41.2700   11.5220   -7.9800 O.2   185  GLN185     -0.2717
    141  NE2       40.3440   10.0850   -6.5250 N.am  185  GLN185     -0.0878
    142  N         40.6920   14.4920   -9.1620 N.am  186  ARG186     -0.1980
    143  CA        41.7560   15.1700   -8.4320 C.3   186  ARG186      0.1597
    144  C         41.4750   16.6620   -8.2910 C.2   186  ARG186      0.2287
    145  O         41.7850   17.2600   -7.2620 O.2   186  ARG186     -0.2864
    146  CB        43.1050   14.9310   -9.1120 C.3   186  ARG186      0.0334
    147  CG        44.2100   14.5430   -8.1410 C.3   186  ARG186      0.0492
    148  CD        44.9160   13.2710   -8.5780 C.3   186  ARG186      0.2205
    149  NE        43.9910   12.1420   -8.6250 N.pl3 186  ARG186     -0.0865
    150  CZ        44.3550   10.8820   -8.8440 C.cat 186  ARG186      0.5346
    151  NH1       43.4400    9.9210   -8.8690 N.pl3 186  ARG186      0.1354
    152  NH2       45.6320   10.5800   -9.0340 N.pl3 186  ARG186      0.1354
    153  N         39.0180   17.0020   -5.4620 N.3   189  PHE189     -0.1227
    154  CA        39.6300   16.9900   -4.1370 C.3   189  PHE189      0.1736
    155  C         40.4200   18.2720   -3.8670 C.2   189  PHE189      0.2595
    156  O         40.6960   18.6070   -2.7150 O.2   189  PHE189     -0.2718
    157  CB        40.5400   15.7680   -3.9760 C.3   189  PHE189      0.0547
    158  CG        39.8160   14.5190   -3.5490 C.ar  189  PHE189     -0.0202
    159  CD1       39.1380   14.4730   -2.3410 C.ar  189  PHE189     -0.0042
    160  CD2       39.8260   13.3860   -4.3470 C.ar  189  PHE189     -0.0042
    161  CE1       38.4780   13.3230   -1.9400 C.ar  189  PHE189     -0.0003
    162  CE2       39.1670   12.2330   -3.9520 C.ar  189  PHE189     -0.0003
    163  CZ        38.4930   12.2030   -2.7480 C.ar  189  PHE189     -0.0000
    164  N         40.7780   18.9860   -4.9300 N.am  190  HIS190     -0.1975
    165  CA        41.5200   20.2370   -4.7960 C.3   190  HIS190      0.1656
    166  C         40.5830   21.4140   -4.5370 C.2   190  HIS190      0.2291
    167  O         41.0310   22.5470   -4.3620 O.2   190  HIS190     -0.2864
    168  CB        42.3500   20.5070   -6.0540 C.3   190  HIS190      0.0771
    169  CG        43.5250   19.5910   -6.2140 C.ar  190  HIS190      0.0820
    170  ND1       44.0420   18.8550   -5.1720 N.ar  190  HIS190     -0.2267
    171  CD2       44.2750   19.2900   -7.3000 C.ar  190  HIS190      0.1154
    172  CE1       45.0670   18.1390   -5.6090 C.ar  190  HIS190      0.1986
    173  NE2       45.2280   18.3860   -6.8940 N.ar  190  HIS190     -0.2212
    174  N         35.7470   17.8680    0.3360 N.3   194  GLN194     -0.1231
    175  CA        36.0190   16.4530    0.0900 C.3   194  GLN194      0.1698
    176  C         34.8710   15.7080   -0.5860 C.2   194  GLN194      0.2592
    177  O         35.0800   14.6570   -1.1910 O.2   194  GLN194     -0.2718
    178  CB        36.3690   15.7550    1.4060 C.3   194  GLN194      0.0381
    179  CG        37.6220   16.2930    2.0750 C.3   194  GLN194      0.0905
    180  CD        38.8590   16.1170    1.2170 C.2   194  GLN194      0.2608
    181  OE1       39.4340   15.0300    1.1520 O.2   194  GLN194     -0.2717
    182  NE2       39.2750   17.1880    0.5510 N.am  194  GLN194     -0.0878
    183  N         33.6610   16.2460   -0.4730 N.am  195  ILE195     -0.1980
    184  CA        32.4740   15.5580   -0.9690 C.3   195  ILE195      0.1595
    185  C         32.4820   15.3640   -2.4850 C.2   195  ILE195      0.2287
    186  O         32.0050   14.3440   -2.9830 O.2   195  ILE195     -0.2864
    187  CB        31.1880   16.3140   -0.5760 C.3   195  ILE195      0.0276
    188  CG1       29.9610   15.4330   -0.8110 C.3   195  ILE195      0.0022
    189  CG2       31.0540   17.5970   -1.3770 C.3   195  ILE195      0.0022
    190  CD1       29.8510   14.2760    0.1460 C.3   195  ILE195      0.0001
    191  N         34.9070   12.6450   -3.2570 N.3   198  LEU198     -0.1231
    192  CA        34.4170   11.3980   -2.6900 C.3   198  LEU198      0.1693
    193  C         33.3500   10.7650   -3.5790 C.2   198  LEU198      0.2591
    194  O         33.2380    9.5410   -3.6510 O.2   198  LEU198     -0.2718
    195  CB        33.8540   11.6440   -1.2890 C.3   198  LEU198      0.0284
    196  CG        34.2610   10.6510   -0.2000 C.3   198  LEU198      0.0019
    197  CD1       35.7750   10.5200   -0.1430 C.3   198  LEU198      0.0001
    198  CD2       33.7000   11.0700    1.1500 C.3   198  LEU198      0.0001
    199  N         32.5670   11.6060   -4.2480 N.am  199  ILE199     -0.1980
    200  CA        31.5590   11.1330   -5.1930 C.3   199  ILE199      0.1595
    201  C         32.1830   10.3410   -6.3380 C.2   199  ILE199      0.2287
    202  O         31.6830    9.2820   -6.7160 O.2   199  ILE199     -0.2864
    203  CB        30.7400   12.2980   -5.7810 C.3   199  ILE199      0.0276
    204  CG1       29.8740   12.9460   -4.6990 C.3   199  ILE199      0.0022
    205  CG2       29.8660   11.8040   -6.9230 C.3   199  ILE199      0.0022
    206  CD1       29.2170   14.2390   -5.1380 C.3   199  ILE199      0.0001
    207  N         35.1810    8.8410   -6.3320 N.3   201  ASN201     -0.1225
    208  CA        35.6980    7.6040   -5.7530 C.3   201  ASN201      0.1785
    209  C         34.6160    6.5330   -5.6570 C.2   201  ASN201      0.2598
    210  O         34.8420    5.3740   -6.0040 O.2   201  ASN201     -0.2718
    211  CB        36.2980    7.8650   -4.3680 C.3   201  ASN201      0.1169
    212  CG        37.6840    8.4750   -4.4360 C.2   201  ASN201      0.2627
    213  OD1       38.1810    8.8020   -5.5140 O.2   201  ASN201     -0.2716
    214  ND2       38.3200    8.6280   -3.2810 N.am  201  ASN201     -0.0877
    215  N         33.4410    6.9320   -5.1810 N.am  202  GLY202     -0.1942
    216  CA        32.3240    6.0210   -5.0160 C.3   202  GLY202      0.2014
    217  C         31.7810    5.4620   -6.3190 C.2   202  GLY202      0.2638
    218  O         31.1570    4.4020   -6.3330 O.2   202  GLY202     -0.2714
    219  N         32.0150    6.1770   -7.4160 N.am  203  LEU203     -0.1977
    220  CA        31.4380    5.8080   -8.7060 C.3   203  LEU203      0.1596
    221  C         32.4910    5.3860   -9.7290 C.2   203  LEU203      0.2287
    222  O         32.2190    5.3610  -10.9300 O.2   203  LEU203     -0.2864
    223  CB        30.6140    6.9720   -9.2670 C.3   203  LEU203      0.0297
    224  CG        29.3730    7.3930   -8.4770 C.3   203  LEU203      0.0022
    225  CD1       28.8560    8.7420   -8.9580 C.3   203  LEU203      0.0001
    226  CD2       28.2850    6.3330   -8.5750 C.3   203  LEU203      0.0001
@<TRIPOS>BOND
     1    62    61    2
     2    61    60    1
     3    59    60    1
     4    60    63    1
     5    63    64    1
     6   120   122   ar
     7   120   118   ar
     8   122   123   ar
     9   117   118    1
    10   117   114    1
    11   118   119   ar
    12   102   103    1
    13    91    90    1
    14    54    53    2
    15   123   124    1
    16   123   121   ar
    17   113   114    1
    18   113   104   am
    19   114   115    1
    20   115   116    2
    21    53    52    1
    22   119   121   ar
    23   106   103    1
    24   106   107    1
    25   103   104    1
    26    90    92    1
    27    90    87    1
    28    51    52    1
    29   104   105    2
    30    52    55    1
    31    89    88    2
    32   107   108   ar
    33   107   109   ar
    34   108   110   ar
    35    88    87    1
    36    57    56    2
    37    87    86    1
    38    65    66    1
    39    67    68    2
    40    67    66    1
    41    55    56    1
    42    47    46    2
    43   109   111   ar
    44    56    58   am
    45   110   112   ar
    46    66    69    1
    47    72    74   ar
    48    72    70   ar
    49    86    79   am
    50    46    45    1
    51    69    70    1
    52    36    35    2
    53   125   126    1
    54    74    75   ar
    55   111   112   ar
    56    70    71   ar
    57   129   126    1
    58   129   130    1
    59    93    94    1
    60   131   132    1
    61   131   130    1
    62    35    34    1
    63    35    44   am
    64   126   127    1
    65   127   128    2
    66    79    80    2
    67    79    78    1
    68    45    44    1
    69    45    48    1
    70    33    34    1
    71    34    37    1
    72    95    94    1
    73    95    96    2
    74    50    48    1
    75    75    76    1
    76    75    73   ar
    77    77    78    1
    78    94    97    1
    79    71    73   ar
    80    78    81    1
    81    48    49    1
    82    81    82    1
    83    37    38    1
    84   222   221    2
    85   133   134    1
    86    38    39    1
    87    97    98    1
    88    82    83    1
    89    20    19    2
    90    98    99    1
    91   221   220    1
    92    28    27    2
    93   134   137    1
    94   134   135    1
    95   137   138    1
    96    23    22    1
    97   223   220    1
    98   223   224    1
    99    19    18    1
   100    39    40    1
   101   142   135   am
   102   142   143    1
   103   146   143    1
   104   146   147    1
   105    27    26    1
   106   152   150    1
   107    99   101   am
   108    99   100    2
   109    83    84    1
   110   225   224    1
   111   151   150    1
   112   150   149    2
   113    40    41    2
   114   220   219    1
   115   149   148    1
   116   135   136    2
   117   148   147    1
   118   226   224    1
   119    18    17    1
   120    18    21    1
   121   143   144    1
   122   144   145    2
   123    22    21    1
   124    22    24    1
   125    41    42    1
   126    41    43    1
   127    84    85    1
   128   140   139    2
   129    26    25    1
   130    26    29    1
   131   138   139    1
   132   139   141   am
   133   219   217   am
   134   171   173   ar
   135   171   169   ar
   136   205   203    1
   137   173   172   ar
   138   202   201    2
   139    29    30    1
   140   201   200    1
   141   218   217    2
   142   207   208    1
   143   217   216    1
   144   169   168    1
   145   169   170   ar
   146   168   165    1
   147   210   209    2
   148   203   200    1
   149   203   204    1
   150   208   209    1
   151   208   211    1
   152   209   215   am
   153   172   170   ar
   154    12    11    2
   155   213   212    2
   156    30    31    2
   157    30    32   am
   158   153   154    1
   159     4     3    2
   160   200   199    1
   161   215   216    1
   162   206   204    1
   163   164   165    1
   164   164   155   am
   165   165   166    1
   166    11    10    1
   167   166   167    2
   168   212   211    1
   169   212   214   am
   170   160   162   ar
   171   160   158   ar
   172     3     9   am
   173     3     2    1
   174   199   193   am
   175   154   157    1
   176   154   155    1
   177    10     9    1
   178    10    13    1
   179   157   158    1
   180   162   163   ar
   181   155   156    2
   182   194   193    2
   183     2     5    1
   184     2     1    1
   185   193   192    1
   186   158   159   ar
   187   191   192    1
   188     5     7    1
   189     5     6    1
   190    15    14    1
   191   186   185    2
   192    13    14    1
   193   163   161   ar
   194   192   195    1
   195   185   184    1
   196     6     8    1
   197   159   161   ar
   198    14    16    1
   199   189   187    1
   200   195   196    1
   201   177   176    2
   202   184   187    1
   203   184   183    1
   204   188   187    1
   205   188   190    1
   206   176   183   am
   207   176   175    1
   208   196   197    1
   209   196   198    1
   210   175   174    1
   211   175   178    1
   212   182   180   am
   213   181   180    2
   214   180   179    1
   215   178   179    1
