@<TRIPOS>MOLECULE
tmp/5dv5B01.pdb
 144 141 0 0 0
SMALL
GASTEIGER

@<TRIPOS>ATOM
      1  N         11.9140    2.1470  -13.0380 N.3    15  ILE15      -0.1231
      2  CA        12.1070    2.3000  -11.6020 C.3    15  ILE15       0.1692
      3  C         12.8220    3.6120  -11.3050 C.2    15  ILE15       0.2592
      4  O         12.4530    4.3460  -10.3890 O.2    15  ILE15      -0.2718
      5  CB        12.9250    1.1360  -11.0070 C.3    15  ILE15       0.0266
      6  CG1       12.1880   -0.1920  -11.1870 C.3    15  ILE15       0.0019
      7  CG2       13.2250    1.3910   -9.5380 C.3    15  ILE15       0.0020
      8  CD1       13.0170   -1.4030  -10.8120 C.3    15  ILE15       0.0001
      9  N         13.8520    3.8920  -12.0960 N.am   16  TRP16      -0.1962
     10  CA        14.6720    5.0880  -11.9340 C.3    16  TRP16       0.1771
     11  C         13.8810    6.3930  -12.0540 C.2    16  TRP16       0.2620
     12  O         14.0330    7.2880  -11.2230 O.2    16  TRP16      -0.2715
     13  CB        15.8160    5.0670  -12.9500 C.3    16  TRP16       0.0590
     14  CG        16.6710    6.2920  -12.9340 C.ar   16  TRP16       0.0006
     15  CD1       16.6500    7.3220  -13.8270 C.ar   16  TRP16       0.0946
     16  CD2       17.6770    6.6190  -11.9670 C.ar   16  TRP16       0.0152
     17  NE1       17.5860    8.2680  -13.4810 N.ar   16  TRP16      -0.2442
     18  CE2       18.2280    7.8600  -12.3410 C.ar   16  TRP16       0.0810
     19  CE3       18.1660    5.9820  -10.8230 C.ar   16  TRP16       0.0012
     20  CZ2       19.2430    8.4760  -11.6120 C.ar   16  TRP16       0.0191
     21  CZ3       19.1730    6.5940  -10.1010 C.ar   16  TRP16       0.0001
     22  CH2       19.7000    7.8280  -10.4980 C.ar   16  TRP16       0.0015
     23  N         13.0420    6.5080  -13.0810 N.am   17  ASN17      -0.1958
     24  CA        12.3050    7.7520  -13.3040 C.3    17  ASN17       0.1819
     25  C         10.9830    7.8270  -12.5380 C.2    17  ASN17       0.2621
     26  O         10.2490    8.8080  -12.6530 O.2    17  ASN17      -0.2715
     27  CB        12.0530    7.9670  -14.8040 C.3    17  ASN17       0.1195
     28  CG        11.1990    6.8760  -15.4280 C.2    17  ASN17       0.2630
     29  OD1       10.4980    6.1380  -14.7360 O.2    17  ASN17      -0.2716
     30  ND2       11.2510    6.7760  -16.7510 N.am   17  ASN17      -0.0877
     31  N         10.6800    6.7940  -11.7590 N.am   18  GLY18      -0.1954
     32  CA         9.5330    6.8360  -10.8700 C.3    18  GLY18       0.1869
     33  C          8.2480    6.1810  -11.3500 C.2    18  GLY18       0.2309
     34  O          7.2710    6.1300  -10.6020 O.2    18  GLY18      -0.2863
     35  N          7.8180    3.0220   -8.8150 N.3    21  PRO21      -0.2103
     36  CA         8.3920    3.5920   -7.5910 C.3    21  PRO21       0.1489
     37  C          8.9400    2.5190   -6.6590 C.2    21  PRO21       0.2417
     38  O          8.4180    1.4050   -6.6390 O.2    21  PRO21      -0.2734
     39  CB         7.2050    4.3220   -6.9510 C.3    21  PRO21       0.0282
     40  CG         6.2480    4.5570   -8.0730 C.3    21  PRO21       0.0208
     41  CD         6.3930    3.3600   -8.9590 C.3    21  PRO21       0.0893
     42  N          9.9930    2.8570   -5.9010 N.am   22  PRO22      -0.2729
     43  CA        10.7600    1.9530   -5.0370 C.3    22  PRO22       0.1401
     44  C          9.9160    1.0840   -4.1000 C.2    22  PRO22       0.2269
     45  O         10.3730    0.0240   -3.6920 O.2    22  PRO22      -0.2865
     46  CB        11.6280    2.9170   -4.2260 C.3    22  PRO22       0.0296
     47  CG        11.8570    4.0560   -5.1530 C.3    22  PRO22       0.0237
     48  CD        10.5640    4.2170   -5.9110 C.3    22  PRO22       0.0939
     49  N         17.2370   -4.7570   -7.7340 N.3    55  TRP55      -0.1241
     50  CA        16.1780   -3.8360   -8.1330 C.3    55  TRP55       0.1605
     51  C         14.8110   -4.2910   -7.6290 C.2    55  TRP55       0.2264
     52  O         13.9960   -3.4730   -7.2030 O.2    55  TRP55      -0.2867
     53  CB        16.1440   -3.6720   -9.6540 C.3    55  TRP55       0.0550
     54  CG        17.3170   -2.9180  -10.1990 C.ar   55  TRP55       0.0003
     55  CD1       18.4610   -3.4450  -10.7240 C.ar   55  TRP55       0.0946
     56  CD2       17.4710   -1.4940  -10.2510 C.ar   55  TRP55       0.0152
     57  NE1       19.3110   -2.4380  -11.1130 N.ar   55  TRP55      -0.2442
     58  CE2       18.7270   -1.2310  -10.8320 C.ar   55  TRP55       0.0810
     59  CE3       16.6650   -0.4170   -9.8680 C.ar   55  TRP55       0.0012
     60  CZ2       19.1980    0.0650  -11.0390 C.ar   55  TRP55       0.0191
     61  CZ3       17.1340    0.8690  -10.0740 C.ar   55  TRP55       0.0001
     62  CH2       18.3880    1.0990  -10.6540 C.ar   55  TRP55       0.0015
     63  N         15.2410    0.3890   -1.1150 N.3    69  PHE69      -0.1227
     64  CA        16.4740    1.1630   -1.1090 C.3    69  PHE69       0.1736
     65  C         16.5720    2.0120    0.1440 C.2    69  PHE69       0.2595
     66  O         15.8320    1.8030    1.1050 O.2    69  PHE69      -0.2718
     67  CB        16.5600    2.0730   -2.3310 C.3    69  PHE69       0.0547
     68  CG        16.5020    1.3510   -3.6370 C.ar   69  PHE69      -0.0202
     69  CD1       17.5710    0.5850   -4.0600 C.ar   69  PHE69      -0.0042
     70  CD2       15.3810    1.4410   -4.4450 C.ar   69  PHE69      -0.0042
     71  CE1       17.5310   -0.0770   -5.2640 C.ar   69  PHE69      -0.0003
     72  CE2       15.3310    0.7730   -5.6550 C.ar   69  PHE69      -0.0003
     73  CZ        16.4090    0.0120   -6.0630 C.ar   69  PHE69      -0.0000
     74  N         17.4880    2.9740    0.1180 N.am   70  MET70      -0.1979
     75  CA        17.7020    3.8710    1.2410 C.3    70  MET70       0.1605
     76  C         18.0060    3.0760    2.5190 C.2    70  MET70       0.2287
     77  O         17.2140    3.0730    3.4640 O.2    70  MET70      -0.2864
     78  CB        16.4620    4.7400    1.4180 C.3    70  MET70       0.0413
     79  CG        16.0180    5.3850    0.1010 C.3    70  MET70       0.0598
     80  SD        17.3330    6.2470   -0.7760 S.3    70  MET70      -0.1393
     81  CE        16.5270    6.5510   -2.3490 C.3    70  MET70       0.0692
     82  N         21.7720    0.3910   -2.4420 N.3    77  ILE77      -0.1231
     83  CA        21.9690    1.2670   -3.5900 C.3    77  ILE77       0.1692
     84  C         23.3130    0.9910   -4.2560 C.2    77  ILE77       0.2591
     85  O         23.5910    1.4890   -5.3470 O.2    77  ILE77      -0.2718
     86  CB        21.8990    2.7550   -3.1980 C.3    77  ILE77       0.0266
     87  CG1       23.1420    3.1590   -2.4050 C.3    77  ILE77       0.0019
     88  CG2       20.6260    3.0420   -2.4170 C.3    77  ILE77       0.0020
     89  CD1       23.3470    4.6550   -2.3100 C.3    77  ILE77       0.0001
     90  N         24.1430    0.1900   -3.5950 N.am   78  LEU78      -0.1980
     91  CA        25.5160   -0.0120   -4.0440 C.3    78  LEU78       0.1596
     92  C         25.7150   -1.3900   -4.6570 C.2    78  LEU78       0.2287
     93  O         26.5170   -1.5600   -5.5760 O.2    78  LEU78      -0.2864
     94  CB        26.4900    0.1820   -2.8800 C.3    78  LEU78       0.0297
     95  CG        26.4610    1.4950   -2.0960 C.3    78  LEU78       0.0022
     96  CD1       26.2730    2.6810   -3.0270 C.3    78  LEU78       0.0001
     97  CD2       25.3860    1.4640   -1.0180 C.3    78  LEU78       0.0001
     98  N         23.4510   -2.7220   -6.2510 N.3    80  THR80      -0.1203
     99  CA        22.8000   -2.4900   -7.5300 C.3    80  THR80       0.1994
    100  C         23.7380   -1.6860   -8.4180 C.2    80  THR80       0.2617
    101  O         23.7800   -1.8800   -9.6330 O.2    80  THR80      -0.2717
    102  CB        21.4690   -1.7330   -7.3670 C.3    80  THR80       0.1784
    103  OG1       21.7200   -0.4330   -6.8190 O.3    80  THR80      -0.2211
    104  CG2       20.5280   -2.4940   -6.4450 C.3    80  THR80       0.0376
    105  N         24.4820   -0.7740   -7.8000 N.am   81  LEU81      -0.1979
    106  CA        25.4180    0.0760   -8.5230 C.3    81  LEU81       0.1596
    107  C         26.4740   -0.7630   -9.2350 C.2    81  LEU81       0.2287
    108  O         27.0040   -0.3620  -10.2710 O.2    81  LEU81      -0.2864
    109  CB        26.0880    1.0720   -7.5740 C.3    81  LEU81       0.0297
    110  CG        27.1510    1.9720   -8.2070 C.3    81  LEU81       0.0022
    111  CD1       26.5490    2.8230   -9.3170 C.3    81  LEU81       0.0001
    112  CD2       27.8130    2.8480   -7.1530 C.3    81  LEU81       0.0001
    113  N         25.2550   -1.7320  -12.7300 N.3    84  LEU84      -0.1245
    114  CA        24.9310   -0.6770  -13.6830 C.3    84  LEU84       0.1561
    115  C         25.9340   -0.6440  -14.8300 C.2    84  LEU84       0.2260
    116  O         27.1440   -0.7000  -14.6120 O.2    84  LEU84      -0.2867
    117  CB        24.8890    0.6830  -12.9810 C.3    84  LEU84       0.0270
    118  CG        23.9010    0.8170  -11.8200 C.3    84  LEU84       0.0019
    119  CD1       23.8400    2.2550  -11.3280 C.3    84  LEU84       0.0001
    120  CD2       22.5220    0.3260  -12.2280 C.3    84  LEU84       0.0001
    121  N         20.3330    6.3880  -16.3820 N.3    92  ILE92      -0.1245
    122  CA        21.0320    6.6190  -15.1250 C.3    92  ILE92       0.1561
    123  C         22.4110    7.2130  -15.3980 C.2    92  ILE92       0.2260
    124  O         22.8790    8.0860  -14.6670 O.2    92  ILE92      -0.2867
    125  CB        21.1820    5.3250  -14.3030 C.3    92  ILE92       0.0252
    126  CG1       19.8100    4.7080  -14.0230 C.3    92  ILE92       0.0019
    127  CG2       21.9120    5.6060  -12.9970 C.3    92  ILE92       0.0019
    128  CD1       19.8650    3.4680  -13.1560 C.3    92  ILE92       0.0001
    129  N         23.9330   11.0570  -14.5260 N.3    96  LEU96      -0.1245
    130  CA        25.2210   11.2410  -13.8680 C.3    96  LEU96       0.1561
    131  C         26.1380   12.1230  -14.7110 C.2    96  LEU96       0.2260
    132  O         26.8800   12.9500  -14.1800 O.2    96  LEU96      -0.2867
    133  CB        25.8850    9.8890  -13.5950 C.3    96  LEU96       0.0270
    134  CG        25.2860    9.0750  -12.4450 C.3    96  LEU96       0.0019
    135  CD1       25.9490    7.7110  -12.3400 C.3    96  LEU96       0.0001
    136  CD2       25.4110    9.8330  -11.1300 C.3    96  LEU96       0.0001
    137  N         32.0150    6.1770   -7.4160 N.3   203  LEU203     -0.1245
    138  CA        31.4380    5.8080   -8.7060 C.3   203  LEU203      0.1561
    139  C         32.4910    5.3860   -9.7290 C.2   203  LEU203      0.2260
    140  O         32.2190    5.3610  -10.9300 O.2   203  LEU203     -0.2867
    141  CB        30.6140    6.9720   -9.2670 C.3   203  LEU203      0.0270
    142  CG        29.3730    7.3930   -8.4770 C.3   203  LEU203      0.0019
    143  CD1       28.8560    8.7420   -8.9580 C.3   203  LEU203      0.0001
    144  CD2       28.2850    6.3330   -8.5750 C.3   203  LEU203      0.0001
@<TRIPOS>BOND
     1    30    28   am
     2   121   122    1
     3    28    27    1
     4    28    29    2
     5   123   122    1
     6   123   124    2
     7   122   125    1
     8   115   116    2
     9   115   114    1
    10    27    24    1
    11   131   132    2
    12   131   130    1
    13   129   130    1
    14   125   126    1
    15   125   127    1
    16   126   128    1
    17   130   133    1
    18    15    17   ar
    19    15    14   ar
    20   114   117    1
    21   114   113    1
    22   133   134    1
    23    17    18   ar
    24    24    23    1
    25    24    25    1
    26    23    11   am
    27     1     2    1
    28   117   118    1
    29    13    14    1
    30    13    10    1
    31    14    16   ar
    32    26    25    2
    33    25    31   am
    34   134   135    1
    35   134   136    1
    36    18    16   ar
    37    18    20   ar
    38   120   118    1
    39     9    10    1
    40     9     3   am
    41    11    10    1
    42    11    12    2
    43    16    19   ar
    44   118   119    1
    45    31    32    1
    46    20    22   ar
    47     2     3    1
    48     2     5    1
    49    33    32    1
    50    33    34    2
    51     3     4    2
    52     6     5    1
    53     6     8    1
    54    57    58   ar
    55    57    55   ar
    56    60    58   ar
    57    60    62   ar
    58     5     7    1
    59   140   139    2
    60    58    56   ar
    61    19    21   ar
    62    55    54   ar
    63    62    61   ar
    64    22    21   ar
    65   108   107    2
    66    56    54   ar
    67    56    59   ar
    68    54    53    1
    69    61    59   ar
    70   139   138    1
    71    53    50    1
    72   101   100    2
    73   111   110    1
    74   141   138    1
    75   141   142    1
    76   107   106    1
    77    41    35    1
    78    41    40    1
    79   143   142    1
    80    35    36    1
    81   138   137    1
    82   144   142    1
    83   106   105    1
    84   106   109    1
    85   100   105   am
    86   100    99    1
    87   110   109    1
    88   110   112    1
    89    50    49    1
    90    50    51    1
    91    40    39    1
    92    51    52    2
    93    36    39    1
    94    36    37    1
    95    99   102    1
    96    99    98    1
    97   102   103    1
    98   102   104    1
    99    37    38    2
   100    37    42   am
   101    73    72   ar
   102    73    71   ar
   103    48    42    1
   104    48    47    1
   105    42    43    1
   106    72    70   ar
   107    93    92    2
   108    85    84    2
   109    71    69   ar
   110    47    46    1
   111    43    46    1
   112    43    44    1
   113    92    91    1
   114    70    68   ar
   115    84    90   am
   116    84    83    1
   117    44    45    2
   118    69    68   ar
   119    91    90    1
   120    91    94    1
   121    68    67    1
   122    83    86    1
   123    83    82    1
   124    86    88    1
   125    86    87    1
   126    96    95    1
   127    94    95    1
   128    87    89    1
   129    81    80    1
   130    67    64    1
   131    95    97    1
   132    63    64    1
   133    64    65    1
   134    80    79    1
   135    79    78    1
   136    74    65   am
   137    74    75    1
   138    65    66    2
   139    75    78    1
   140    75    76    1
   141    76    77    2
