@<TRIPOS>MOLECULE
tmp/5dv5B00.pdb
 86 82 0 0 0
SMALL
GASTEIGER

@<TRIPOS>ATOM
      1  N         35.9990   25.7050   -9.9280 N.3   109  ARG109     -0.1231
      2  CA        36.1010   27.1190   -9.6010 C.3   109  ARG109      0.1694
      3  C         36.8460   27.2770   -8.2820 C.2   109  ARG109      0.2592
      4  O         37.7790   28.0730   -8.1710 O.2   109  ARG109     -0.2718
      5  CB        34.7130   27.7560   -9.5190 C.3   109  ARG109      0.0321
      6  CG        34.7190   29.2610   -9.3150 C.3   109  ARG109      0.0489
      7  CD        33.3050   29.7920   -9.1400 C.3   109  ARG109      0.2205
      8  NE        33.2770   31.2460   -9.0110 N.pl3 109  ARG109     -0.0865
      9  CZ        33.1440   32.0850  -10.0340 C.cat 109  ARG109      0.5346
     10  NH1       33.0180   31.6160  -11.2680 N.pl3 109  ARG109      0.1354
     11  NH2       33.1310   33.3940   -9.8220 N.pl3 109  ARG109      0.1354
     12  N         36.4200   26.5090   -7.2840 N.am  110  TYR110     -0.1976
     13  CA        37.0870   26.4760   -5.9880 C.3   110  TYR110      0.1639
     14  C         38.5530   26.0650   -6.1170 C.2   110  TYR110      0.2290
     15  O         39.4230   26.6080   -5.4350 O.2   110  TYR110     -0.2864
     16  CB        36.3670   25.5110   -5.0430 C.3   110  TYR110      0.0560
     17  CG        34.9960   25.9750   -4.6030 C.ar  110  TYR110     -0.0198
     18  CD1       34.7300   27.3190   -4.3930 C.ar  110  TYR110     -0.0009
     19  CD2       33.9710   25.0630   -4.3880 C.ar  110  TYR110     -0.0009
     20  CE1       33.4790   27.7450   -3.9880 C.ar  110  TYR110      0.0417
     21  CE2       32.7170   25.4790   -3.9820 C.ar  110  TYR110      0.0417
     22  CZ        32.4770   26.8210   -3.7830 C.ar  110  TYR110      0.1957
     23  OH        31.2300   27.2410   -3.3780 O.3   110  TYR110     -0.2866
     24  N         40.9190   28.6430   -7.7100 N.3   113  LYS113     -0.1231
     25  CA        41.0250   29.8420   -6.8870 C.3   113  LYS113      0.1693
     26  C         41.8970   29.6350   -5.6500 C.2   113  LYS113      0.2591
     27  O         42.6860   30.5070   -5.2860 O.2   113  LYS113     -0.2718
     28  CB        39.6300   30.3060   -6.4640 C.3   113  LYS113      0.0285
     29  CG        39.5920   31.7030   -5.8760 C.3   113  LYS113      0.0035
     30  CD        40.1710   32.7060   -6.8550 C.3   113  LYS113      0.0206
     31  CE        39.5440   32.5450   -8.2290 C.3   113  LYS113      0.1093
     32  NZ        40.1890   33.4260   -9.2400 N.3   113  LYS113     -0.1314
     33  N         41.7490   28.4830   -5.0050 N.am  114  ALA114     -0.1980
     34  CA        42.4970   28.1860   -3.7880 C.3   114  ALA114      0.1597
     35  C         43.7130   27.3090   -4.0700 C.2   114  ALA114      0.2287
     36  O         44.6430   27.2440   -3.2670 O.2   114  ALA114     -0.2864
     37  CB        41.5930   27.5180   -2.7630 C.3   114  ALA114      0.0319
     38  N         39.2830   21.1400   -4.5150 N.3   191  SER191     -0.1202
     39  CA        38.2850   22.1730   -4.2590 C.3   191  SER191      0.2020
     40  C         38.2740   22.6220   -2.8000 C.2   191  SER191      0.2619
     41  O         37.8770   23.7450   -2.4920 O.2   191  SER191     -0.2717
     42  CB        36.8920   21.6770   -4.6570 C.3   191  SER191      0.2103
     43  OG        36.4860   20.5890   -3.8430 O.3   191  SER191     -0.2182
     44  N         38.7120   21.7410   -1.9070 N.am  192  GLY192     -0.1956
     45  CA        38.6730   22.0190   -0.4840 C.3   192  GLY192      0.1869
     46  C         37.4810   21.3340    0.1570 C.2   192  GLY192      0.2309
     47  O         37.4020   21.2010    1.3790 O.2   192  GLY192     -0.2863
     48  N         33.6610   16.2460   -0.4730 N.3   195  ILE195     -0.1231
     49  CA        32.4740   15.5580   -0.9690 C.3   195  ILE195      0.1692
     50  C         32.4820   15.3640   -2.4850 C.2   195  ILE195      0.2592
     51  O         32.0050   14.3440   -2.9830 O.2   195  ILE195     -0.2718
     52  CB        31.1880   16.3140   -0.5760 C.3   195  ILE195      0.0266
     53  CG1       29.9610   15.4330   -0.8110 C.3   195  ILE195      0.0019
     54  CG2       31.0540   17.5970   -1.3770 C.3   195  ILE195      0.0020
     55  CD1       29.8510   14.2760    0.1460 C.3   195  ILE195      0.0001
     56  N         33.0340   16.3280   -3.2150 N.am  196  TYR196     -0.1976
     57  CA        33.0950   16.2300   -4.6700 C.3   196  TYR196      0.1639
     58  C         34.0650   15.1450   -5.1130 C.2   196  TYR196      0.2290
     59  O         33.7820   14.3890   -6.0390 O.2   196  TYR196     -0.2864
     60  CB        33.4890   17.5760   -5.2800 C.3   196  TYR196      0.0560
     61  CG        32.4760   18.6620   -5.0160 C.ar  196  TYR196     -0.0198
     62  CD1       31.1740   18.5490   -5.4820 C.ar  196  TYR196     -0.0009
     63  CD2       32.8160   19.7930   -4.2890 C.ar  196  TYR196     -0.0009
     64  CE1       30.2400   19.5370   -5.2370 C.ar  196  TYR196      0.0417
     65  CE2       31.8900   20.7850   -4.0380 C.ar  196  TYR196      0.0417
     66  CZ        30.6030   20.6520   -4.5140 C.ar  196  TYR196      0.1957
     67  OH        29.6770   21.6380   -4.2670 O.3   196  TYR196     -0.2866
     68  N         32.5670   11.6060   -4.2480 N.3   199  ILE199     -0.1245
     69  CA        31.5590   11.1330   -5.1930 C.3   199  ILE199      0.1561
     70  C         32.1830   10.3410   -6.3380 C.2   199  ILE199      0.2260
     71  O         31.6830    9.2820   -6.7160 O.2   199  ILE199     -0.2867
     72  CB        30.7400   12.2980   -5.7810 C.3   199  ILE199      0.0252
     73  CG1       29.8740   12.9460   -4.6990 C.3   199  ILE199      0.0019
     74  CG2       29.8660   11.8040   -6.9230 C.3   199  ILE199      0.0019
     75  CD1       29.2170   14.2390   -5.1380 C.3   199  ILE199      0.0001
     76  N         37.7100   33.1580  -14.3060 N.3   240  ARG240     -0.1245
     77  CA        36.6760   32.3160  -13.7080 C.3   240  ARG240      0.1563
     78  C         35.3910   32.2360  -14.5320 C.2   240  ARG240      0.2260
     79  O         34.8950   31.1420  -14.8010 O.2   240  ARG240     -0.2867
     80  CB        36.3390   32.7970  -12.2910 C.3   240  ARG240      0.0307
     81  CG        37.5190   32.7540  -11.3320 C.3   240  ARG240      0.0489
     82  CD        37.3710   33.7420  -10.1830 C.3   240  ARG240      0.2205
     83  NE        36.2790   33.3570   -9.2920 N.pl3 240  ARG240     -0.0865
     84  CZ        35.9320   34.0240   -8.1960 C.cat 240  ARG240      0.5346
     85  NH1       36.5890   35.1220   -7.8490 N.pl3 240  ARG240      0.1354
     86  NH2       34.9290   33.5900   -7.4440 N.pl3 240  ARG240      0.1354
@<TRIPOS>BOND
     1    79    78    2
     2    78    77    1
     3    76    77    1
     4    77    80    1
     5    80    81    1
     6    81    82    1
     7    10     9    1
     8    82    83    1
     9     9    11    1
    10     9     8    2
    11     1     2    1
    12     2     5    1
    13     2     3    1
    14     5     6    1
    15     6     7    1
    16    83    84    2
    17    32    31    1
    18     7     8    1
    19     3     4    2
    20     3    12   am
    21    31    30    1
    22    84    85    1
    23    84    86    1
    24    24    25    1
    25    12    13    1
    26    74    72    1
    27    25    28    1
    28    25    26    1
    29    30    29    1
    30    71    70    2
    31    28    29    1
    32    70    69    1
    33    14    13    1
    34    14    15    2
    35    59    58    2
    36    13    16    1
    37    72    69    1
    38    72    73    1
    39    26    27    2
    40    26    33   am
    41    62    64   ar
    42    62    61   ar
    43    60    61    1
    44    60    57    1
    45    64    66   ar
    46    69    68    1
    47    75    73    1
    48    58    57    1
    49    16    17    1
    50    61    63   ar
    51    33    34    1
    52    57    56    1
    53    42    39    1
    54    42    43    1
    55    17    18   ar
    56    17    19   ar
    57    38    39    1
    58    66    67    1
    59    66    65   ar
    60    18    20   ar
    61    19    21   ar
    62    63    65   ar
    63    39    40    1
    64    35    34    1
    65    35    36    2
    66    20    22   ar
    67    21    22   ar
    68    34    37    1
    69    22    23    1
    70    56    50   am
    71    51    50    2
    72    40    41    2
    73    40    44   am
    74    50    49    1
    75    44    45    1
    76    54    52    1
    77    49    52    1
    78    49    48    1
    79    53    52    1
    80    53    55    1
    81    45    46    1
    82    46    47    2
