@<TRIPOS>MOLECULE
tmp/5dv6A01.pdb
 155 148 0 0 0
SMALL
GASTEIGER

@<TRIPOS>ATOM
      1  N         -4.7810   25.5050    5.4390 N.3    66  PHE66      -0.1241
      2  CA        -5.6970   24.4120    5.1090 C.3    66  PHE66       0.1605
      3  C         -7.0520   24.9030    4.5480 C.2    66  PHE66       0.2264
      4  O         -7.6410   24.2330    3.7120 O.2    66  PHE66      -0.2867
      5  CB        -5.8840   23.4920    6.3280 C.3    66  PHE66       0.0534
      6  CG        -6.5810   22.2080    6.0150 C.ar   66  PHE66      -0.0203
      7  CD1       -7.9730   22.1440    6.0170 C.ar   66  PHE66      -0.0042
      8  CD2       -5.8600   21.0570    5.6960 C.ar   66  PHE66      -0.0042
      9  CE1       -8.6390   20.9640    5.7080 C.ar   66  PHE66      -0.0003
     10  CE2       -6.5190   19.8680    5.3830 C.ar   66  PHE66      -0.0003
     11  CZ        -7.9060   19.8230    5.3950 C.ar   66  PHE66      -0.0000
     12  N         -6.2360   26.0960    0.9640 N.3    69  CYS69      -0.1221
     13  CA        -6.1200   24.8090    0.2920 C.3    69  CYS69       0.1808
     14  C         -7.5020   24.1850    0.0250 C.2    69  CYS69       0.2601
     15  O         -7.7070   23.5280   -1.0050 O.2    69  CYS69      -0.2717
     16  CB        -5.2480   23.9150    1.1780 C.3    69  CYS69       0.0970
     17  SG        -4.7290   22.3600    0.5200 S.3    69  CYS69      -0.0800
     18  N         -8.4420   24.4280    0.9360 N.am   70  GLN70      -0.1979
     19  CA        -9.8250   23.9730    0.7960 C.3    70  GLN70       0.1601
     20  C        -10.5750   24.7530   -0.2870 C.2    70  GLN70       0.2287
     21  O        -11.1930   24.1600   -1.1520 O.2    70  GLN70      -0.2864
     22  CB       -10.5560   24.0980    2.1390 C.3    70  GLN70       0.0394
     23  CG       -11.4660   22.9220    2.4630 C.3    70  GLN70       0.0908
     24  CD       -12.0030   22.9460    3.8850 C.2    70  GLN70       0.2608
     25  OE1      -13.2130   23.0180    4.1030 O.2    70  GLN70      -0.2717
     26  NE2      -11.1030   22.9000    4.8580 N.am   70  GLN70      -0.0878
     27  N         -9.4280   26.2420   -2.7480 N.3    72  ARG72      -0.1231
     28  CA        -8.8140   25.9850   -4.0420 C.3    72  ARG72       0.1694
     29  C         -9.2490   24.6500   -4.6280 C.2    72  ARG72       0.2592
     30  O         -9.5470   24.5810   -5.8300 O.2    72  ARG72      -0.2718
     31  CB        -7.2850   26.0660   -3.9410 C.3    72  ARG72       0.0321
     32  CG        -6.5310   25.8140   -5.2510 C.3    72  ARG72       0.0489
     33  CD        -6.9600   26.7040   -6.4200 C.3    72  ARG72       0.2205
     34  NE        -6.9710   25.9840   -7.6990 N.pl3  72  ARG72      -0.0865
     35  CZ        -7.5300   26.4230   -8.8330 C.cat  72  ARG72       0.5346
     36  NH1       -8.1560   27.6130   -8.8990 N.pl3  72  ARG72       0.1354
     37  NH2       -7.4550   25.6600   -9.9190 N.pl3  72  ARG72       0.1354
     38  N         -9.2770   23.6150   -3.7880 N.am   73  SER73      -0.1952
     39  CA        -9.7500   22.3080   -4.1740 C.3    73  SER73       0.1924
     40  C        -11.1450   22.3630   -4.7510 C.2    73  SER73       0.2314
     41  O        -11.4290   21.7050   -5.7640 O.2    73  SER73      -0.2863
     42  CB        -9.7650   21.3740   -2.9700 C.3    73  SER73       0.2116
     43  OG        -8.5150   21.3450   -2.3400 O.3    73  SER73      -0.2180
     44  N         -9.6510   13.5320   -6.7910 N.3   107  HIS107     -0.1241
     45  CA        -8.4190   13.6180   -6.0200 C.3   107  HIS107      0.1621
     46  C         -7.2450   13.0510   -6.7650 C.2   107  HIS107      0.2264
     47  O         -6.1260   13.5220   -6.5840 O.2   107  HIS107     -0.2867
     48  CB        -8.5520   12.9750   -4.6510 C.3   107  HIS107      0.0745
     49  CG        -9.2570   13.8560   -3.6870 C.ar  107  HIS107      0.0817
     50  ND1      -10.6130   13.7640   -3.4560 N.ar  107  HIS107     -0.2268
     51  CD2       -8.8180   14.9220   -2.9780 C.ar  107  HIS107      0.1154
     52  CE1      -10.9730   14.7200   -2.6200 C.ar  107  HIS107      0.1986
     53  NE2       -9.9000   15.4280   -2.3060 N.ar  107  HIS107     -0.2212
     54  N         -6.4050   16.0410   -9.1040 N.3   110  ILE110     -0.1231
     55  CA        -5.8140   17.1550   -8.3760 C.3   110  ILE110      0.1692
     56  C         -4.3140   16.9550   -8.2130 C.2   110  ILE110      0.2592
     57  O         -3.5390   17.8680   -8.4200 O.2   110  ILE110     -0.2718
     58  CB        -6.5460   17.4060   -7.0470 C.3   110  ILE110      0.0266
     59  CG1       -7.8310   18.1820   -7.3600 C.3   110  ILE110      0.0019
     60  CG2       -5.6870   18.2240   -6.0710 C.3   110  ILE110      0.0020
     61  CD1       -8.8400   18.2420   -6.2510 C.3   110  ILE110      0.0001
     62  N         -3.9300   15.7270   -7.9380 N.am  111  TYR111     -0.1976
     63  CA        -2.5510   15.3870   -7.5930 C.3   111  TYR111      0.1639
     64  C         -1.7520   15.2990   -8.8610 C.2   111  TYR111      0.2290
     65  O         -0.6580   15.8250   -8.9350 O.2   111  TYR111     -0.2864
     66  CB        -2.5110   14.0760   -6.8540 C.3   111  TYR111      0.0560
     67  CG        -3.1640   14.1290   -5.5030 C.ar  111  TYR111     -0.0198
     68  CD1       -4.3120   14.9030   -5.2770 C.ar  111  TYR111     -0.0009
     69  CD2       -2.6480   13.4050   -4.4340 C.ar  111  TYR111     -0.0009
     70  CE1       -4.9190   14.9610   -4.0520 C.ar  111  TYR111      0.0417
     71  CE2       -3.2600   13.4620   -3.1920 C.ar  111  TYR111      0.0417
     72  CZ        -4.4020   14.2450   -3.0290 C.ar  111  TYR111      0.1957
     73  OH        -5.0470   14.3600   -1.8420 O.3   111  TYR111     -0.2866
     74  N         -1.5010   19.1180   -9.4840 N.3   114  LEU114     -0.1245
     75  CA        -0.5810   19.7020   -8.5420 C.3   114  LEU114      0.1561
     76  C          0.8260   19.5640   -8.9820 C.2   114  LEU114      0.2260
     77  O          1.5940   20.5150   -8.9090 O.2   114  LEU114     -0.2867
     78  CB        -0.6870   19.1000   -7.1400 C.3   114  LEU114      0.0270
     79  CG        -1.3390   20.0480   -6.1620 C.3   114  LEU114      0.0019
     80  CD1       -1.4440   19.4050   -4.8020 C.3   114  LEU114      0.0001
     81  CD2       -0.5520   21.3460   -6.0450 C.3   114  LEU114      0.0001
     82  N          0.8080   16.5760    5.4670 N.3   147  PHE147     -0.1227
     83  CA        -0.3210   16.6410    4.5620 C.3   147  PHE147      0.1736
     84  C          0.1220   16.7670    3.1060 C.2   147  PHE147      0.2595
     85  O         -0.3510   16.0150    2.2570 O.2   147  PHE147     -0.2718
     86  CB        -1.2230   17.8090    4.9610 C.3   147  PHE147      0.0547
     87  CG        -2.5050   17.8790    4.1820 C.ar  147  PHE147     -0.0202
     88  CD1       -3.5210   16.9590    4.4040 C.ar  147  PHE147     -0.0042
     89  CD2       -2.6930   18.8660    3.2190 C.ar  147  PHE147     -0.0042
     90  CE1       -4.7010   17.0210    3.6760 C.ar  147  PHE147     -0.0003
     91  CE2       -3.8680   18.9380    2.4950 C.ar  147  PHE147     -0.0003
     92  CZ        -4.8740   18.0160    2.7220 C.ar  147  PHE147     -0.0000
     93  N          1.0210   17.7080    2.8310 N.am  148  MET148     -0.1979
     94  CA         1.4850   17.9590    1.4570 C.3   148  MET148      0.1605
     95  C          2.7230   17.1610    1.0430 C.2   148  MET148      0.2287
     96  O          3.0430   17.0840   -0.1390 O.2   148  MET148     -0.2864
     97  CB         1.7190   19.4590    1.2180 C.3   148  MET148      0.0413
     98  CG         0.4380   20.2910    1.2450 C.3   148  MET148      0.0598
     99  SD        -0.7520   19.9870   -0.0870 S.3   148  MET148     -0.1393
    100  CE         0.2830   20.2170   -1.5400 C.3   148  MET148      0.0692
    101  N          2.5800   14.3070   -1.6270 N.3   151  LYS151     -0.1245
    102  CA         2.3190   14.8830   -2.9520 C.3   151  LYS151      0.1561
    103  C          3.5590   15.4630   -3.6260 C.2   151  LYS151      0.2260
    104  O          3.6800   15.4250   -4.8490 O.2   151  LYS151     -0.2867
    105  CB         1.2480   15.9530   -2.8500 C.3   151  LYS151      0.0271
    106  CG        -0.0200   15.4600   -2.1870 C.3   151  LYS151      0.0035
    107  CD        -0.8040   16.5810   -1.5420 C.3   151  LYS151      0.0206
    108  CE        -2.0950   16.0680   -0.9040 C.3   151  LYS151      0.1093
    109  NZ        -1.9700   14.7540   -0.1910 N.3   151  LYS151     -0.1314
    110  N         -4.4770   10.0330    1.7360 N.3   233  HIS233     -0.1241
    111  CA        -5.0320   11.3740    1.9020 C.3   233  HIS233      0.1621
    112  C         -6.3990   11.3410    2.6030 C.2   233  HIS233      0.2264
    113  O         -6.5750   11.9660    3.6400 O.2   233  HIS233     -0.2867
    114  CB        -5.0890   12.0470    0.5130 C.3   233  HIS233      0.0745
    115  CG        -5.8170   13.3520    0.4800 C.ar  233  HIS233      0.0817
    116  ND1       -5.2500   14.5370    0.8970 N.ar  233  HIS233     -0.2268
    117  CD2       -7.0510   13.6660    0.0190 C.ar  233  HIS233      0.1154
    118  CE1       -6.1170   15.5190    0.7230 C.ar  233  HIS233      0.1986
    119  NE2       -7.2140   15.0190    0.1850 N.ar  233  HIS233     -0.2212
    120  N         -7.6470   13.1280    6.1120 N.3   237  LEU237     -0.1245
    121  CA        -8.8200   13.9560    6.3540 C.3   237  LEU237      0.1561
    122  C         -9.6480   13.4680    7.5230 C.2   237  LEU237      0.2260
    123  O        -10.1770   14.2720    8.2610 O.2   237  LEU237     -0.2867
    124  CB        -9.7180   13.9870    5.1290 C.3   237  LEU237      0.0270
    125  CG        -9.1440   14.7240    3.9360 C.3   237  LEU237      0.0019
    126  CD1      -10.2460   14.8070    2.9460 C.3   237  LEU237      0.0001
    127  CD2       -8.6630   16.1260    4.2590 C.3   237  LEU237      0.0001
    128  N        -15.2740   21.4800    7.4040 N.3   249  LEU249     -0.1245
    129  CA       -14.9800   20.9710    6.0520 C.3   249  LEU249      0.1561
    130  C        -16.0300   21.4620    5.0560 C.2   249  LEU249      0.2260
    131  O        -17.2070   21.5340    5.3850 O.2   249  LEU249     -0.2867
    132  CB       -14.9450   19.4350    6.0360 C.3   249  LEU249      0.0270
    133  CG       -14.1410   18.7940    4.8970 C.3   249  LEU249      0.0019
    134  CD1      -12.6450   18.8970    5.1610 C.3   249  LEU249      0.0001
    135  CD2      -14.5230   17.3320    4.7100 C.3   249  LEU249      0.0001
    136  N        -16.6610   19.1650   -0.5020 N.3   253  LEU253     -0.1245
    137  CA       -15.6170   18.2290   -0.1070 C.3   253  LEU253      0.1561
    138  C        -16.1920   17.0890    0.7220 C.2   253  LEU253      0.2260
    139  O        -15.8680   15.9290    0.4670 O.2   253  LEU253     -0.2867
    140  CB       -14.4790   18.9540    0.6030 C.3   253  LEU253      0.0270
    141  CG       -13.7830   20.0440   -0.2420 C.3   253  LEU253      0.0019
    142  CD1      -12.5510   20.5160    0.5170 C.3   253  LEU253      0.0001
    143  CD2      -13.3680   19.6070   -1.6530 C.3   253  LEU253      0.0001
    144  N        -15.7460   13.0120    0.1900 N.3   257  TYR257     -0.1241
    145  CA       -15.1550   12.1720    1.2530 C.3   257  TYR257      0.1605
    146  C        -16.0550   11.2190    1.9950 C.2   257  TYR257      0.2264
    147  O        -15.5630   10.2340    2.5140 O.2   257  TYR257     -0.2867
    148  CB       -14.4710   13.0370    2.2960 C.3   257  TYR257      0.0534
    149  CG       -13.3870   13.8480    1.6900 C.ar  257  TYR257     -0.0201
    150  CD1      -12.3800   13.2350    0.9510 C.ar  257  TYR257     -0.0009
    151  CD2      -13.3790   15.2310    1.8060 C.ar  257  TYR257     -0.0009
    152  CE1      -11.3870   13.9740    0.3590 C.ar  257  TYR257      0.0417
    153  CE2      -12.3900   15.9860    1.2140 C.ar  257  TYR257      0.0417
    154  CZ       -11.4040   15.3530    0.4950 C.ar  257  TYR257      0.1957
    155  OH       -10.4090   16.0980   -0.0530 O.3   257  TYR257     -0.2866
@<TRIPOS>BOND
     1    37    35    1
     2    74    75    1
     3    54    55    1
     4    76    77    2
     5    76    75    1
     6    65    64    2
     7    36    35    1
     8    64    63    1
     9    35    34    2
    10    75    78    1
    11    57    56    2
    12    55    56    1
    13    55    58    1
    14    56    62   am
    15    62    63    1
    16    34    33    1
    17    63    66    1
    18    59    58    1
    19    59    61    1
    20    78    79    1
    21    58    60    1
    22    66    67    1
    23    44    45    1
    24    46    47    2
    25    46    45    1
    26    33    32    1
    27    79    81    1
    28    79    80    1
    29    45    48    1
    30    30    29    2
    31    41    40    2
    32    67    68   ar
    33    67    69   ar
    34    68    70   ar
    35    32    31    1
    36   104   103    2
    37    40    39    1
    38    48    49    1
    39    29    28    1
    40    29    38   am
    41    69    71   ar
    42    39    38    1
    43    39    42    1
    44    70    72   ar
    45    28    31    1
    46    28    27    1
    47    49    50   ar
    48    49    51   ar
    49   103   102    1
    50    50    52   ar
    51    71    72   ar
    52    72    73    1
    53    51    53   ar
    54    42    43    1
    55   102   105    1
    56   102   101    1
    57   105   106    1
    58    52    53   ar
    59   106   107    1
    60   143   141    1
    61   107   108    1
    62   100    99    1
    63    21    20    2
    64    15    14    2
    65   108   109    1
    66   136   137    1
    67    20    19    1
    68   141   142    1
    69   141   140    1
    70    96    95    2
    71   137   140    1
    72   137   138    1
    73    99    98    1
    74   155   154    1
    75   117   119   ar
    76   117   115   ar
    77    14    13    1
    78    14    18   am
    79   119   118   ar
    80   144   145    1
    81    13    12    1
    82    13    16    1
    83   152   154   ar
    84   152   150   ar
    85   139   138    2
    86   115   114    1
    87   115   116   ar
    88   154   153   ar
    89   114   111    1
    90    17    16    1
    91   118   116   ar
    92    19    18    1
    93    19    22    1
    94   150   149   ar
    95    95    94    1
    96   153   151   ar
    97    97    98    1
    98    97    94    1
    99   145   146    1
   100   145   148    1
   101    94    93    1
   102   149   151   ar
   103   149   148    1
   104   110   111    1
   105   111   112    1
   106   146   147    2
   107    22    23    1
   108    85    84    2
   109    23    24    1
   110    91    92   ar
   111    91    89   ar
   112   112   113    2
   113    92    90   ar
   114    93    84   am
   115   126   125    1
   116    84    83    1
   117    89    87   ar
   118    90    88   ar
   119     4     3    2
   120    24    25    2
   121    24    26   am
   122   125   127    1
   123   125   124    1
   124    87    88   ar
   125    87    86    1
   126     3     2    1
   127    83    86    1
   128    83    82    1
   129   135   133    1
   130   133   134    1
   131   133   132    1
   132   130   131    2
   133   130   129    1
   134     2     1    1
   135     2     5    1
   136   124   121    1
   137    10    11   ar
   138    10     8   ar
   139    11     9   ar
   140     8     6   ar
   141     9     7   ar
   142     6     7   ar
   143     6     5    1
   144   132   129    1
   145   129   128    1
   146   120   121    1
   147   121   122    1
   148   122   123    2
