@<TRIPOS>MOLECULE
tmp/5dvaC00.pdb
 121 115 0 0 0
SMALL
GASTEIGER

@<TRIPOS>ATOM
      1  N         86.0730  233.4140   31.2400 N.3    47  SER47      -0.1217
      2  CA        86.5930  233.0080   32.5410 C.3    47  SER47       0.1889
      3  C         87.2160  231.6180   32.5250 C.2    47  SER47       0.2288
      4  O         87.9420  231.2750   33.4640 O.2    47  SER47      -0.2866
      5  CB        85.4850  233.0710   33.5930 C.3    47  SER47       0.2089
      6  OG        85.0950  234.4130   33.8370 O.3    47  SER47      -0.2183
      7  N         78.8910  242.4520   40.8990 N.3    78  ILE78      -0.1245
      8  CA        78.8810  241.1090   41.4690 C.3    78  ILE78       0.1561
      9  C         79.3390  241.2260   42.9180 C.2    78  ILE78       0.2260
     10  O         80.4860  241.5960   43.1910 O.2    78  ILE78      -0.2867
     11  CB        79.7680  240.1440   40.6710 C.3    78  ILE78       0.0252
     12  CG1       79.2350  239.9840   39.2430 C.3    78  ILE78       0.0019
     13  CG2       79.8230  238.7780   41.3470 C.3    78  ILE78       0.0019
     14  CD1       79.7560  241.0170   38.2630 C.3    78  ILE78       0.0001
     15  N         82.5790  239.5620   44.3100 N.3    81  TRP81      -0.1241
     16  CA        83.8680  240.1300   43.9290 C.3    81  TRP81       0.1605
     17  C         84.3580  241.1860   44.9100 C.2    81  TRP81       0.2264
     18  O         85.5410  241.5440   44.8730 O.2    81  TRP81      -0.2867
     19  CB        83.7930  240.7610   42.5350 C.3    81  TRP81       0.0550
     20  CG        83.5000  239.8010   41.4250 C.ar   81  TRP81       0.0003
     21  CD1       83.2000  238.4770   41.5370 C.ar   81  TRP81       0.0946
     22  CD2       83.4790  240.1000   40.0240 C.ar   81  TRP81       0.0152
     23  NE1       82.9920  237.9310   40.2930 N.ar   81  TRP81      -0.2442
     24  CE2       83.1580  238.9080   39.3470 C.ar   81  TRP81       0.0810
     25  CE3       83.7010  241.2610   39.2780 C.ar   81  TRP81       0.0012
     26  CZ2       83.0530  238.8430   37.9600 C.ar   81  TRP81       0.0191
     27  CZ3       83.5960  241.1950   37.9010 C.ar   81  TRP81       0.0001
     28  CH2       83.2750  239.9950   37.2560 C.ar   81  TRP81       0.0015
     29  N         84.3680  231.7980   42.3570 N.3    93  TYR93      -0.1227
     30  CA        83.4480  232.8880   42.0620 C.3    93  TYR93       0.1736
     31  C         83.8450  233.6800   40.8210 C.2    93  TYR93       0.2596
     32  O         83.2870  234.7580   40.5860 O.2    93  TYR93      -0.2718
     33  CB        83.3470  233.8240   43.2680 C.3    93  TYR93       0.0548
     34  CG        82.7470  233.1750   44.4960 C.ar   93  TYR93      -0.0200
     35  CD1       81.3750  232.9940   44.6080 C.ar   93  TYR93      -0.0009
     36  CD2       83.5520  232.7490   45.5450 C.ar   93  TYR93      -0.0009
     37  CE1       80.8200  232.4030   45.7280 C.ar   93  TYR93       0.0417
     38  CE2       83.0060  232.1580   46.6700 C.ar   93  TYR93       0.0417
     39  CZ        81.6390  231.9870   46.7560 C.ar   93  TYR93       0.1957
     40  OH        81.0880  231.4010   47.8720 O.3    93  TYR93      -0.2866
     41  N         84.7880  233.1740   40.0260 N.am   94  SER94      -0.1952
     42  CA        85.2090  233.8230   38.7840 C.3    94  SER94       0.1924
     43  C         85.4830  235.3090   39.0050 C.2    94  SER94       0.2314
     44  O         84.9410  236.1790   38.3200 O.2    94  SER94      -0.2863
     45  CB        84.1630  233.6210   37.6870 C.3    94  SER94       0.2116
     46  OG        84.0270  232.2510   37.3580 O.3    94  SER94      -0.2180
     47  N         87.0550  238.2410   38.3040 N.3    96  VAL96      -0.1245
     48  CA        87.8700  238.8340   37.2420 C.3    96  VAL96       0.1561
     49  C         88.9640  239.7430   37.7970 C.2    96  VAL96       0.2260
     50  O         90.1280  239.5790   37.4060 O.2    96  VAL96      -0.2867
     51  CB        86.9730  239.5470   36.2250 C.3    96  VAL96       0.0252
     52  CG1       87.8080  240.2710   35.1690 C.3    96  VAL96       0.0019
     53  CG2       86.0320  238.5600   35.5610 C.3    96  VAL96       0.0019
     54  N         88.7340  238.3140   27.5660 N.3   134  LEU134     -0.1245
     55  CA        87.3440  238.7530   27.6160 C.3   134  LEU134      0.1561
     56  C         86.9100  239.5080   26.3710 C.2   134  LEU134      0.2260
     57  O         85.7790  239.3340   25.9100 O.2   134  LEU134     -0.2867
     58  CB        87.1220  239.6500   28.8380 C.3   134  LEU134      0.0270
     59  CG        87.4060  239.0130   30.1990 C.3   134  LEU134      0.0019
     60  CD1       87.4110  240.0760   31.2870 C.3   134  LEU134      0.0001
     61  CD2       86.3860  237.9270   30.5110 C.3   134  LEU134      0.0001
     62  N         83.7940  227.4380   34.8550 N.3   185  THR185     -0.1203
     63  CA        82.7300  228.0830   34.1040 C.3   185  THR185      0.1994
     64  C         83.2600  229.2920   33.3380 C.2   185  THR185      0.2618
     65  O         84.3450  229.8120   33.6120 O.2   185  THR185     -0.2717
     66  CB        81.6000  228.5260   35.0340 C.3   185  THR185      0.1784
     67  OG1       82.1100  229.4450   36.0130 O.3   185  THR185     -0.2211
     68  CG2       80.9800  227.3270   35.7340 C.3   185  THR185      0.0376
     69  N         82.4680  229.7400   32.3730 N.am  186  GLY186     -0.1942
     70  CA        82.8190  230.9070   31.5810 C.3   186  GLY186      0.2014
     71  C         81.5770  231.6010   31.0730 C.2   186  GLY186      0.2638
     72  O         80.5410  230.9700   30.8410 O.2   186  GLY186     -0.2714
     73  N         81.6840  232.9190   30.9030 N.am  187  TYR187     -0.1973
     74  CA        80.5450  233.7340   30.4820 C.3   187  TYR187      0.1639
     75  C         81.0930  234.8840   29.6390 C.2   187  TYR187      0.2290
     76  O         81.5940  235.8710   30.1850 O.2   187  TYR187     -0.2864
     77  CB        79.7710  234.2430   31.6920 C.3   187  TYR187      0.0560
     78  CG        78.4860  234.9840   31.3770 C.ar  187  TYR187     -0.0198
     79  CD1       77.8270  234.8070   30.1650 C.ar  187  TYR187     -0.0009
     80  CD2       77.9330  235.8680   32.2970 C.ar  187  TYR187     -0.0009
     81  CE1       76.6550  235.4840   29.8830 C.ar  187  TYR187      0.0417
     82  CE2       76.7630  236.5510   32.0220 C.ar  187  TYR187      0.0417
     83  CZ        76.1290  236.3560   30.8160 C.ar  187  TYR187      0.1957
     84  OH        74.9660  237.0380   30.5480 O.3   187  TYR187     -0.2866
     85  N         80.5040  237.9850   27.3540 N.3   189  THR189     -0.1203
     86  CA        79.4510  238.9740   27.1500 C.3   189  THR189      0.1994
     87  C         79.8890  240.2140   26.3850 C.2   189  THR189      0.2617
     88  O         79.0210  240.9220   25.8600 O.2   189  THR189     -0.2717
     89  CB        78.8790  239.4310   28.4990 C.3   189  THR189      0.1784
     90  OG1       79.9000  240.0980   29.2540 O.3   189  THR189     -0.2211
     91  CG2       78.3580  238.2450   29.2910 C.3   189  THR189      0.0376
     92  N         81.1880  240.5090   26.3040 N.am  190  ARG190     -0.1979
     93  CA        81.6270  241.7850   25.7520 C.3   190  ARG190      0.1597
     94  C         81.5320  241.8110   24.2310 C.2   190  ARG190      0.2287
     95  O         81.1800  242.8440   23.6500 O.2   190  ARG190     -0.2864
     96  CB        83.0580  242.0800   26.2100 C.3   190  ARG190      0.0334
     97  CG        83.1920  242.1990   27.7220 C.3   190  ARG190      0.0492
     98  CD        84.5820  242.6420   28.1480 C.3   190  ARG190      0.2205
     99  NE        84.6960  242.7270   29.6010 N.pl3 190  ARG190     -0.0865
    100  CZ        85.7630  243.1860   30.2460 C.cat 190  ARG190      0.5346
    101  NH1       86.8230  243.6120   29.5730 N.pl3 190  ARG190      0.1354
    102  NH2       85.7680  243.2230   31.5710 N.pl3 190  ARG190      0.1354
    103  N         72.4520  230.8380   32.6620 N.3   223  LEU223     -0.1245
    104  CA        73.7700  230.3390   33.0440 C.3   223  LEU223      0.1561
    105  C         73.6780  228.9640   33.6930 C.2   223  LEU223      0.2260
    106  O         74.5380  228.1040   33.4690 O.2   223  LEU223     -0.2867
    107  CB        74.4520  231.3340   33.9840 C.3   223  LEU223      0.0270
    108  CG        74.9040  232.6420   33.3340 C.3   223  LEU223      0.0019
    109  CD1       75.2800  233.6600   34.3960 C.3   223  LEU223      0.0001
    110  CD2       76.0770  232.3960   32.3970 C.3   223  LEU223      0.0001
    111  N         74.3810  225.6170   31.7190 N.3   226  ARG226     -0.1245
    112  CA        75.6920  225.0810   31.3720 C.3   226  ARG226      0.1563
    113  C         75.9380  223.7530   32.0800 C.2   226  ARG226      0.2260
    114  O         76.3860  222.7800   31.4630 O.2   226  ARG226     -0.2867
    115  CB        76.7780  226.0960   31.7270 C.3   226  ARG226      0.0307
    116  CG        76.6190  227.4410   31.0290 C.3   226  ARG226      0.0489
    117  CD        77.5340  228.4950   31.6330 C.3   226  ARG226      0.2205
    118  NE        77.1790  228.7990   33.0170 N.pl3 226  ARG226     -0.0865
    119  CZ        77.8730  229.6090   33.8110 C.cat 226  ARG226      0.5346
    120  NH1       77.4690  229.8210   35.0560 N.pl3 226  ARG226      0.1354
    121  NH2       78.9720  230.2050   33.3680 N.pl3 226  ARG226      0.1354
@<TRIPOS>BOND
     1    95    94    2
     2    94    93    1
     3    93    96    1
     4    93    92    1
     5    88    87    2
     6    57    56    2
     7    96    97    1
     8    92    87   am
     9    56    55    1
    10    87    86    1
    11    86    85    1
    12    86    89    1
    13    54    55    1
    14    55    58    1
    15    97    98    1
    16    98    99    1
    17    89    90    1
    18    89    91    1
    19    58    59    1
    20   101   100    1
    21    99   100    2
    22    75    76    2
    23    75    74    1
    24    81    79   ar
    25    81    83   ar
    26    79    78   ar
    27    59    61    1
    28    59    60    1
    29   100   102    1
    30    74    73    1
    31    74    77    1
    32    84    83    1
    33    83    82   ar
    34    72    71    2
    35    73    71   am
    36   116   117    1
    37   116   115    1
    38    71    70    1
    39     1     2    1
    40   112   111    1
    41   112   115    1
    42   112   113    1
    43    78    77    1
    44    78    80   ar
    45   114   113    2
    46    70    69    1
    47   117   118    1
    48    82    80   ar
    49    69    64   am
    50   110   108    1
    51     3     2    1
    52     3     4    2
    53     2     5    1
    54   103   104    1
    55   118   119    2
    56   104   105    1
    57   104   107    1
    58   108   107    1
    59   108   109    1
    60    64    65    2
    61    64    63    1
    62   121   119    1
    63   106   105    2
    64     5     6    1
    65   119   120    1
    66    63    62    1
    67    63    66    1
    68    66    68    1
    69    66    67    1
    70    52    51    1
    71    53    51    1
    72    51    48    1
    73    48    49    1
    74    48    47    1
    75    28    27   ar
    76    28    26   ar
    77    46    45    1
    78    50    49    2
    79    45    42    1
    80    27    25   ar
    81    26    24   ar
    82    14    12    1
    83    44    43    2
    84    42    43    1
    85    42    41    1
    86    12    11    1
    87    25    22   ar
    88    24    22   ar
    89    24    23   ar
    90    22    20   ar
    91    41    31   am
    92    23    21   ar
    93    32    31    2
    94    11    13    1
    95    11     8    1
    96    31    30    1
    97     7     8    1
    98    20    21   ar
    99    20    19    1
   100     8     9    1
   101    30    29    1
   102    30    33    1
   103    19    16    1
   104     9    10    2
   105    33    34    1
   106    16    15    1
   107    16    17    1
   108    34    35   ar
   109    34    36   ar
   110    35    37   ar
   111    18    17    2
   112    36    38   ar
   113    37    39   ar
   114    38    39   ar
   115    39    40    1
