@<TRIPOS>MOLECULE
tmp/5dviA00.pdb
 149 149 0 0 0
SMALL
GASTEIGER

@<TRIPOS>ATOM
      1  N         69.6660   16.1710   51.1460 N.3    10  TRP10      -0.1227
      2  CA        68.7770   16.0570   52.3100 C.3    10  TRP10       0.1737
      3  C         68.9010   17.2100   53.2810 C.2    10  TRP10       0.2595
      4  O         68.6770   17.0630   54.4900 O.2    10  TRP10      -0.2718
      5  CB        68.9440   14.7210   53.0260 C.3    10  TRP10       0.0564
      6  CG        70.3040   14.3730   53.6210 C.ar   10  TRP10       0.0003
      7  CD1       70.7180   14.6060   54.9220 C.ar   10  TRP10       0.0946
      8  CD2       71.3470   13.6190   53.0100 C.ar   10  TRP10       0.0152
      9  NE1       71.9410   14.0710   55.1170 N.ar   10  TRP10      -0.2442
     10  CE2       72.3670   13.4410   53.9700 C.ar   10  TRP10       0.0810
     11  CE3       71.5170   13.0800   51.7190 C.ar   10  TRP10       0.0012
     12  CZ2       73.5060   12.6970   53.7250 C.ar   10  TRP10       0.0191
     13  CZ3       72.6400   12.3420   51.4860 C.ar   10  TRP10       0.0001
     14  CH2       73.6260   12.1620   52.4610 C.ar   10  TRP10       0.0015
     15  N         69.1970   18.3860   52.7840 N.am   11  TRP11      -0.1976
     16  CA        69.3880   19.5550   53.6290 C.3    11  TRP11       0.1640
     17  C         68.0520   20.2630   53.8420 C.2    11  TRP11       0.2290
     18  O         67.6370   21.1130   53.0490 O.2    11  TRP11      -0.2864
     19  CB        70.4490   20.4480   53.0330 C.3    11  TRP11       0.0576
     20  CG        71.7770   19.8090   53.0300 C.ar   11  TRP11       0.0006
     21  CD1       72.2940   18.9950   54.0090 C.ar   11  TRP11       0.0946
     22  CD2       72.7830   19.9280   52.0260 C.ar   11  TRP11       0.0152
     23  NE1       73.5370   18.6050   53.6690 N.ar   11  TRP11      -0.2442
     24  CE2       73.8690   19.1660   52.4590 C.ar   11  TRP11       0.0810
     25  CE3       72.8490   20.5660   50.7790 C.ar   11  TRP11       0.0012
     26  CZ2       75.0260   19.0590   51.7390 C.ar   11  TRP11       0.0191
     27  CZ3       73.9920   20.4470   50.0580 C.ar   11  TRP11       0.0001
     28  CH2       75.0720   19.7030   50.5120 C.ar   11  TRP11       0.0015
     29  N         70.1770   23.5210   57.9900 N.3    16  GLU16      -0.1245
     30  CA        70.6180   22.9880   56.7000 C.3    16  GLU16       0.1567
     31  C         69.9910   23.7880   55.5510 C.2    16  GLU16       0.2260
     32  O         70.6370   24.0520   54.5180 O.2    16  GLU16      -0.2867
     33  CB        70.1480   21.5370   56.5790 C.3    16  GLU16       0.0388
     34  CG        70.8940   20.5230   57.4600 C.3    16  GLU16       0.1160
     35  CD        70.2210   19.1640   57.4880 C.2    16  GLU16       0.3649
     36  OE1       68.9620   19.0870   57.3710 O.co2  16  GLU16      -0.2457
     37  OE2       70.9360   18.1640   57.5990 O.co2  16  GLU16      -0.2457
     38  N         67.1970   12.8710   57.9780 N.3    42  GLY42      -0.1210
     39  CA        68.5210   13.1280   58.4610 C.3    42  GLY42       0.1956
     40  C         69.4480   11.9820   58.1400 C.2    42  GLY42       0.2612
     41  O         69.0680   10.8220   58.2410 O.2    42  GLY42      -0.2717
     42  N         70.6780   12.3090   57.7590 N.am   43  GLY43      -0.1956
     43  CA        71.6550   11.2940   57.4010 C.3    43  GLY43       0.1869
     44  C         71.5220   10.7520   55.9820 C.2    43  GLY43       0.2309
     45  O         72.4670   10.1200   55.5210 O.2    43  GLY43      -0.2863
     46  N         78.5030   10.4030   49.0780 N.3    67  LYS67      -0.1245
     47  CA        79.7350   10.5470   49.8250 C.3    67  LYS67       0.1561
     48  C         80.5440    9.2590   49.8760 C.2    67  LYS67       0.2260
     49  O         80.0270    8.1270   49.8190 O.2    67  LYS67      -0.2867
     50  CB        79.3890   10.9410   51.2800 C.3    67  LYS67       0.0271
     51  CG        78.6750   12.2730   51.4060 C.3    67  LYS67       0.0035
     52  CD        78.4690   12.6420   52.8780 C.3    67  LYS67       0.0206
     53  CE        77.3510   11.8400   53.4880 C.3    67  LYS67       0.1093
     54  NZ        77.2340   12.0230   54.9610 N.3    67  LYS67      -0.1314
     55  N         82.6560   18.4410   57.5550 N.3   118  HIS118     -0.1241
     56  CA        82.0170   18.3100   58.8690 C.3   118  HIS118      0.1621
     57  C         82.9140   17.4650   59.7750 C.2   118  HIS118      0.2264
     58  O         83.6000   16.5540   59.3490 O.2   118  HIS118     -0.2867
     59  CB        80.6120   17.6600   58.7780 C.3   118  HIS118      0.0745
     60  CG        79.4680   18.5810   58.4790 C.ar  118  HIS118      0.0817
     61  ND1       79.1110   19.6140   59.3050 N.ar  118  HIS118     -0.2268
     62  CD2       78.5760   18.5970   57.4680 C.ar  118  HIS118      0.1154
     63  CE1       78.0310   20.2140   58.8150 C.ar  118  HIS118      0.1986
     64  NE2       77.6960   19.6100   57.6900 N.ar  118  HIS118     -0.2212
     65  N         71.1150    5.9440   62.3300 N.3   166  TRP166     -0.1241
     66  CA        72.2980    6.7180   62.0390 C.3   166  TRP166      0.1605
     67  C         72.7590    7.5680   63.2490 C.2   166  TRP166      0.2264
     68  O         73.9310    7.8260   63.4100 O.2   166  TRP166     -0.2867
     69  CB        72.0610    7.6150   60.8060 C.3   166  TRP166      0.0550
     70  CG        71.1380    8.7710   61.0280 C.ar  166  TRP166      0.0003
     71  CD1       69.7980    8.7770   60.9140 C.ar  166  TRP166      0.0946
     72  CD2       71.5200   10.0770   61.4570 C.ar  166  TRP166      0.0152
     73  NE1       69.3030   10.0040   61.2140 N.ar  166  TRP166     -0.2442
     74  CE2       70.3460   10.8370   61.5240 C.ar  166  TRP166      0.0810
     75  CE3       72.7470   10.6750   61.7970 C.ar  166  TRP166      0.0012
     76  CZ2       70.3420   12.1850   61.8850 C.ar  166  TRP166      0.0191
     77  CZ3       72.7450   12.0190   62.1880 C.ar  166  TRP166      0.0001
     78  CH2       71.5500   12.7520   62.2130 C.ar  166  TRP166      0.0015
     79  N         67.0780   14.5160   64.3850 N.3   225  TRP225     -0.1241
     80  CA        68.2510   15.1020   65.0450 C.3   225  TRP225      0.1605
     81  C         68.0570   16.5640   65.4240 C.2   225  TRP225      0.2264
     82  O         68.5810   17.0210   66.4540 O.2   225  TRP225     -0.2867
     83  CB        69.5290   14.9500   64.2330 C.3   225  TRP225      0.0550
     84  CG        69.4890   15.7890   62.9960 C.ar  225  TRP225      0.0003
     85  CD1       69.0100   15.4390   61.7650 C.ar  225  TRP225      0.0946
     86  CD2       69.9140   17.1510   62.8990 C.ar  225  TRP225      0.0152
     87  NE1       69.1390   16.4930   60.9160 N.ar  225  TRP225     -0.2442
     88  CE2       69.6880   17.5600   61.5720 C.ar  225  TRP225      0.0810
     89  CE3       70.4870   18.0610   63.7970 C.ar  225  TRP225      0.0012
     90  CZ2       69.9970   18.8370   61.1240 C.ar  225  TRP225      0.0191
     91  CZ3       70.7860   19.3340   63.3630 C.ar  225  TRP225      0.0001
     92  CH2       70.5550   19.7100   62.0340 C.ar  225  TRP225      0.0015
     93  N         76.9020   19.8220   61.9660 N.3   245  TRP245     -0.1241
     94  CA        75.6370   20.2740   61.4470 C.3   245  TRP245      0.1605
     95  C         74.6890   20.7000   62.5790 C.2   245  TRP245      0.2264
     96  O         73.8130   21.5300   62.3910 O.2   245  TRP245     -0.2867
     97  CB        75.0010   19.2290   60.5110 C.3   245  TRP245      0.0550
     98  CG        74.8770   17.8750   61.0950 C.ar  245  TRP245      0.0003
     99  CD1       73.7970   17.3540   61.7450 C.ar  245  TRP245      0.0946
    100  CD2       75.8660   16.8690   61.0960 C.ar  245  TRP245      0.0152
    101  NE1       74.0590   16.0500   62.1270 N.ar  245  TRP245     -0.2442
    102  CE2       75.3360   15.7420   61.7810 C.ar  245  TRP245      0.0810
    103  CE3       77.1690   16.7840   60.5810 C.ar  245  TRP245      0.0012
    104  CZ2       76.0350   14.5620   61.9050 C.ar  245  TRP245      0.0191
    105  CZ3       77.8660   15.6000   60.7440 C.ar  245  TRP245      0.0001
    106  CH2       77.3030   14.5090   61.3930 C.ar  245  TRP245      0.0015
    107  N         83.4760   13.9950   57.8450 N.3   276  ASN276     -0.1240
    108  CA        82.3280   13.7440   57.0230 C.3   276  ASN276      0.1653
    109  C         82.3380   14.8250   55.9430 C.2   276  ASN276      0.2266
    110  O         82.1740   15.9920   56.2550 O.2   276  ASN276     -0.2867
    111  CB        81.0460   13.8710   57.8660 C.3   276  ASN276      0.1155
    112  CG        79.8020   13.8850   57.0280 C.2   276  ASN276      0.2627
    113  OD1       79.7660   13.2240   55.9990 O.2   276  ASN276     -0.2716
    114  ND2       78.7930   14.5890   57.4420 N.am  276  ASN276     -0.0877
    115  N         80.6150   16.3040   52.7250 N.3   278  ASP278     -0.1239
    116  CA        79.4810   16.3770   51.8090 C.3   278  ASP278      0.1674
    117  C         80.0400   16.6850   50.4140 C.2   278  ASP278      0.2266
    118  O         80.9030   17.5480   50.2410 O.2   278  ASP278     -0.2867
    119  CB        78.4850   17.4280   52.2330 C.3   278  ASP278      0.1410
    120  CG        77.6780   16.9920   53.4460 C.2   278  ASP278      0.3668
    121  OD1       77.1520   15.8640   53.3900 O.co2 278  ASP278     -0.2456
    122  OD2       77.5350   17.8210   54.3710 O.co2 278  ASP278     -0.2456
    123  N         76.1520   26.2540   57.3680 N.3   314  LYS314     -0.1245
    124  CA        76.0820   24.8300   57.4940 C.3   314  LYS314      0.1561
    125  C         76.6500   24.2650   58.7880 C.2   314  LYS314      0.2260
    126  O         76.2290   23.2070   59.2580 O.2   314  LYS314     -0.2867
    127  CB        76.8400   24.2030   56.3050 C.3   314  LYS314      0.0271
    128  CG        76.6430   22.7110   56.0930 C.3   314  LYS314      0.0035
    129  CD        75.2570   22.3720   55.5720 C.3   314  LYS314      0.0206
    130  CE        74.9970   20.8900   55.4260 C.3   314  LYS314      0.1093
    131  NZ        75.0020   20.1840   56.7360 N.3   314  LYS314     -0.1314
    132  N         78.5950    8.3830   58.7890 N.3   354  HIS354     -0.1226
    133  CA        78.3130    9.3960   57.7670 C.3   354  HIS354      0.1752
    134  C         78.9290    9.0610   56.4270 C.2   354  HIS354      0.2596
    135  O         79.1330    9.9390   55.5820 O.2   354  HIS354     -0.2718
    136  CB        78.6200   10.7800   58.3260 C.3   354  HIS354      0.0759
    137  CG        77.6800   11.1060   59.4170 C.ar  354  HIS354      0.0818
    138  ND1       76.3960   11.5450   59.1650 N.ar  354  HIS354     -0.2268
    139  CD2       77.7330   10.7940   60.7420 C.ar  354  HIS354      0.1154
    140  CE1       75.7240   11.5560   60.3090 C.ar  354  HIS354      0.1986
    141  NE2       76.5070   11.0880   61.2730 N.ar  354  HIS354     -0.2212
    142  N         79.1840    7.7800   56.2290 N.am  355  ASN355     -0.1974
    143  CA        79.3270    7.1750   54.8820 C.3   355  ASN355      0.1688
    144  C         80.7550    7.2770   54.3420 C.2   355  ASN355      0.2292
    145  O         80.9680    7.0200   53.1590 O.2   355  ASN355     -0.2864
    146  CB        78.3890    7.7590   53.7980 C.3   355  ASN355      0.1181
    147  CG        76.9130    7.8240   54.1540 C.2   355  ASN355      0.2629
    148  OD1       76.4680    7.6570   55.2820 O.2   355  ASN355     -0.2716
    149  ND2       76.1200    8.1710   53.1380 N.am  355  ASN355     -0.0877
@<TRIPOS>BOND
     1    46    47    1
     2    49    48    2
     3    47    48    1
     4    47    50    1
     5    27    28   ar
     6    27    25   ar
     7   118   117    2
     8   117   116    1
     9    28    26   ar
    10    25    22   ar
    11     1     2    1
    12    50    51    1
    13    51    52    1
    14    13    11   ar
    15    13    14   ar
    16    11     8   ar
    17    26    24   ar
    18   116   119    1
    19   116   115    1
    20    22    24   ar
    21    22    20   ar
    22   119   120    1
    23     2     5    1
    24     2     3    1
    25    24    23   ar
    26    14    12   ar
    27    15     3   am
    28    15    16    1
    29    52    53    1
    30     8     6   ar
    31     8    10   ar
    32     5     6    1
    33    20    19    1
    34    20    21   ar
    35    19    16    1
    36    18    17    2
    37   149   147   am
    38   145   144    2
    39     3     4    2
    40   121   120   ar
    41   120   122   ar
    42    53    54    1
    43     6     7   ar
    44    16    17    1
    45    23    21   ar
    46    12    10   ar
    47   146   147    1
    48   146   143    1
    49    10     9   ar
    50   147   148    2
    51   144   143    1
    52    32    31    2
    53   143   142    1
    54     7     9   ar
    55   130   129    1
    56   130   131    1
    57    45    44    2
    58    31    30    1
    59   129   128    1
    60   135   134    2
    61   109   110    2
    62   109   108    1
    63    44    43    1
    64   113   112    2
    65   128   127    1
    66   142   134   am
    67   127   124    1
    68   134   133    1
    69    33    30    1
    70    33    34    1
    71    30    29    1
    72   108   107    1
    73   108   111    1
    74   112   114   am
    75   112   111    1
    76   123   124    1
    77    36    35   ar
    78    43    42    1
    79    34    35    1
    80    62    64   ar
    81    62    60   ar
    82    35    37   ar
    83   124   125    1
    84    55    56    1
    85    64    63   ar
    86    42    40   am
    87   133   136    1
    88   133   132    1
    89    38    39    1
    90    40    41    2
    91    40    39    1
    92   136   137    1
    93    60    59    1
    94    60    61   ar
    95    59    56    1
    96   125   126    2
    97    63    61   ar
    98    56    57    1
    99   138   137   ar
   100   138   140   ar
   101    58    57    2
   102   137   139   ar
   103   140   141   ar
   104    97    98    1
   105    97    94    1
   106   103   105   ar
   107   103   100   ar
   108   139   141   ar
   109   105   106   ar
   110    69    70    1
   111    69    66    1
   112    71    70   ar
   113    71    73   ar
   114    87    88   ar
   115    87    85   ar
   116    70    72   ar
   117    98   100   ar
   118    98    99   ar
   119   100   102   ar
   120    90    88   ar
   121    90    92   ar
   122    73    74   ar
   123   106   104   ar
   124    94    93    1
   125    94    95    1
   126    72    74   ar
   127    72    75   ar
   128    74    76   ar
   129    88    86   ar
   130    99   101   ar
   131    85    84   ar
   132   102   104   ar
   133   102   101   ar
   134    75    77   ar
   135    76    78   ar
   136    92    91   ar
   137    66    65    1
   138    66    67    1
   139    77    78   ar
   140    96    95    2
   141    86    84   ar
   142    86    89   ar
   143    84    83    1
   144    67    68    2
   145    91    89   ar
   146    83    80    1
   147    79    80    1
   148    80    81    1
   149    81    82    2
