@<TRIPOS>MOLECULE
tmp/5dvpA00.pdb
 110 106 0 0 0
SMALL
GASTEIGER

@<TRIPOS>ATOM
      1  N        -31.6540  -95.4650   15.5950 N.3   246  MET246     -0.1245
      2  CA       -30.7110  -96.4900   15.1880 C.3   246  MET246      0.1570
      3  C        -31.4560  -97.7940   14.9130 C.2   246  MET246      0.2261
      4  O        -31.9290  -98.4610   15.8210 O.2   246  MET246     -0.2867
      5  CB       -29.6230  -96.6860   16.2410 C.3   246  MET246      0.0387
      6  CG       -28.6380  -95.5180   16.3550 C.3   246  MET246      0.0595
      7  SD       -27.2090  -95.9320   17.3990 S.3   246  MET246     -0.1393
      8  CE       -28.0270  -96.7720   18.7610 C.3   246  MET246      0.0692
      9  N        -32.3750 -104.4500   17.0850 N.3   261  TYR261     -0.1241
     10  CA       -32.8020 -103.3130   17.8950 C.3   261  TYR261      0.1605
     11  C        -33.3110 -102.1890   17.0120 C.2   261  TYR261      0.2264
     12  O        -33.0500 -102.1500   15.8000 O.2   261  TYR261     -0.2867
     13  CB       -31.6520 -102.7960   18.7830 C.3   261  TYR261      0.0534
     14  CG       -30.3970 -102.4220   18.0190 C.ar  261  TYR261     -0.0201
     15  CD1      -30.2220 -101.1370   17.5040 C.ar  261  TYR261     -0.0009
     16  CD2      -29.3900 -103.3540   17.8020 C.ar  261  TYR261     -0.0009
     17  CE1      -29.0720 -100.7930   16.7880 C.ar  261  TYR261      0.0417
     18  CE2      -28.2340 -103.0210   17.0930 C.ar  261  TYR261      0.0417
     19  CZ       -28.0850 -101.7440   16.5890 C.ar  261  TYR261      0.1957
     20  OH       -26.9530 -101.4160   15.8900 O.3   261  TYR261     -0.2866
     21  N        -33.6470  -98.0970   18.2580 N.3   263  THR263     -0.1218
     22  CA       -33.6460  -97.1900   19.3970 C.3   263  THR263      0.1862
     23  C        -33.4780  -95.7470   18.9710 C.2   263  THR263      0.2287
     24  O        -32.5870  -95.4180   18.1850 O.2   263  THR263     -0.2866
     25  CB       -32.5190  -97.5170   20.3960 C.3   263  THR263      0.1770
     26  OG1      -32.2420  -98.9240   20.3850 O.3   263  THR263     -0.2211
     27  CG2      -32.9320  -97.0790   21.7950 C.3   263  THR263      0.0375
     28  N        -31.9770  -92.3880   19.8130 N.3   265  VAL265     -0.1245
     29  CA       -30.9030  -91.9310   20.6870 C.3   265  VAL265      0.1561
     30  C        -30.4860  -90.5230   20.3280 C.2   265  VAL265      0.2260
     31  O        -30.7230  -90.0430   19.2180 O.2   265  VAL265     -0.2867
     32  CB       -29.6550  -92.8470   20.6340 C.3   265  VAL265      0.0252
     33  CG1      -30.0550  -94.3200   20.7980 C.3   265  VAL265      0.0019
     34  CG2      -28.8790  -92.6280   19.3410 C.3   265  VAL265      0.0019
     35  N        -22.3720  -99.8540   11.9600 N.3   275  GLY275     -0.1210
     36  CA       -23.3500  -99.3630   12.9190 C.3   275  GLY275      0.1956
     37  C        -22.8320  -98.9680   14.2960 C.2   275  GLY275      0.2611
     38  O        -23.6180  -98.7510   15.2360 O.2   275  GLY275     -0.2717
     39  N        -21.5170  -98.8510   14.4330 N.am  276  VAL276     -0.1979
     40  CA       -20.9780  -98.3640   15.6910 C.3   276  VAL276      0.1595
     41  C        -21.0970  -96.8350   15.7730 C.2   276  VAL276      0.2287
     42  O        -20.6440  -96.1010   14.8780 O.2   276  VAL276     -0.2864
     43  CB       -19.5170  -98.8100   15.8900 C.3   276  VAL276      0.0276
     44  CG1      -18.9670  -98.2740   17.2190 C.3   276  VAL276      0.0022
     45  CG2      -19.4380 -100.3390   15.8630 C.3   276  VAL276      0.0022
     46  N        -22.7310  -92.3490   21.4040 N.3   279  HIS279     -0.1241
     47  CA       -24.0580  -91.7690   21.5640 C.3   279  HIS279      0.1621
     48  C        -24.5070  -91.7160   23.0180 C.2   279  HIS279      0.2264
     49  O        -23.9820  -92.4390   23.8640 O.2   279  HIS279     -0.2867
     50  CB       -25.0800  -92.5780   20.7640 C.3   279  HIS279      0.0745
     51  CG       -25.3780  -93.9100   21.3740 C.ar  279  HIS279      0.0817
     52  ND1      -26.3420  -94.0830   22.3460 N.ar  279  HIS279     -0.2268
     53  CD2      -24.8090  -95.1280   21.1890 C.ar  279  HIS279      0.1154
     54  CE1      -26.3690  -95.3520   22.7160 C.ar  279  HIS279      0.1986
     55  NE2      -25.4520  -96.0060   22.0290 N.ar  279  HIS279     -0.2212
     56  N        -29.7600  -94.9490   29.8580 N.3   283  TRP283     -0.1241
     57  CA       -30.1020  -96.2260   30.4900 C.3   283  TRP283      0.1605
     58  C        -28.9190  -97.0010   31.0760 C.2   283  TRP283      0.2264
     59  O        -29.1250  -97.8880   31.8980 O.2   283  TRP283     -0.2867
     60  CB       -30.8270  -97.1310   29.4860 C.3   283  TRP283      0.0550
     61  CG       -29.9950  -97.4370   28.2700 C.ar  283  TRP283      0.0003
     62  CD1      -29.0810  -98.4490   28.1230 C.ar  283  TRP283      0.0946
     63  CD2      -29.9880  -96.7120   27.0380 C.ar  283  TRP283      0.0152
     64  NE1      -28.5140  -98.4010   26.8660 N.ar  283  TRP283     -0.2442
     65  CE2      -29.0580  -97.3460   26.1810 C.ar  283  TRP283      0.0810
     66  CE3      -30.6890  -95.5950   26.5670 C.ar  283  TRP283      0.0012
     67  CZ2      -28.8080  -96.8920   24.8870 C.ar  283  TRP283      0.0191
     68  CZ3      -30.4360  -95.1460   25.2740 C.ar  283  TRP283      0.0001
     69  CH2      -29.5060  -95.7920   24.4540 C.ar  283  TRP283      0.0015
     70  N        -22.3140 -103.3830   28.1560 N.3   293  THR293     -0.1203
     71  CA       -23.7220 -103.7530   28.0850 C.3   293  THR293      0.1994
     72  C        -24.3530 -103.5920   26.6940 C.2   293  THR293      0.2619
     73  O        -25.4950 -103.9860   26.4920 O.2   293  THR293     -0.2717
     74  CB       -24.5610 -102.9200   29.0920 C.3   293  THR293      0.1784
     75  OG1      -24.4760 -101.5260   28.7620 O.3   293  THR293     -0.2211
     76  CG2      -24.0780 -103.1270   30.5360 C.3   293  THR293      0.0376
     77  N        -23.6450 -103.0070   25.7310 N.am  294  SER294     -0.1937
     78  CA       -24.3230 -102.6180   24.4930 C.3   294  SER294      0.2055
     79  C        -24.2290 -103.6710   23.3820 C.2   294  SER294      0.2643
     80  O        -23.7170 -104.7720   23.5970 O.2   294  SER294     -0.2714
     81  CB       -23.7800 -101.2770   23.9910 C.3   294  SER294      0.2130
     82  OG       -22.6230 -101.4420   23.1900 O.3   294  SER294     -0.2179
     83  N        -24.7450 -103.3170   22.2040 N.am  295  HIS295     -0.1959
     84  CA       -24.6700 -104.1630   21.0060 C.3   295  HIS295      0.1787
     85  C        -23.3730 -103.9420   20.2360 C.2   295  HIS295      0.2621
     86  O        -23.0860 -104.6360   19.2580 O.2   295  HIS295     -0.2715
     87  CB       -25.8520 -103.8930   20.0720 C.3   295  HIS295      0.0785
     88  CG       -27.1570 -104.4280   20.5680 C.ar  295  HIS295      0.0821
     89  ND1      -28.0500 -103.6630   21.2870 N.ar  295  HIS295     -0.2267
     90  CD2      -27.7290 -105.6500   20.4370 C.ar  295  HIS295      0.1154
     91  CE1      -29.1120 -104.3910   21.5850 C.ar  295  HIS295      0.1986
     92  NE2      -28.9410 -105.6020   21.0860 N.ar  295  HIS295     -0.2212
     93  N        -22.5940 -102.9590   20.6680 N.am  296  GLY296     -0.1940
     94  CA       -21.3090 -102.7030   20.0510 C.3   296  GLY296      0.2014
     95  C        -21.0030 -101.2210   20.0630 C.2   296  GLY296      0.2639
     96  O        -19.8460 -100.8260   19.9090 O.2   296  GLY296     -0.2714
     97  N        -22.0420 -100.4090   20.2490 N.am  297  CYS297     -0.1967
     98  CA       -21.8990  -98.9530   20.3250 C.3   297  CYS297      0.1712
     99  C        -21.1090  -98.5190   21.5590 C.2   297  CYS297      0.2296
    100  O        -21.0300  -99.2380   22.5550 O.2   297  CYS297     -0.2864
    101  CB       -23.2740  -98.2620   20.3320 C.3   297  CYS297      0.0983
    102  SG       -24.1720  -98.3330   18.7520 S.3   297  CYS297     -0.0798
    103  N        -21.5360  -96.5410   24.4170 N.3   299  ASN299     -0.1240
    104  CA       -22.4300  -95.8370   25.3250 C.3   299  ASN299      0.1653
    105  C        -21.6450  -94.8280   26.1620 C.2   299  ASN299      0.2266
    106  O        -20.6560  -95.1960   26.7780 O.2   299  ASN299     -0.2867
    107  CB       -23.1390  -96.8170   26.2710 C.3   299  ASN299      0.1155
    108  CG       -24.2240  -97.6360   25.5900 C.2   299  ASN299      0.2627
    109  OD1      -24.3270  -97.6810   24.3560 O.2   299  ASN299     -0.2716
    110  ND2      -25.0440  -98.3030   26.4050 N.am  299  ASN299     -0.0877
@<TRIPOS>BOND
     1    35    36    1
     2    36    37    1
     3    37    39   am
     4    37    38    2
     5    39    40    1
     6    42    41    2
     7     3     2    1
     8     3     4    2
     9     2     1    1
    10     2     5    1
    11    40    41    1
    12    40    43    1
    13    12    11    2
    14    45    43    1
    15    20    19    1
    16    43    44    1
    17     5     6    1
    18     6     7    1
    19    19    17   ar
    20    19    18   ar
    21    17    15   ar
    22    11    10    1
    23     9    10    1
    24    18    16   ar
    25     7     8    1
    26    15    14   ar
    27    16    14   ar
    28    10    13    1
    29    14    13    1
    30    24    23    2
    31    21    22    1
    32   102   101    1
    33    23    22    1
    34    31    30    2
    35    86    85    2
    36    34    32    1
    37    22    25    1
    38    28    29    1
    39    96    95    2
    40    94    95    1
    41    94    93    1
    42    95    97   am
    43    87    88    1
    44    87    84    1
    45    85    93   am
    46    85    84    1
    47    97    98    1
    48    98   101    1
    49    98    99    1
    50    30    29    1
    51    26    25    1
    52    25    27    1
    53    90    88   ar
    54    90    92   ar
    55    88    89   ar
    56    32    29    1
    57    32    33    1
    58    50    51    1
    59    50    47    1
    60    84    83    1
    61    92    91   ar
    62    53    51   ar
    63    53    55   ar
    64    89    91   ar
    65    51    52   ar
    66    46    47    1
    67    99   100    2
    68    47    48    1
    69    55    54   ar
    70    83    79   am
    71    52    54   ar
    72    48    49    2
    73    82    81    1
    74    79    80    2
    75    79    78    1
    76    81    78    1
    77   109   108    2
    78   103   104    1
    79    69    67   ar
    80    69    68   ar
    81    78    77    1
    82    67    65   ar
    83    68    66   ar
    84   104   105    1
    85   104   107    1
    86   108   107    1
    87   108   110   am
    88    77    72   am
    89   105   106    2
    90    65    64   ar
    91    65    63   ar
    92    73    72    2
    93    66    63   ar
    94    72    71    1
    95    64    62   ar
    96    63    61   ar
    97    71    70    1
    98    71    74    1
    99    62    61   ar
   100    61    60    1
   101    75    74    1
   102    74    76    1
   103    60    57    1
   104    56    57    1
   105    57    58    1
   106    58    59    2
