@<TRIPOS>MOLECULE
tmp/5dvvB01.pdb
 186 175 0 0 0
SMALL
GASTEIGER

@<TRIPOS>ATOM
      1  N        -20.8770   -9.8260   49.0070 N.3    26  MET26      -0.1245
      2  CA       -20.7360   -8.4540   48.5350 C.3    26  MET26       0.1570
      3  C        -21.5600   -7.5030   49.3930 C.2    26  MET26       0.2261
      4  O        -21.2560   -6.3140   49.4820 O.2    26  MET26      -0.2867
      5  CB       -21.1510   -8.3430   47.0680 C.3    26  MET26       0.0387
      6  CG       -20.0820   -8.8070   46.0960 C.3    26  MET26       0.0595
      7  SD       -18.6450   -7.7200   46.0930 S.3    26  MET26      -0.1393
      8  CE       -17.5410   -8.6190   45.0070 C.3    26  MET26       0.0692
      9  N        -19.2870   -6.7470   52.2780 N.3    29  LEU29      -0.1231
     10  CA       -18.2050   -5.8970   51.8010 C.3    29  LEU29       0.1693
     11  C        -18.6960   -4.4770   51.5300 C.2    29  LEU29       0.2592
     12  O        -18.0290   -3.5050   51.8840 O.2    29  LEU29      -0.2718
     13  CB       -17.5780   -6.4890   50.5370 C.3    29  LEU29       0.0284
     14  CG       -16.9510   -7.8800   50.6580 C.3    29  LEU29       0.0019
     15  CD1      -16.2960   -8.2910   49.3480 C.3    29  LEU29       0.0001
     16  CD2      -15.9500   -7.9260   51.8010 C.3    29  LEU29       0.0001
     17  N        -19.8630   -4.3700   50.9000 N.am   30  THR30      -0.1953
     18  CA       -20.4830   -3.0770   50.6240 C.3    30  THR30       0.1897
     19  C        -20.7170   -2.3030   51.9150 C.2    30  THR30       0.2313
     20  O        -20.3940   -1.1180   52.0110 O.2    30  THR30      -0.2863
     21  CB       -21.8230   -3.2430   49.8820 C.3    30  THR30       0.1794
     22  OG1      -21.5980   -3.8960   48.6260 O.3    30  THR30      -0.2208
     23  CG2      -22.4800   -1.8940   49.6400 C.3    30  THR30       0.0378
     24  N        -19.2130   -2.8390   54.8190 N.3    32  LEU32      -0.1231
     25  CA       -17.9050   -2.5570   55.3930 C.3    32  LEU32       0.1693
     26  C        -17.2600   -1.3490   54.7230 C.2    32  LEU32       0.2591
     27  O        -16.7120   -0.4750   55.3930 O.2    32  LEU32      -0.2718
     28  CB       -16.9940   -3.7800   55.2650 C.3    32  LEU32       0.0284
     29  CG       -15.5300   -3.5930   55.6670 C.3    32  LEU32       0.0019
     30  CD1      -15.4210   -3.2150   57.1340 C.3    32  LEU32       0.0001
     31  CD2      -14.7270   -4.8500   55.3710 C.3    32  LEU32       0.0001
     32  N        -17.3370   -1.3090   53.3960 N.am   33  ALA33      -0.1980
     33  CA       -16.7390   -0.2300   52.6190 C.3    33  ALA33       0.1597
     34  C        -17.3880    1.1070   52.9420 C.2    33  ALA33       0.2287
     35  O        -16.7080    2.1250   53.0680 O.2    33  ALA33      -0.2864
     36  CB       -16.8530   -0.5240   51.1330 C.3    33  ALA33       0.0319
     37  N        -16.1560    2.4400   56.1600 N.3    36  GLU36      -0.1245
     38  CA       -14.7550    2.8330   56.0360 C.3    36  GLU36       0.1567
     39  C        -14.6120    4.1820   55.3390 C.2    36  GLU36       0.2260
     40  O        -13.6930    4.9470   55.6340 O.2    36  GLU36      -0.2867
     41  CB       -13.9590    1.7740   55.2740 C.3    36  GLU36       0.0388
     42  CG       -13.6750    0.5100   56.0600 C.3    36  GLU36       0.1160
     43  CD       -12.7460   -0.4290   55.3190 C.2    36  GLU36       0.3649
     44  OE1      -13.2380   -1.2310   54.5000 O.co2  36  GLU36      -0.2457
     45  OE2      -11.5200   -0.3600   55.5510 O.co2  36  GLU36      -0.2457
     46  N        -10.9590    6.7500   46.1570 N.3    66  TRP66      -0.1227
     47  CA       -11.5540    6.0930   47.3210 C.3    66  TRP66       0.1737
     48  C        -11.3810    4.5740   47.3190 C.2    66  TRP66       0.2595
     49  O        -11.0910    3.9830   48.3580 O.2    66  TRP66      -0.2718
     50  CB       -13.0430    6.4450   47.4350 C.3    66  TRP66       0.0564
     51  CG       -13.9000    5.9120   46.3300 C.ar   66  TRP66       0.0003
     52  CD1      -14.2120    6.5400   45.1610 C.ar   66  TRP66       0.0946
     53  CD2      -14.5680    4.6440   46.2950 C.ar   66  TRP66       0.0152
     54  NE1      -15.0290    5.7400   44.3970 N.ar   66  TRP66      -0.2442
     55  CE2      -15.2610    4.5710   45.0710 C.ar   66  TRP66       0.0810
     56  CE3      -14.6430    3.5620   47.1780 C.ar   66  TRP66       0.0012
     57  CZ2      -16.0190    3.4600   44.7080 C.ar   66  TRP66       0.0191
     58  CZ3      -15.3950    2.4590   46.8140 C.ar   66  TRP66       0.0001
     59  CH2      -16.0720    2.4170   45.5910 C.ar   66  TRP66       0.0015
     60  N        -11.5410    3.9390   46.1630 N.am   67  LEU67      -0.1980
     61  CA       -11.4210    2.4870   46.1050 C.3    67  LEU67       0.1596
     62  C         -9.9550    2.0710   46.1330 C.2    67  LEU67       0.2287
     63  O         -9.6120    1.0300   46.6960 O.2    67  LEU67      -0.2864
     64  CB       -12.1140    1.9260   44.8620 C.3    67  LEU67       0.0297
     65  CG       -12.1060    0.3970   44.7520 C.3    67  LEU67       0.0022
     66  CD1      -12.5910   -0.2450   46.0460 C.3    67  LEU67       0.0001
     67  CD2      -12.9490   -0.0690   43.5770 C.3    67  LEU67       0.0001
     68  N         -9.0740    2.2280   49.6510 N.3    70  LEU70      -0.1231
     69  CA        -9.6660    1.0710   50.3120 C.3    70  LEU70       0.1693
     70  C         -8.8600   -0.1910   50.0210 C.2    70  LEU70       0.2591
     71  O         -8.6040   -0.9940   50.9180 O.2    70  LEU70      -0.2718
     72  CB       -11.1200    0.8720   49.8780 C.3    70  LEU70       0.0284
     73  CG       -12.1880    1.7090   50.5870 C.3    70  LEU70       0.0019
     74  CD1      -13.5800    1.2550   50.1760 C.3    70  LEU70       0.0001
     75  CD2      -12.0230    1.6360   52.0990 C.3    70  LEU70       0.0001
     76  N         -8.4490   -0.3540   48.7670 N.am   71  MET71      -0.1979
     77  CA        -7.7520   -1.5640   48.3470 C.3    71  MET71       0.1605
     78  C         -6.3140   -1.6350   48.8540 C.2    71  MET71       0.2287
     79  O         -5.8120   -2.7220   49.1340 O.2    71  MET71      -0.2864
     80  CB        -7.7710   -1.6860   46.8220 C.3    71  MET71       0.0413
     81  CG        -9.1070   -2.1540   46.2640 C.3    71  MET71       0.0598
     82  SD        -9.0980   -2.3210   44.4720 S.3    71  MET71      -0.1393
     83  CE       -10.7110   -3.0430   44.1870 C.3    71  MET71       0.0692
     84  N         -6.6750   -2.8040   52.4490 N.3    74  LEU74      -0.1245
     85  CA        -6.9290   -4.2390   52.4800 C.3    74  LEU74       0.1561
     86  C         -5.6520   -5.0280   52.2320 C.2    74  LEU74       0.2260
     87  O         -5.3450   -5.9790   52.9510 O.2    74  LEU74      -0.2867
     88  CB        -7.9820   -4.6160   51.4370 C.3    74  LEU74       0.0270
     89  CG        -8.0480   -6.0960   51.0610 C.3    74  LEU74       0.0019
     90  CD1       -8.5410   -6.9280   52.2320 C.3    74  LEU74       0.0001
     91  CD2       -8.9300   -6.3000   49.8420 C.3    74  LEU74       0.0001
     92  N         -3.4710   -4.9240   55.2600 N.3    77  ARG77      -0.1245
     93  CA        -3.9650   -5.7700   56.3430 C.3    77  ARG77       0.1563
     94  C         -3.7520   -7.2520   56.0530 C.2    77  ARG77       0.2260
     95  O         -3.6790   -8.0660   56.9730 O.2    77  ARG77      -0.2867
     96  CB        -5.4550   -5.5130   56.5960 C.3    77  ARG77       0.0307
     97  CG        -5.7990   -4.0940   57.0120 C.3    77  ARG77       0.0489
     98  CD        -7.2350   -4.0000   57.5120 C.3    77  ARG77       0.2205
     99  NE        -8.2090   -4.4510   56.5200 N.pl3  77  ARG77      -0.0865
    100  CZ        -8.8220   -3.6490   55.6550 C.cat  77  ARG77       0.5346
    101  NH1       -8.5610   -2.3490   55.6510 N.pl3  77  ARG77       0.1354
    102  NH2       -9.6980   -4.1470   54.7910 N.pl3  77  ARG77       0.1354
    103  N        -10.2470   -8.4300   54.8840 N.3    87  PHE87      -0.1241
    104  CA       -11.1780   -7.3100   54.7680 C.3    87  PHE87       0.1605
    105  C        -11.4950   -6.7550   56.1480 C.2    87  PHE87       0.2264
    106  O        -11.5050   -5.5430   56.3630 O.2    87  PHE87      -0.2867
    107  CB       -12.4660   -7.7430   54.0660 C.3    87  PHE87       0.0534
    108  CG       -12.2740   -8.1220   52.6270 C.ar   87  PHE87      -0.0203
    109  CD1      -12.4130   -7.1770   51.6240 C.ar   87  PHE87      -0.0042
    110  CD2      -11.9550   -9.4230   52.2760 C.ar   87  PHE87      -0.0042
    111  CE1      -12.2380   -7.5220   50.2970 C.ar   87  PHE87      -0.0003
    112  CE2      -11.7770   -9.7750   50.9510 C.ar   87  PHE87      -0.0003
    113  CZ       -11.9190   -8.8230   49.9600 C.ar   87  PHE87      -0.0000
    114  N        -15.2710  -11.4940   40.2990 N.3    96  MET96      -0.1245
    115  CA       -14.3860  -10.7270   41.1660 C.3    96  MET96       0.1570
    116  C        -13.0940  -11.4830   41.4590 C.2    96  MET96       0.2261
    117  O        -12.0960  -10.8810   41.8510 O.2    96  MET96      -0.2867
    118  CB       -15.0950  -10.3750   42.4750 C.3    96  MET96       0.0387
    119  CG       -15.8050  -11.5810   43.1020 C.3    96  MET96       0.0595
    120  SD       -17.5810  -11.5990   42.7690 S.3    96  MET96      -0.1393
    121  CE       -18.0460  -12.8580   43.9670 C.3    96  MET96       0.0692
    122  N         -9.8980  -10.0570   40.4440 N.3    99  ILE99      -0.1231
    123  CA        -9.4750   -8.9420   41.2810 C.3    99  ILE99       0.1692
    124  C         -8.8580   -9.4560   42.5790 C.2    99  ILE99       0.2592
    125  O         -7.9150   -8.8640   43.1070 O.2    99  ILE99      -0.2718
    126  CB       -10.6560   -8.0010   41.5940 C.3    99  ILE99       0.0266
    127  CG1      -11.2810   -7.4950   40.2930 C.3    99  ILE99       0.0019
    128  CG2      -10.2100   -6.8330   42.4580 C.3    99  ILE99       0.0020
    129  CD1      -12.4920   -6.6190   40.4980 C.3    99  ILE99       0.0001
    130  N         -9.3910  -10.5670   43.0800 N.am  100  PHE100     -0.1976
    131  CA        -8.8680  -11.2000   44.2860 C.3   100  PHE100      0.1639
    132  C         -7.4150  -11.6210   44.1010 C.2   100  PHE100      0.2290
    133  O         -6.5780  -11.3860   44.9730 O.2   100  PHE100     -0.2864
    134  CB        -9.7180  -12.4140   44.6700 C.3   100  PHE100      0.0560
    135  CG       -10.9810  -12.0650   45.4050 C.ar  100  PHE100     -0.0200
    136  CD1      -11.1480  -12.4230   46.7330 C.ar  100  PHE100     -0.0042
    137  CD2      -12.0000  -11.3760   44.7720 C.ar  100  PHE100     -0.0042
    138  CE1      -12.3110  -12.1030   47.4110 C.ar  100  PHE100     -0.0003
    139  CE2      -13.1640  -11.0520   45.4430 C.ar  100  PHE100     -0.0003
    140  CZ       -13.3190  -11.4160   46.7640 C.ar  100  PHE100     -0.0000
    141  N         -5.2120   -8.5740   44.1350 N.3   103  LEU103     -0.1245
    142  CA        -5.0830   -8.0820   45.5010 C.3   103  LEU103      0.1561
    143  C         -4.1360   -8.9780   46.2930 C.2   103  LEU103      0.2260
    144  O         -3.2770   -8.4910   47.0280 O.2   103  LEU103     -0.2867
    145  CB        -6.4530   -8.0060   46.1790 C.3   103  LEU103      0.0270
    146  CG        -7.3620   -6.8560   45.7350 C.3   103  LEU103      0.0019
    147  CD1       -8.7870   -7.0660   46.2240 C.3   103  LEU103      0.0001
    148  CD2       -6.8200   -5.5250   46.2320 C.3   103  LEU103      0.0001
    149  N        -12.3380   -2.9580   39.6410 N.3   184  GLY184     -0.1225
    150  CA       -13.2800   -3.0910   40.7360 C.3   184  GLY184      0.1811
    151  C        -14.5450   -2.2840   40.5220 C.2   184  GLY184      0.2280
    152  O        -15.6490   -2.7780   40.7510 O.2   184  GLY184     -0.2866
    153  N        -16.8490   -3.6590   38.0090 N.3   187  HIS187     -0.1226
    154  CA       -17.6120   -4.7590   38.5770 C.3   187  HIS187      0.1752
    155  C        -18.7340   -4.2520   39.4800 C.2   187  HIS187      0.2595
    156  O        -19.8530   -4.7610   39.4350 O.2   187  HIS187     -0.2718
    157  CB       -16.6820   -5.6930   39.3510 C.3   187  HIS187      0.0759
    158  CG       -17.3780   -6.8500   39.9920 C.ar  187  HIS187      0.0818
    159  ND1      -17.5270   -6.9640   41.3570 N.ar  187  HIS187     -0.2268
    160  CD2      -17.9620   -7.9490   39.4570 C.ar  187  HIS187      0.1154
    161  CE1      -18.1730   -8.0810   41.6360 C.ar  187  HIS187      0.1986
    162  NE2      -18.4500   -8.6970   40.5000 N.ar  187  HIS187     -0.2212
    163  N        -18.4280   -3.2450   40.2940 N.am  188  LEU188     -0.1980
    164  CA       -19.4120   -2.6560   41.1990 C.3   188  LEU188      0.1596
    165  C        -20.5610   -2.0000   40.4390 C.2   188  LEU188      0.2287
    166  O        -21.7050   -2.0100   40.8950 O.2   188  LEU188     -0.2864
    167  CB       -18.7490   -1.6290   42.1190 C.3   188  LEU188      0.0297
    168  CG       -17.8290   -2.1810   43.2090 C.3   188  LEU188      0.0022
    169  CD1      -17.2380   -1.0500   44.0340 C.3   188  LEU188      0.0001
    170  CD2      -18.5860   -3.1580   44.0960 C.3   188  LEU188      0.0001
    171  N        -25.9370   -1.0400   46.9470 N.3   199  LEU199     -0.1245
    172  CA       -24.8740   -0.1510   47.3980 C.3   199  LEU199      0.1561
    173  C        -25.4580    1.0020   48.2020 C.2   199  LEU199      0.2260
    174  O        -26.5570    1.4640   47.9130 O.2   199  LEU199     -0.2867
    175  CB       -24.0900    0.3890   46.2050 C.3   199  LEU199      0.0270
    176  CG       -23.6360   -0.6640   45.1950 C.3   199  LEU199      0.0019
    177  CD1      -23.0280   -0.0060   43.9710 C.3   199  LEU199      0.0001
    178  CD2      -22.6540   -1.6260   45.8380 C.3   199  LEU199      0.0001
    179  N        -21.8290    5.3780   48.7010 N.3   203  LEU203     -0.1245
    180  CA       -21.1330    4.4860   47.7840 C.3   203  LEU203      0.1561
    181  C        -21.6910    4.6210   46.3660 C.2   203  LEU203      0.2260
    182  O        -20.9810    4.3900   45.3860 O.2   203  LEU203     -0.2867
    183  CB       -21.2390    3.0410   48.2730 C.3   203  LEU203      0.0270
    184  CG       -20.2190    2.0410   47.7340 C.3   203  LEU203      0.0019
    185  CD1      -18.8310    2.6470   47.7640 C.3   203  LEU203      0.0001
    186  CD2      -20.2550    0.7650   48.5560 C.3   203  LEU203      0.0001
@<TRIPOS>BOND
     1   153   154    1
     2   154   157    1
     3   154   155    1
     4   157   158    1
     5   156   155    2
     6   160   158   ar
     7   160   162   ar
     8   155   163   am
     9   149   150    1
    10   158   159   ar
    11   127   129    1
    12   127   126    1
    13   163   164    1
    14   114   115    1
    15   165   166    2
    16   165   164    1
    17   122   123    1
    18   162   161   ar
    19   151   150    1
    20   151   152    2
    21   115   116    1
    22   115   118    1
    23   164   167    1
    24   123   126    1
    25   123   124    1
    26   159   161   ar
    27   116   117    2
    28   126   128    1
    29   167   168    1
    30   118   119    1
    31   124   130   am
    32   124   125    2
    33   120   119    1
    34   120   121    1
    35   130   131    1
    36   168   169    1
    37   168   170    1
    38    67    65    1
    39   177   176    1
    40   132   131    1
    41   132   133    2
    42   141   142    1
    43    83    82    1
    44   131   134    1
    45    54    55   ar
    46    54    52   ar
    47    82    81    1
    48   134   135    1
    49    57    55   ar
    50    57    59   ar
    51    65    64    1
    52    65    66    1
    53   137   135   ar
    54   137   139   ar
    55    64    61    1
    56     8     7    1
    57    55    53   ar
    58    52    51   ar
    59   176   178    1
    60   176   175    1
    61   182   181    2
    62   135   136   ar
    63   139   140   ar
    64   142   145    1
    65   142   143    1
    66    59    58   ar
    67   146   145    1
    68   146   147    1
    69   146   148    1
    70     7     6    1
    71     6     5    1
    72    61    62    1
    73    61    60    1
    74    62    63    2
    75    46    47    1
    76    60    48   am
    77   175   172    1
    78    81    80    1
    79   143   144    2
    80    53    51   ar
    81    53    56   ar
    82    51    50    1
    83   181   180    1
    84   136   138   ar
    85   140   138   ar
    86    58    56   ar
    87    80    77    1
    88   171   172    1
    89     5     2    1
    90    48    47    1
    91    48    49    2
    92    47    50    1
    93   172   173    1
    94   184   185    1
    95   184   183    1
    96   184   186    1
    97   180   183    1
    98   180   179    1
    99   174   173    2
   100    77    76    1
   101    77    78    1
   102     2     1    1
   103     2     3    1
   104    22    21    1
   105    76    70   am
   106    78    79    2
   107    15    14    1
   108     3     4    2
   109    23    21    1
   110    68    69    1
   111    91    89    1
   112    72    69    1
   113    72    73    1
   114    21    18    1
   115   113   111   ar
   116   113   112   ar
   117    70    69    1
   118    70    71    2
   119    74    73    1
   120   111   109   ar
   121    13    14    1
   122    13    10    1
   123    73    75    1
   124    18    17    1
   125    18    19    1
   126    14    16    1
   127    17    11   am
   128   112   110   ar
   129    89    88    1
   130    89    90    1
   131    36    33    1
   132    88    85    1
   133    11    10    1
   134    11    12    2
   135   109   108   ar
   136    10     9    1
   137    19    20    2
   138    86    85    1
   139    86    87    2
   140   110   108   ar
   141    84    85    1
   142    33    34    1
   143    33    32    1
   144   108   107    1
   145    34    35    2
   146    32    26   am
   147   107   104    1
   148    44    43   ar
   149    26    25    1
   150    26    27    2
   151   104   103    1
   152   104   105    1
   153   102   100    1
   154    24    25    1
   155    92    93    1
   156    28    25    1
   157    28    29    1
   158    41    38    1
   159    41    42    1
   160    43    45   ar
   161    43    42    1
   162    39    40    2
   163    39    38    1
   164    31    29    1
   165   101   100    1
   166   100    99    2
   167    29    30    1
   168    38    37    1
   169    94    93    1
   170    94    95    2
   171   105   106    2
   172    93    96    1
   173    99    98    1
   174    96    97    1
   175    97    98    1
