@<TRIPOS>MOLECULE
tmp/5dvvA00.pdb
 89 81 0 0 0
SMALL
GASTEIGER

@<TRIPOS>ATOM
      1  N          2.1390   -4.6890   15.5660 N.3    37  VAL37      -0.1245
      2  CA         3.1240   -5.5650   14.9470 C.3    37  VAL37       0.1561
      3  C          4.5360   -5.0560   15.2230 C.2    37  VAL37       0.2260
      4  O          5.4420   -5.8360   15.5170 O.2    37  VAL37      -0.2867
      5  CB         2.9050   -5.6790   13.4290 C.3    37  VAL37       0.0252
      6  CG1        3.8490   -6.7090   12.8330 C.3    37  VAL37       0.0019
      7  CG2        1.4560   -6.0430   13.1290 C.3    37  VAL37       0.0019
      8  N          5.4360   -5.5100   19.0900 N.3    40  ILE40      -0.1245
      9  CA         5.8510   -6.8630   19.4390 C.3    40  ILE40       0.1561
     10  C          7.3390   -7.0610   19.1750 C.2    40  ILE40       0.2260
     11  O          8.0640   -7.5830   20.0210 O.2    40  ILE40      -0.2867
     12  CB         5.0400   -7.9110   18.6570 C.3    40  ILE40       0.0252
     13  CG1        3.5650   -7.8360   19.0550 C.3    40  ILE40       0.0019
     14  CG2        5.5840   -9.3080   18.9070 C.3    40  ILE40       0.0019
     15  CD1        2.6350   -8.5450   18.0960 C.3    40  ILE40       0.0001
     16  N         10.4760   -7.6110   21.9960 N.3    44  LYS44      -0.1245
     17  CA        11.4830   -8.6620   21.9140 C.3    44  LYS44       0.1561
     18  C         12.8950   -8.0830   21.9540 C.2    44  LYS44       0.2260
     19  O         13.8550   -8.7820   22.2790 O.2    44  LYS44      -0.2867
     20  CB        11.2900   -9.4900   20.6410 C.3    44  LYS44       0.0271
     21  CG         9.9260  -10.1570   20.5620 C.3    44  LYS44       0.0035
     22  CD         9.6930  -11.1640   21.6440 C.3    44  LYS44       0.0206
     23  CE         8.7850  -12.2850   21.1530 C.3    44  LYS44       0.1093
     24  NZ         7.3760  -12.0560   21.5440 N.3    44  LYS44      -0.1314
     25  N          7.7890  -17.7390   27.0350 N.3    54  LEU54      -0.1245
     26  CA         6.9440  -17.2790   25.9360 C.3    54  LEU54       0.1561
     27  C          5.5570  -16.8560   26.4080 C.2    54  LEU54       0.2260
     28  O          5.0260  -15.8380   25.9650 O.2    54  LEU54      -0.2867
     29  CB         6.8180  -18.3700   24.8710 C.3    54  LEU54       0.0270
     30  CG         6.4300  -18.0110   23.4520 C.3    54  LEU54       0.0019
     31  CD1        7.4640  -17.1140   22.7850 C.3    54  LEU54       0.0001
     32  CD2        6.2480  -19.2960   22.6390 C.3    54  LEU54       0.0001
     33  N          3.6120  -13.0990   26.3160 N.3    58  VAL58      -0.1245
     34  CA         2.2700  -12.8470   25.8110 C.3    58  VAL58       0.1561
     35  C          1.4520  -12.0710   26.8360 C.2    58  VAL58       0.2260
     36  O          0.7620  -11.1090   26.4990 O.2    58  VAL58      -0.2867
     37  CB         1.5460  -14.1650   25.4600 C.3    58  VAL58       0.0252
     38  CG1        0.0760  -13.9130   25.1590 C.3    58  VAL58       0.0019
     39  CG2        2.2300  -14.8510   24.2880 C.3    58  VAL58       0.0019
     40  N          2.4420   -8.3880   27.1590 N.3    61  LEU61      -0.1231
     41  CA         1.9760   -7.6410   25.9960 C.3    61  LEU61       0.1693
     42  C          0.4610   -7.4590   26.0230 C.2    61  LEU61       0.2591
     43  O         -0.0560   -6.4380   25.5730 O.2    61  LEU61      -0.2718
     44  CB         2.4000   -8.3410   24.7030 C.3    61  LEU61       0.0284
     45  CG         3.8690   -8.1820   24.3080 C.3    61  LEU61       0.0019
     46  CD1        4.2100   -9.0740   23.1280 C.3    61  LEU61       0.0001
     47  CD2        4.1690   -6.7300   23.9820 C.3    61  LEU61       0.0001
     48  N         -0.2480   -8.4490   26.5540 N.am   62  GLU62      -0.1979
     49  CA        -1.7030   -8.3860   26.6370 C.3    62  GLU62       0.1602
     50  C         -2.1740   -7.3420   27.6490 C.2    62  GLU62       0.2287
     51  O         -3.2410   -6.7490   27.4900 O.2    62  GLU62      -0.2864
     52  CB        -2.2780   -9.7550   27.0040 C.3    62  GLU62       0.0415
     53  CG        -2.3310  -10.7530   25.8580 C.3    62  GLU62       0.1163
     54  CD        -2.9180  -12.0820   26.2890 C.2    62  GLU62       0.3649
     55  OE1       -3.1990  -12.2390   27.4950 O.co2  62  GLU62      -0.2457
     56  OE2       -3.0990  -12.9670   25.4270 O.co2  62  GLU62      -0.2457
     57  N         -8.2450   -8.8410   13.9420 N.3   199  ASP199     -0.1225
     58  CA        -8.1070  -10.1300   14.6140 C.3   199  ASP199      0.1805
     59  C         -7.1070  -10.0780   15.7660 C.2   199  ASP199      0.2597
     60  O         -7.3600  -10.6180   16.8430 O.2   199  ASP199     -0.2718
     61  CB        -7.6890  -11.2070   13.6110 C.3   199  ASP199      0.1424
     62  CG        -7.8950  -12.6220   14.0980 C.2   199  ASP199      0.3668
     63  OD1       -8.4240  -12.8670   15.1710 O.co2 199  ASP199     -0.2456
     64  OD2       -7.6380  -13.5510   13.3280 O.co2 199  ASP199     -0.2456
     65  N         -5.9720   -9.4280   15.5320 N.am  200  LEU200     -0.1979
     66  CA        -4.9520   -9.2820   16.5610 C.3   200  LEU200      0.1596
     67  C         -5.4760   -8.3900   17.6780 C.2   200  LEU200      0.2287
     68  O         -5.1920   -8.6170   18.8530 O.2   200  LEU200     -0.2864
     69  CB        -3.6630   -8.7070   15.9660 C.3   200  LEU200      0.0297
     70  CG        -2.3550   -8.8600   16.7470 C.3   200  LEU200      0.0022
     71  CD1       -1.1770   -8.8140   15.7950 C.3   200  LEU200      0.0001
     72  CD2       -2.2050   -7.7800   17.7970 C.3   200  LEU200      0.0001
     73  N         -7.9160  -10.2040   19.9860 N.3   203  GLU203     -0.1231
     74  CA        -7.2070  -11.0240   20.9620 C.3   203  GLU203      0.1699
     75  C         -6.7130  -10.1810   22.1300 C.2   203  GLU203      0.2592
     76  O         -6.8160  -10.5870   23.2880 O.2   203  GLU203     -0.2718
     77  CB        -6.0290  -11.7480   20.3090 C.3   203  GLU203      0.0402
     78  CG        -6.4270  -12.8480   19.3430 C.3   203  GLU203      0.1161
     79  CD        -5.2600  -13.7450   18.9800 C.2   203  GLU203      0.3649
     80  OE1       -4.1200  -13.4300   19.3810 O.co2 203  GLU203     -0.2457
     81  OE2       -5.4840  -14.7670   18.2990 O.co2 203  GLU203     -0.2457
     82  N         -6.1770   -9.0060   21.8150 N.am  204  MET204     -0.1979
     83  CA        -5.6790   -8.0880   22.8310 C.3   204  MET204      0.1605
     84  C         -6.8060   -7.6170   23.7450 C.2   204  MET204      0.2287
     85  O         -6.5870   -7.3360   24.9230 O.2   204  MET204     -0.2864
     86  CB        -4.9940   -6.8860   22.1780 C.3   204  MET204      0.0413
     87  CG        -3.7580   -7.2350   21.3650 C.3   204  MET204      0.0598
     88  SD        -2.5390   -8.1400   22.3320 S.3   204  MET204     -0.1393
     89  CE        -1.1620   -8.1980   21.1900 C.3   204  MET204      0.0692
@<TRIPOS>BOND
     1     6     5    1
     2     7     5    1
     3    64    62   ar
     4     5     2    1
     5    61    62    1
     6    61    58    1
     7    57    58    1
     8    62    63   ar
     9    58    59    1
    10     2     3    1
    11     2     1    1
    12     3     4    2
    13    65    59   am
    14    65    66    1
    15    59    60    2
    16    71    70    1
    17    69    66    1
    18    69    70    1
    19    66    67    1
    20    70    72    1
    21    67    68    2
    22    15    13    1
    23    81    79   ar
    24    12    14    1
    25    12    13    1
    26    12     9    1
    27    79    78    1
    28    79    80   ar
    29     8     9    1
    30    10     9    1
    31    10    11    2
    32    78    77    1
    33    73    74    1
    34    77    74    1
    35    21    20    1
    36    21    22    1
    37    20    17    1
    38    74    75    1
    39    23    24    1
    40    23    22    1
    41    89    88    1
    42    87    86    1
    43    87    88    1
    44    82    75   am
    45    82    83    1
    46    17    18    1
    47    17    16    1
    48    18    19    2
    49    75    76    2
    50    86    83    1
    51    32    30    1
    52    31    30    1
    53    83    84    1
    54    46    45    1
    55    30    29    1
    56    84    85    2
    57    47    45    1
    58    39    37    1
    59    45    44    1
    60    44    41    1
    61    29    26    1
    62    38    37    1
    63    56    54   ar
    64    37    34    1
    65    43    42    2
    66    34    33    1
    67    34    35    1
    68    53    54    1
    69    53    52    1
    70    26    27    1
    71    26    25    1
    72    28    27    2
    73    41    42    1
    74    41    40    1
    75    42    48   am
    76    54    55   ar
    77    36    35    2
    78    48    49    1
    79    49    52    1
    80    49    50    1
    81    51    50    2
