@<TRIPOS>MOLECULE
tmp/5dvvB00.pdb
 117 109 0 0 0
SMALL
GASTEIGER

@<TRIPOS>ATOM
      1  N        -16.5220    6.7940   55.5680 N.3    38  VAL38      -0.1245
      2  CA       -16.7580    7.8860   56.5030 C.3    38  VAL38       0.1561
      3  C        -15.4720    8.2090   57.2570 C.2    38  VAL38       0.2260
      4  O        -15.1470    9.3740   57.4840 O.2    38  VAL38      -0.2867
      5  CB       -17.8810    7.5450   57.5060 C.3    38  VAL38       0.0252
      6  CG1      -18.2100    8.7540   58.3650 C.3    38  VAL38       0.0019
      7  CG2      -19.1220    7.0660   56.7700 C.3    38  VAL38       0.0019
      8  N        -12.8150    9.8840   54.7340 N.3    41  ILE41      -0.1231
      9  CA       -13.0380   11.3020   54.4880 C.3    41  ILE41       0.1692
     10  C        -12.3800   12.1540   55.5700 C.2    41  ILE41       0.2592
     11  O        -11.7170   13.1500   55.2730 O.2    41  ILE41      -0.2718
     12  CB       -14.5450   11.6140   54.4130 C.3    41  ILE41       0.0266
     13  CG1      -15.1600   10.9270   53.1920 C.3    41  ILE41       0.0019
     14  CG2      -14.7860   13.1100   54.3470 C.3    41  ILE41       0.0020
     15  CD1      -16.6590   11.0730   53.0930 C.3    41  ILE41       0.0001
     16  N        -12.5500   11.7460   56.8240 N.am   42  ASN42      -0.1974
     17  CA       -11.9420   12.4420   57.9550 C.3    42  ASN42       0.1688
     18  C        -10.4290   12.2440   58.0010 C.2    42  ASN42       0.2292
     19  O         -9.7030   13.0410   58.5950 O.2    42  ASN42      -0.2864
     20  CB       -12.5710   11.9720   59.2690 C.3    42  ASN42       0.1181
     21  CG       -14.0600   12.2730   59.3470 C.2    42  ASN42       0.2629
     22  OD1      -14.4680   13.3070   59.8720 O.2    42  ASN42      -0.2716
     23  ND2      -14.8770   11.3600   58.8360 N.am   42  ASN42      -0.0877
     24  N         -8.9900   14.7890   55.2940 N.3    45  LYS45      -0.1245
     25  CA        -8.9500   16.1690   55.7610 C.3    45  LYS45       0.1561
     26  C         -7.7820   16.3850   56.7210 C.2    45  LYS45       0.2260
     27  O         -7.3790   17.5200   56.9770 O.2    45  LYS45      -0.2867
     28  CB       -10.2700   16.5500   56.4370 C.3    45  LYS45       0.0271
     29  CG       -10.4500   15.9580   57.8220 C.3    45  LYS45       0.0035
     30  CD       -11.8020   16.3170   58.4170 C.3    45  LYS45       0.0206
     31  CE       -11.9480   15.7500   59.8230 C.3    45  LYS45       0.1093
     32  NZ       -13.2960   16.0180   60.3970 N.3    45  LYS45      -0.1314
     33  N         -4.2810   18.7920   51.9950 N.3    50  PHE50      -0.1241
     34  CA        -5.5870   18.4670   51.4300 C.3    50  PHE50       0.1605
     35  C         -6.6210   19.5540   51.7160 C.2    50  PHE50       0.2264
     36  O         -7.4240   19.8980   50.8490 O.2    50  PHE50      -0.2867
     37  CB        -6.0740   17.1210   51.9710 C.3    50  PHE50       0.0534
     38  CG        -7.3170   16.6070   51.3020 C.ar   50  PHE50      -0.0203
     39  CD1       -8.5600   16.7800   51.8890 C.ar   50  PHE50      -0.0042
     40  CD2       -7.2420   15.9440   50.0870 C.ar   50  PHE50      -0.0042
     41  CE1       -9.7040   16.3050   51.2760 C.ar   50  PHE50      -0.0003
     42  CE2       -8.3830   15.4670   49.4690 C.ar   50  PHE50      -0.0003
     43  CZ        -9.6150   15.6470   50.0650 C.ar   50  PHE50      -0.0000
     44  N        -12.6180   23.1030   47.8770 N.3    55  LEU55      -0.1245
     45  CA       -13.5850   22.1090   48.3310 C.3    55  LEU55       0.1561
     46  C        -14.0890   21.2470   47.1780 C.2    55  LEU55       0.2260
     47  O        -14.5310   20.1170   47.3830 O.2    55  LEU55      -0.2867
     48  CB       -14.7650   22.7880   49.0290 C.3    55  LEU55       0.0270
     49  CG       -15.6330   22.0090   49.9950 C.3    55  LEU55       0.0019
     50  CD1      -14.8500   21.5320   51.2110 C.3    55  LEU55       0.0001
     51  CD2      -16.8070   22.8860   50.4380 C.3    55  LEU55       0.0001
     52  N        -11.3070   18.7370   46.5290 N.3    58  GLN58      -0.1231
     53  CA       -11.2710   17.7050   47.5580 C.3    58  GLN58       0.1698
     54  C        -12.2220   16.5660   47.2220 C.2    58  GLN58       0.2592
     55  O        -11.8450   15.3940   47.2730 O.2    58  GLN58      -0.2718
     56  CB       -11.6230   18.2950   48.9220 C.3    58  GLN58       0.0381
     57  CG       -10.5990   19.2740   49.4560 C.3    58  GLN58       0.0905
     58  CD       -10.9500   19.7680   50.8420 C.2    58  GLN58       0.2608
     59  OE1      -12.0830   20.1710   51.1020 O.2    58  GLN58      -0.2717
     60  NE2       -9.9820   19.7260   51.7460 N.am   58  GLN58      -0.0878
     61  N        -13.4590   16.9270   46.8890 N.am   59  VAL59      -0.1980
     62  CA       -14.4710   15.9700   46.4560 C.3    59  VAL59       0.1595
     63  C        -13.9550   15.1140   45.3070 C.2    59  VAL59       0.2287
     64  O        -14.1110   13.8920   45.3030 O.2    59  VAL59      -0.2864
     65  CB       -15.7640   16.6920   46.0130 C.3    59  VAL59       0.0276
     66  CG1      -16.6700   15.7580   45.2220 C.3    59  VAL59       0.0022
     67  CG2      -16.4900   17.2700   47.2170 C.3    59  VAL59       0.0022
     68  N        -11.2050   12.5310   46.2010 N.3    62  LEU62      -0.1231
     69  CA       -11.8290   11.4370   46.9340 C.3    62  LEU62       0.1693
     70  C        -12.6460   10.5420   46.0050 C.2    62  LEU62       0.2591
     71  O        -12.6580    9.3220   46.1640 O.2    62  LEU62      -0.2718
     72  CB       -12.7130   11.9810   48.0590 C.3    62  LEU62       0.0284
     73  CG       -11.9740   12.5070   49.2920 C.3    62  LEU62       0.0019
     74  CD1      -12.9290   13.2210   50.2340 C.3    62  LEU62       0.0001
     75  CD2      -11.2650   11.3690   50.0120 C.3    62  LEU62       0.0001
     76  N        -13.3210   11.1500   45.0350 N.am   63  GLU63      -0.1979
     77  CA       -14.1280   10.3980   44.0780 C.3    63  GLU63       0.1602
     78  C        -13.2720    9.4760   43.2120 C.2    63  GLU63       0.2287
     79  O        -13.7150    8.4000   42.8120 O.2    63  GLU63      -0.2864
     80  CB       -14.9300   11.3490   43.1850 C.3    63  GLU63       0.0415
     81  CG       -16.1650   11.9450   43.8430 C.3    63  GLU63       0.1163
     82  CD       -16.8620   12.9630   42.9570 C.2    63  GLU63       0.3649
     83  OE1      -16.2730   13.3650   41.9310 O.co2  63  GLU63      -0.2457
     84  OE2      -18.0000   13.3610   43.2850 O.co2  63  GLU63      -0.2457
     85  N        -25.8480    4.9090   49.8380 N.3   201  ASP201     -0.1225
     86  CA       -26.0100    6.2040   49.1820 C.3   201  ASP201      0.1805
     87  C        -24.6690    6.8510   48.8470 C.2   201  ASP201      0.2597
     88  O        -24.4380    7.2780   47.7140 O.2   201  ASP201     -0.2718
     89  CB       -26.8320    7.1440   50.0650 C.3   201  ASP201      0.1424
     90  CG       -28.1970    6.5810   50.4050 C.2   201  ASP201      0.3668
     91  OD1      -28.4520    5.3980   50.0940 O.co2 201  ASP201     -0.2456
     92  OD2      -29.0130    7.3190   50.9960 O.co2 201  ASP201     -0.2456
     93  N        -23.7900    6.9200   49.8410 N.am  202  LEU202     -0.1979
     94  CA       -22.4700    7.5060   49.6600 C.3   202  LEU202      0.1596
     95  C        -21.6650    6.6950   48.6520 C.2   202  LEU202      0.2287
     96  O        -20.9170    7.2490   47.8480 O.2   202  LEU202     -0.2864
     97  CB       -21.7350    7.5840   51.0000 C.3   202  LEU202      0.0297
     98  CG       -20.5320    8.5210   51.1210 C.3   202  LEU202      0.0022
     99  CD1      -20.3640    8.9400   52.5660 C.3   202  LEU202      0.0001
    100  CD2      -19.2590    7.8660   50.6250 C.3   202  LEU202      0.0001
    101  N        -22.7890    7.5370   45.1580 N.3   205  GLU205     -0.1231
    102  CA       -22.2250    8.7950   44.6790 C.3   205  GLU205      0.1699
    103  C        -20.7850    8.6090   44.2230 C.2   205  GLU205      0.2592
    104  O        -20.3600    9.2000   43.2310 O.2   205  GLU205     -0.2718
    105  CB       -22.2950    9.8720   45.7640 C.3   205  GLU205      0.0402
    106  CG       -23.6970   10.3850   46.0380 C.3   205  GLU205      0.1161
    107  CD       -23.7040   11.6470   46.8770 C.2   205  GLU205      0.3649
    108  OE1      -22.6220   12.0620   47.3440 O.co2 205  GLU205     -0.2457
    109  OE2      -24.7940   12.2290   47.0630 O.co2 205  GLU205     -0.2457
    110  N        -20.0380    7.7870   44.9540 N.am  206  MET206     -0.1979
    111  CA       -18.6540    7.4880   44.6060 C.3   206  MET206      0.1605
    112  C        -18.5750    6.7780   43.2610 C.2   206  MET206      0.2287
    113  O        -17.6010    6.9210   42.5230 O.2   206  MET206     -0.2864
    114  CB       -17.9990    6.6300   45.6900 C.3   206  MET206      0.0413
    115  CG       -17.7940    7.3350   47.0170 C.3   206  MET206      0.0598
    116  SD       -16.7990    8.8260   46.8480 S.3   206  MET206     -0.1393
    117  CE       -16.0890    8.9430   48.4880 C.3   206  MET206      0.0692
@<TRIPOS>BOND
     1    83    82   ar
     2   113   112    2
     3    79    78    2
     4    82    84   ar
     5    82    81    1
     6    80    81    1
     7    80    77    1
     8    78    77    1
     9   104   103    2
    10   112   111    1
    11    77    76    1
    12   103   102    1
    13   103   110   am
    14   111   110    1
    15   111   114    1
    16   102   101    1
    17   102   105    1
    18    76    70   am
    19    66    65    1
    20    64    63    2
    21    63    62    1
    22   114   115    1
    23   105   106    1
    24    70    71    2
    25    70    69    1
    26    65    62    1
    27    65    67    1
    28   106   107    1
    29    68    69    1
    30    62    61    1
    31    52    53    1
    32   116   115    1
    33   116   117    1
    34   107   109   ar
    35   107   108   ar
    36    61    54   am
    37    69    72    1
    38    46    47    2
    39    46    45    1
    40    54    55    2
    41    54    53    1
    42    53    56    1
    43    88    87    2
    44    96    95    2
    45    44    45    1
    46    72    73    1
    47    45    48    1
    48    95    94    1
    49    87    86    1
    50    87    93   am
    51    56    57    1
    52    48    49    1
    53    86    85    1
    54    86    89    1
    55    73    75    1
    56    73    74    1
    57    57    58    1
    58    42    43   ar
    59    42    40   ar
    60    94    93    1
    61    94    97    1
    62    49    51    1
    63    49    50    1
    64    43    41   ar
    65    89    90    1
    66    40    38   ar
    67    91    90   ar
    68    90    92   ar
    69   100    98    1
    70    58    59    2
    71    58    60   am
    72    36    35    2
    73    97    98    1
    74    98    99    1
    75    41    39   ar
    76    38    39   ar
    77    38    37    1
    78    34    35    1
    79    34    37    1
    80    34    33    1
    81    15    13    1
    82    13    12    1
    83    14    12    1
    84    12     9    1
    85     9     8    1
    86     9    10    1
    87    11    10    2
    88    24    25    1
    89     1     2    1
    90    10    16   am
    91    25    28    1
    92    25    26    1
    93    28    29    1
    94     2     3    1
    95     2     5    1
    96    26    27    2
    97     7     5    1
    98    16    17    1
    99     3     4    2
   100     5     6    1
   101    29    30    1
   102    17    18    1
   103    17    20    1
   104    18    19    2
   105    30    31    1
   106    23    21   am
   107    20    21    1
   108    21    22    2
   109    31    32    1
