@<TRIPOS>MOLECULE
tmp/5dw1D00.pdb
 145 143 0 0 0
SMALL
GASTEIGER

@<TRIPOS>ATOM
      1  N         20.4960   -4.5260  -57.4910 N.3    25  TRP25      -0.1228
      2  CA        19.3070   -3.9330  -57.9990 C.3    25  TRP25       0.1722
      3  C         18.0980   -3.8720  -57.0780 C.2    25  TRP25       0.2437
      4  O         17.3430   -2.9080  -57.1430 O.2    25  TRP25      -0.2733
      5  CB        18.8630   -4.5870  -59.4060 C.3    25  TRP25       0.0563
      6  CG        18.3280   -6.0200  -59.3350 C.ar   25  TRP25       0.0003
      7  CD1       19.0210   -7.1030  -59.5340 C.ar   25  TRP25       0.0946
      8  CD2       17.0370   -6.4220  -58.9120 C.ar   25  TRP25       0.0152
      9  NE1       18.2560   -8.2000  -59.3400 N.ar   25  TRP25      -0.2442
     10  CE2       17.0150   -7.8150  -59.0050 C.ar   25  TRP25       0.0810
     11  CE3       15.8910   -5.7620  -58.5620 C.ar   25  TRP25       0.0012
     12  CZ2       15.8610   -8.5850  -58.7040 C.ar   25  TRP25       0.0191
     13  CZ3       14.7660   -6.5170  -58.3000 C.ar   25  TRP25       0.0001
     14  CH2       14.7670   -7.9040  -58.3520 C.ar   25  TRP25       0.0015
     15  N         17.9460   -4.8350  -56.0970 N.am   26  PRO26      -0.2718
     16  CA        16.7780   -4.6620  -55.2880 C.3    26  PRO26       0.1535
     17  C         16.8950   -3.4670  -54.3680 C.2    26  PRO26       0.2598
     18  O         15.8770   -3.0780  -53.8090 O.2    26  PRO26      -0.2715
     19  CB        16.7940   -5.9600  -54.4330 C.3    26  PRO26       0.0310
     20  CG        17.5320   -6.9470  -55.2850 C.3    26  PRO26       0.0237
     21  CD        18.6090   -6.1220  -55.8590 C.3    26  PRO26       0.0939
     22  N         18.0870   -2.9000  -54.2750 N.am   27  PHE27      -0.1974
     23  CA        18.3320   -1.7350  -53.3710 C.3    27  PHE27       0.1639
     24  C         18.3640   -0.3970  -54.0680 C.2    27  PHE27       0.2290
     25  O         18.5120    0.6270  -53.4420 O.2    27  PHE27      -0.2864
     26  CB        19.6640   -1.9780  -52.6230 C.3    27  PHE27       0.0560
     27  CG        19.6810   -3.2940  -51.9290 C.ar   27  PHE27      -0.0200
     28  CD1       18.9600   -3.4660  -50.6850 C.ar   27  PHE27      -0.0042
     29  CD2       20.2660   -4.4540  -52.5030 C.ar   27  PHE27      -0.0042
     30  CE1       18.9420   -4.7470  -50.1270 C.ar   27  PHE27      -0.0003
     31  CE2       20.1260   -5.7300  -51.9270 C.ar   27  PHE27      -0.0003
     32  CZ        19.4550   -5.8730  -50.7360 C.ar   27  PHE27      -0.0000
     33  N         11.5160   -0.1300  -51.5330 N.3    31  VAL31      -0.1231
     34  CA        10.7000   -1.3980  -51.6140 C.3    31  VAL31       0.1692
     35  C          9.2930   -0.9830  -51.8890 C.2    31  VAL31       0.2592
     36  O          8.7340   -0.1690  -51.1580 O.2    31  VAL31      -0.2718
     37  CB        10.7750   -2.1510  -50.2720 C.3    31  VAL31       0.0266
     38  CG1        9.7920   -3.3260  -50.1860 C.3    31  VAL31       0.0020
     39  CG2       12.2310   -2.5810  -49.9570 C.3    31  VAL31       0.0020
     40  N          8.7180   -1.6220  -52.9230 N.am   32  ASP32      -0.1974
     41  CA         7.3130   -1.3190  -53.3160 C.3    32  ASP32       0.1709
     42  C          6.4410   -2.3590  -52.7190 C.2    32  ASP32       0.2293
     43  O          6.1540   -3.3890  -53.2960 O.2    32  ASP32      -0.2864
     44  CB         7.3180   -1.2750  -54.8130 C.3    32  ASP32       0.1436
     45  CG         5.9720   -0.8020  -55.3930 C.2    32  ASP32       0.3671
     46  OD1        4.9740   -0.8650  -54.6750 O.co2  32  ASP32      -0.2456
     47  OD2        5.9330   -0.4140  -56.5820 O.co2  32  ASP32      -0.2456
     48  N          4.6270   -5.9560  -54.2700 N.3    36  LEU36      -0.1231
     49  CA         5.1340   -7.2080  -53.8130 C.3    36  LEU36       0.1693
     50  C          4.1200   -7.9670  -52.9560 C.2    36  LEU36       0.2593
     51  O          4.3800   -9.1080  -52.5560 O.2    36  LEU36      -0.2718
     52  CB         6.4000   -7.0000  -53.0060 C.3    36  LEU36       0.0284
     53  CG         7.5610   -6.4710  -53.8350 C.3    36  LEU36       0.0019
     54  CD1        8.6170   -5.9190  -52.8760 C.3    36  LEU36       0.0001
     55  CD2        8.1830   -7.5030  -54.6730 C.3    36  LEU36       0.0001
     56  N          3.0050   -7.3260  -52.6520 N.am   37  GLY37      -0.1942
     57  CA         2.0270   -7.9740  -51.7760 C.3    37  GLY37       0.2014
     58  C          2.3980   -8.0150  -50.3090 C.2    37  GLY37       0.2635
     59  O          1.9140   -8.8470  -49.5040 O.2    37  GLY37      -0.2714
     60  N          3.3360   -7.1430  -49.9170 N.am   38  LEU38      -0.2030
     61  CA         3.8600   -7.1110  -48.5530 C.3    38  LEU38       0.1282
     62  C          3.0530   -6.1550  -47.6940 C.3    38  LEU38       0.2036
     63  O          3.4970   -4.9790  -47.4060 O.3    38  LEU38      -0.2185
     64  CB         5.3460   -6.7580  -48.5240 C.3    38  LEU38       0.0244
     65  CG         6.2310   -7.6510  -49.3380 C.3    38  LEU38       0.0018
     66  CD1        7.6510   -7.1640  -49.3260 C.3    38  LEU38       0.0001
     67  CD2        6.1330   -9.1210  -48.8900 C.3    38  LEU38       0.0001
     68  N          4.7420   -4.6330  -44.6920 N.3    41  TYR41      -0.1241
     69  CA         6.1670   -4.1890  -44.7230 C.3    41  TYR41       0.1605
     70  C          6.3820   -2.8890  -43.8930 C.2    41  TYR41       0.2264
     71  O          7.3300   -2.7970  -43.1490 O.2    41  TYR41      -0.2867
     72  CB         6.6010   -3.9310  -46.1710 C.3    41  TYR41       0.0534
     73  CG         8.0880   -3.6320  -46.2590 C.ar   41  TYR41      -0.0201
     74  CD1        9.0060   -4.6510  -46.2620 C.ar   41  TYR41      -0.0009
     75  CD2        8.5400   -2.3560  -46.3920 C.ar   41  TYR41      -0.0009
     76  CE1       10.3750   -4.3990  -46.3300 C.ar   41  TYR41       0.0417
     77  CE2        9.9220   -2.0780  -46.4010 C.ar   41  TYR41       0.0417
     78  CZ        10.8000   -3.0900  -46.4100 C.ar   41  TYR41       0.1957
     79  OH        12.1700   -2.8520  -46.4110 O.3    41  TYR41      -0.2866
     80  N         14.6850    2.4520  -46.1790 N.3    49  MET49      -0.1245
     81  CA        15.8700    3.0620  -46.7970 C.3    49  MET49       0.1570
     82  C         16.3310    2.3010  -48.0370 C.2    49  MET49       0.2261
     83  O         16.1060    1.0500  -48.1360 O.2    49  MET49      -0.2867
     84  CB        16.9700    3.0850  -45.7820 C.3    49  MET49       0.0387
     85  CG        18.1880    3.9070  -46.1120 C.3    49  MET49       0.0595
     86  SD        17.8310    5.6150  -46.6460 S.3    49  MET49      -0.1393
     87  CE        16.9670    6.2440  -45.1930 C.3    49  MET49       0.0692
     88  N         19.4260    0.2340  -44.4890 N.3    76  MET76      -0.1245
     89  CA        18.9130   -0.4270  -45.6990 C.3    76  MET76       0.1570
     90  C         19.1020   -1.9260  -45.5760 C.2    76  MET76       0.2261
     91  O         18.1880   -2.7420  -45.8150 O.2    76  MET76      -0.2867
     92  CB        19.5700    0.1950  -46.9260 C.3    76  MET76       0.0387
     93  CG        19.2300   -0.4070  -48.1960 C.3    76  MET76       0.0595
     94  SD        20.1860    0.2890  -49.5530 S.3    76  MET76      -0.1393
     95  CE        21.6620   -0.5680  -49.3600 C.3    76  MET76       0.0692
     96  N         16.3430   -5.2440  -44.6050 N.3    80  CYS80      -0.1235
     97  CA        16.2280   -6.4620  -45.3740 C.3    80  CYS80       0.1677
     98  C         16.4050   -7.6660  -44.4870 C.2    80  CYS80       0.2270
     99  O         15.6300   -8.6400  -44.5580 O.2    80  CYS80      -0.2867
    100  CB        17.2230   -6.3620  -46.4610 C.3    80  CYS80       0.0956
    101  SG        17.1600   -7.6630  -47.6920 S.3    80  CYS80      -0.0801
    102  N         13.1860   -8.0020  -42.0790 N.3    83  TYR83      -0.1227
    103  CA        11.8920   -8.3290  -42.6470 C.3    83  TYR83       0.1736
    104  C         11.8820   -9.8140  -43.1320 C.2    83  TYR83       0.2595
    105  O         10.8400  -10.4640  -43.0700 O.2    83  TYR83      -0.2718
    106  CB        11.5390   -7.4180  -43.8160 C.3    83  TYR83       0.0548
    107  CG        10.1370   -7.5850  -44.2730 C.ar   83  TYR83      -0.0200
    108  CD1        9.0800   -7.1480  -43.5280 C.ar   83  TYR83      -0.0009
    109  CD2        9.8650   -8.4160  -45.3340 C.ar   83  TYR83      -0.0009
    110  CE1        7.7780   -7.4610  -43.8970 C.ar   83  TYR83       0.0417
    111  CE2        8.5630   -8.6960  -45.7170 C.ar   83  TYR83       0.0417
    112  CZ         7.5380   -8.2360  -44.9780 C.ar   83  TYR83       0.1957
    113  OH         6.2350   -8.5870  -45.3760 O.3    83  TYR83      -0.2866
    114  N         12.9840  -10.3120  -43.6920 N.am   84  ASN84      -0.1961
    115  CA        12.9420  -11.5190  -44.5220 C.3    84  ASN84       0.1804
    116  C         13.4670  -12.7090  -43.8140 C.2    84  ASN84       0.2463
    117  O         14.3470  -12.5630  -42.9860 O.2    84  ASN84      -0.2730
    118  CB        13.7570  -11.2580  -45.7870 C.3    84  ASN84       0.1195
    119  CG        13.1470  -10.2000  -46.6560 C.2    84  ASN84       0.2630
    120  OD1       12.0820  -10.3580  -47.2660 O.2    84  ASN84      -0.2716
    121  ND2       13.7940   -9.0180  -46.7020 N.am   84  ASN84      -0.0877
    122  N         13.0330  -13.8900  -44.2650 N.am   85  PRO85      -0.2727
    123  CA        13.6650  -15.1150  -43.6860 C.3    85  PRO85       0.1402
    124  C         15.1330  -15.2520  -44.1640 C.2    85  PRO85       0.2269
    125  O         15.4970  -14.7350  -45.1960 O.2    85  PRO85      -0.2865
    126  CB        12.8290  -16.2420  -44.2570 C.3    85  PRO85       0.0296
    127  CG        11.6590  -15.6530  -44.8860 C.3    85  PRO85       0.0237
    128  CD        11.9830  -14.1430  -45.2240 C.3    85  PRO85       0.0939
    129  N         16.1050  -16.2520  -47.9170 N.3    88  HIS88      -0.1241
    130  CA        15.5620  -15.5620  -49.0640 C.3    88  HIS88       0.1621
    131  C         16.6520  -15.0080  -49.9680 C.2    88  HIS88       0.2264
    132  O         17.6870  -14.5470  -49.5120 O.2    88  HIS88      -0.2867
    133  CB        14.7340  -14.4050  -48.5790 C.3    88  HIS88       0.0745
    134  CG        13.7720  -13.9130  -49.5850 C.ar   88  HIS88       0.0817
    135  ND1       14.1080  -13.1090  -50.6610 N.ar   88  HIS88      -0.2268
    136  CD2       12.4520  -14.1840  -49.7310 C.ar   88  HIS88       0.1154
    137  CE1       13.0460  -12.9300  -51.4300 C.ar   88  HIS88       0.1986
    138  NE2       12.0290  -13.5620  -50.8680 N.ar   88  HIS88      -0.2212
    139  N         16.8520  -12.2440  -51.4900 N.3    90  VAL90      -0.1245
    140  CA        17.2220  -10.8220  -51.2840 C.3    90  VAL90       0.1561
    141  C         18.1850  -10.6460  -50.1250 C.2    90  VAL90       0.2260
    142  O         19.0120   -9.7340  -50.1230 O.2    90  VAL90      -0.2867
    143  CB        15.9820   -9.8870  -51.1720 C.3    90  VAL90       0.0252
    144  CG1       15.3070  -10.0290  -49.8100 C.3    90  VAL90       0.0019
    145  CG2       16.3350   -8.4890  -51.4400 C.3    90  VAL90       0.0019
@<TRIPOS>BOND
     1     7     9   ar
     2     7     6   ar
     3     5     6    1
     4     5     2    1
     5     9    10   ar
     6     6     8   ar
     7    10     8   ar
     8    10    12   ar
     9     8    11   ar
    10    12    14   ar
    11    11    13   ar
    12    14    13   ar
    13     2     1    1
    14     2     3    1
    15     4     3    2
    16     3    15   am
    17    47    45   ar
    18    15    21    1
    19    15    16    1
    20    21    20    1
    21    45    44    1
    22    45    46   ar
    23    16    19    1
    24    16    17    1
    25    20    19    1
    26    44    41    1
    27    55    53    1
    28    17    22   am
    29    17    18    2
    30    22    23    1
    31    48    49    1
    32    24    25    2
    33    24    23    1
    34    53    52    1
    35    53    54    1
    36    49    52    1
    37    49    50    1
    38    23    26    1
    39    41    40    1
    40    41    42    1
    41    43    42    2
    42    50    56   am
    43    50    51    2
    44    40    35   am
    45    56    57    1
    46    26    27    1
    47    29    27   ar
    48    29    31   ar
    49    27    28   ar
    50    31    32   ar
    51    35    34    1
    52    35    36    2
    53    57    58    1
    54    34    33    1
    55    34    37    1
    56   139   140    1
    57   145   143    1
    58   137   138   ar
    59   137   135   ar
    60   140   143    1
    61   140   141    1
    62   143   144    1
    63   138   136   ar
    64    32    30   ar
    65    28    30   ar
    66   135   134   ar
    67    58    60   am
    68    58    59    2
    69    37    38    1
    70    37    39    1
    71   141   142    2
    72   131   132    2
    73   131   130    1
    74    60    61    1
    75   136   134   ar
    76   134   133    1
    77    94    95    1
    78    94    93    1
    79    65    66    1
    80    65    67    1
    81    65    64    1
    82   130   133    1
    83   130   129    1
    84    61    64    1
    85    61    62    1
    86    93    92    1
    87    83    82    2
    88    82    81    1
    89    62    63    1
    90   101   100    1
    91   120   119    2
    92    92    89    1
    93    81    80    1
    94    81    84    1
    95   121   119   am
    96   119   118    1
    97    86    85    1
    98    86    87    1
    99   100    97    1
   100    79    78    1
   101    78    77   ar
   102    78    76   ar
   103    77    75   ar
   104    75    73   ar
   105    76    74   ar
   106    74    73   ar
   107    73    72    1
   108    72    69    1
   109    85    84    1
   110    91    90    2
   111   118   115    1
   112   111   109   ar
   113   111   112   ar
   114    89    90    1
   115    89    88    1
   116   113   112    1
   117    97    96    1
   118    97    98    1
   119   109   107   ar
   120   128   127    1
   121   128   122    1
   122   125   124    2
   123   112   110   ar
   124   127   126    1
   125    69    68    1
   126    69    70    1
   127    99    98    2
   128   115   116    1
   129   115   114    1
   130   107   106    1
   131   107   108   ar
   132   122   116   am
   133   122   123    1
   134   126   123    1
   135   124   123    1
   136   110   108   ar
   137    70    71    2
   138   106   103    1
   139   116   117    2
   140   114   104   am
   141   104   105    2
   142   104   103    1
   143   103   102    1
