@<TRIPOS>MOLECULE
tmp/5dw8B00.pdb
 132 124 0 0 0
SMALL
GASTEIGER

@<TRIPOS>ATOM
      1  N          3.5430  -37.7800    3.9420 N.3    54  GLU54      -0.1245
      2  CA         2.8010  -37.1230    2.8730 C.3    54  GLU54       0.1567
      3  C          2.8280  -37.8750    1.5490 C.2    54  GLU54       0.2260
      4  O          3.7210  -38.6980    1.3030 O.2    54  GLU54      -0.2867
      5  CB         3.3780  -35.7210    2.6480 C.3    54  GLU54       0.0388
      6  CG         3.3120  -34.8360    3.8780 C.3    54  GLU54       0.1160
      7  CD         3.9870  -33.5100    3.6680 C.2    54  GLU54       0.3649
      8  OE1        5.2100  -33.5030    3.3850 O.co2  54  GLU54      -0.2457
      9  OE2        3.2990  -32.4780    3.7980 O.co2  54  GLU54      -0.2457
     10  N          6.1860  -35.3100    9.0280 N.3    72  ASP72      -0.1239
     11  CA         5.9680  -34.2150    8.0910 C.3    72  ASP72       0.1674
     12  C          7.3100  -33.4800    7.9270 C.2    72  ASP72       0.2266
     13  O          7.7750  -32.8570    8.8670 O.2    72  ASP72      -0.2867
     14  CB         4.8840  -33.2690    8.6120 C.3    72  ASP72       0.1410
     15  CG         4.5160  -32.1720    7.6300 C.2    72  ASP72       0.3668
     16  OD1        5.2010  -31.9560    6.5910 O.co2  72  ASP72      -0.2456
     17  OD2        3.5190  -31.4810    7.9380 O.co2  72  ASP72      -0.2456
     18  N          8.3740  -30.8430    6.1180 N.3    74  ILE74      -0.1231
     19  CA         8.2490  -29.3880    6.3270 C.3    74  ILE74       0.1692
     20  C          6.8050  -29.1320    6.6520 C.2    74  ILE74       0.2592
     21  O          5.9490  -29.2660    5.7620 O.2    74  ILE74      -0.2718
     22  CB         8.5950  -28.5680    5.0690 C.3    74  ILE74       0.0266
     23  CG1       10.0840  -28.7030    4.7310 C.3    74  ILE74       0.0019
     24  CG2        8.2470  -27.0880    5.2520 C.3    74  ILE74       0.0020
     25  CD1       10.4050  -28.2640    3.3110 C.3    74  ILE74       0.0001
     26  N          6.5240  -28.7900    7.9060 N.am   75  ASP75      -0.1960
     27  CA         5.2180  -28.2820    8.2740 C.3    75  ASP75       0.1840
     28  C          5.1960  -26.7590    8.3230 C.2    75  ASP75       0.2623
     29  O          5.9150  -26.1190    9.0960 O.2    75  ASP75      -0.2715
     30  CB         4.7980  -28.8090    9.6160 C.3    75  ASP75       0.1450
     31  CG         3.3750  -28.3920    9.9740 C.2    75  ASP75       0.3671
     32  OD1        2.4440  -28.8490    9.2960 O.co2  75  ASP75      -0.2456
     33  OD2        3.1870  -27.6320   10.9510 O.co2  75  ASP75      -0.2456
     34  N          4.3030  -26.1980    7.5270 N.am   76  GLY76      -0.1940
     35  CA         4.2840  -24.7850    7.2370 C.3    76  GLY76       0.2014
     36  C          5.0560  -24.5110    5.9600 C.2    76  GLY76       0.2640
     37  O          5.9200  -23.6210    5.9410 O.2    76  GLY76      -0.2714
     38  N          4.7550  -25.2610    4.9020 N.am   77  THR77      -0.1936
     39  CA         5.4070  -25.0470    3.6210 C.3    77  THR77       0.2028
     40  C          5.2040  -23.6250    3.0970 C.2    77  THR77       0.2642
     41  O          6.1420  -23.0360    2.5550 O.2    77  THR77      -0.2714
     42  CB         5.0230  -26.0990    2.5230 C.3    77  THR77       0.1808
     43  OG1        3.6100  -26.3170    2.4940 O.3    77  THR77      -0.2208
     44  CG2        5.7070  -27.4210    2.7960 C.3    77  THR77       0.0379
     45  N          4.0040  -23.0700    3.2600 N.am   78  LEU78      -0.1977
     46  CA         3.7540  -21.6940    2.8470 C.3    78  LEU78       0.1596
     47  C          4.6340  -20.7010    3.6000 C.2    78  LEU78       0.2287
     48  O          5.1500  -19.7910    3.0200 O.2    78  LEU78      -0.2864
     49  CB         2.3000  -21.3040    3.0170 C.3    78  LEU78       0.0297
     50  CG         1.3230  -21.8740    2.0080 C.3    78  LEU78       0.0022
     51  CD1       -0.1200  -21.6650    2.4870 C.3    78  LEU78       0.0001
     52  CD2        1.5340  -21.2080    0.6680 C.3    78  LEU78       0.0001
     53  N         -7.4560  -20.2340   12.4380 N.3   144  ASN144     -0.1240
     54  CA        -7.2110  -19.5390   11.2090 C.3   144  ASN144      0.1653
     55  C         -8.4690  -18.8130   10.6580 C.2   144  ASN144      0.2266
     56  O         -9.5790  -19.3270   10.7410 O.2   144  ASN144     -0.2867
     57  CB        -6.6390  -20.5020   10.1800 C.3   144  ASN144      0.1155
     58  CG        -5.9580  -19.7650    9.0490 C.2   144  ASN144      0.2627
     59  OD1       -4.7420  -19.6050    9.0490 O.2   144  ASN144     -0.2716
     60  ND2       -6.7480  -19.2760    8.1020 N.am  144  ASN144     -0.0877
     61  N          0.0000  -20.5490   10.7780 N.3   171  GLY171     -0.1210
     62  CA         0.3630  -21.2490    9.5290 C.3   171  GLY171      0.1956
     63  C          1.1730  -22.5320    9.6900 C.2   171  GLY171      0.2613
     64  O          1.5370  -23.1590    8.7020 O.2   171  GLY171     -0.2717
     65  N          1.4520  -22.9220   10.9350 N.am  172  SER172     -0.1938
     66  CA         1.9870  -24.2420   11.2260 C.3   172  SER172      0.2055
     67  C          1.1900  -24.8990   12.3070 C.2   172  SER172      0.2642
     68  O          1.1080  -24.3770   13.4070 O.2   172  SER172     -0.2714
     69  CB         3.4370  -24.1730   11.7180 C.3   172  SER172      0.2130
     70  OG         3.8510  -25.4640   12.1040 O.3   172  SER172     -0.2179
     71  N          0.6670  -26.0810   12.0200 N.am  173  ALA173     -0.1977
     72  CA         0.0040  -26.8800   13.0540 C.3   173  ALA173      0.1597
     73  C          0.9780  -27.3870   14.1610 C.2   173  ALA173      0.2287
     74  O          0.6800  -27.3190   15.3610 O.2   173  ALA173     -0.2864
     75  CB        -0.7340  -28.0560   12.4200 C.3   173  ALA173      0.0319
     76  N          1.9410  -24.5840   16.3760 N.3   176  GLU176     -0.1245
     77  CA         0.7550  -24.1650   17.1390 C.3   176  GLU176      0.1567
     78  C          0.2910  -25.1410   18.2020 C.2   176  GLU176      0.2260
     79  O         -0.2020  -24.7190   19.2590 O.2   176  GLU176     -0.2867
     80  CB        -0.3840  -23.8490   16.2100 C.3   176  GLU176      0.0388
     81  CG        -0.1300  -22.5180   15.5780 C.3   176  GLU176      0.1160
     82  CD        -1.1140  -22.2100   14.5200 C.2   176  GLU176      0.3649
     83  OE1       -1.0230  -22.7800   13.4410 O.co2 176  GLU176     -0.2457
     84  OE2       -1.9670  -21.3870   14.7920 O.co2 176  GLU176     -0.2457
     85  N         -5.8230  -24.4350   20.5590 N.3   188  TYR188     -0.1241
     86  CA        -5.7230  -24.3790   19.1230 C.3   188  TYR188      0.1605
     87  C         -6.7130  -25.3790   18.4740 C.2   188  TYR188      0.2264
     88  O         -6.8480  -26.5370   18.9110 O.2   188  TYR188     -0.2867
     89  CB        -4.2830  -24.6640   18.7080 C.3   188  TYR188      0.0534
     90  CG        -4.0790  -25.0800   17.2750 C.ar  188  TYR188     -0.0201
     91  CD1       -4.2340  -24.1660   16.2180 C.ar  188  TYR188     -0.0009
     92  CD2       -3.7100  -26.3670   16.9660 C.ar  188  TYR188     -0.0009
     93  CE1       -4.0160  -24.5410   14.8970 C.ar  188  TYR188      0.0417
     94  CE2       -3.4920  -26.7620   15.6520 C.ar  188  TYR188      0.0417
     95  CZ        -3.6340  -25.8420   14.6300 C.ar  188  TYR188      0.1957
     96  OH        -3.4240  -26.2640   13.3430 O.3   188  TYR188     -0.2866
     97  N         -9.6160  -29.7990   10.0630 N.3   192  ARG192     -0.1231
     98  CA        -8.8820  -30.8470    9.3100 C.3   192  ARG192      0.1694
     99  C         -7.3540  -30.8200    9.5400 C.2   192  ARG192      0.2592
    100  O         -6.7140  -29.7520    9.5970 O.2   192  ARG192     -0.2718
    101  CB        -9.1770  -30.8000    7.8030 C.3   192  ARG192      0.0321
    102  CG        -9.1670  -29.4120    7.1610 C.3   192  ARG192      0.0489
    103  CD        -7.8880  -29.0440    6.4260 C.3   192  ARG192      0.2205
    104  NE        -6.9290  -28.3790    7.3100 N.pl3 192  ARG192     -0.0865
    105  CZ        -6.1970  -27.3050    7.0070 C.cat 192  ARG192      0.5346
    106  NH1       -6.3130  -26.6830    5.8300 N.pl3 192  ARG192      0.1354
    107  NH2       -5.3710  -26.8120    7.9290 N.pl3 192  ARG192      0.1354
    108  N         -6.7830  -32.0060    9.6840 N.am  193  LEU193     -0.1966
    109  CA        -5.3440  -32.1390    9.8910 C.3   193  LEU193      0.1728
    110  C         -4.8970  -33.6100    9.6530 C.2   193  LEU193      0.2616
    111  O         -5.6260  -34.5210    9.9950 O.2   193  LEU193     -0.2715
    112  CB        -5.0440  -31.6630   11.3140 C.3   193  LEU193      0.0311
    113  CG        -3.7850  -30.8460   11.5920 C.3   193  LEU193      0.0022
    114  CD1       -3.6510  -29.6130   10.6970 C.3   193  LEU193      0.0001
    115  CD2       -3.7270  -30.4490   13.0570 C.3   193  LEU193      0.0001
    116  N         -3.7130  -33.8320    9.0810 N.am  194  GLN194     -0.1977
    117  CA        -3.2030  -35.2040    8.8380 C.3   194  GLN194      0.1601
    118  C         -2.4110  -35.7180   10.0550 C.2   194  GLN194      0.2287
    119  O         -1.9580  -34.9070   10.8560 O.2   194  GLN194     -0.2864
    120  CB        -2.3100  -35.2470    7.6050 C.3   194  GLN194      0.0394
    121  CG        -3.0170  -34.9400    6.2810 C.3   194  GLN194      0.0908
    122  CD        -4.0770  -35.9530    5.9430 C.2   194  GLN194      0.2608
    123  OE1       -3.9870  -37.1350    6.2950 O.2   194  GLN194     -0.2717
    124  NE2       -5.1030  -35.4920    5.2860 N.am  194  GLN194     -0.0878
    125  N          0.7320  -34.0880   10.8840 N.3   197  ASP197     -0.1239
    126  CA         0.6630  -32.6930   11.3490 C.3   197  ASP197      0.1674
    127  C          0.7170  -32.6200   12.8630 C.2   197  ASP197      0.2266
    128  O          1.2820  -31.6890   13.4270 O.2   197  ASP197     -0.2867
    129  CB        -0.6290  -32.0260   10.8650 C.3   197  ASP197      0.1410
    130  CG        -0.6560  -31.8110    9.3650 C.2   197  ASP197      0.3668
    131  OD1       -1.6880  -32.1440    8.7540 O.co2 197  ASP197     -0.2456
    132  OD2        0.3350  -31.2820    8.7940 O.co2 197  ASP197     -0.2456
@<TRIPOS>BOND
     1    52    50    1
     2     4     3    2
     3     3     2    1
     4    50    51    1
     5    50    49    1
     6    43    42    1
     7    42    44    1
     8    42    39    1
     9    41    40    2
    10     5     2    1
    11     5     6    1
    12    46    49    1
    13    46    45    1
    14    46    47    1
    15     2     1    1
    16    48    47    2
    17    40    45   am
    18    40    39    1
    19    25    23    1
    20     8     7   ar
    21    39    38    1
    22     7     9   ar
    23     7     6    1
    24    23    22    1
    25    38    36   am
    26    22    24    1
    27    22    19    1
    28   124   122   am
    29    21    20    2
    30   106   105    1
    31    37    36    2
    32   122   121    1
    33   122   123    2
    34    36    35    1
    35    18    19    1
    36   121   120    1
    37    19    20    1
    38   103   102    1
    39   103   104    1
    40    16    15   ar
    41    20    26   am
    42   105   104    2
    43   105   107    1
    44   102   101    1
    45    35    34    1
    46    34    28   am
    47   120   117    1
    48    15    17   ar
    49    15    14    1
    50   101    98    1
    51    26    27    1
    52    12    11    1
    53    12    13    2
    54    11    14    1
    55    11    10    1
    56    60    58   am
    57    27    28    1
    58    27    30    1
    59    28    29    2
    60    64    63    2
    61   131   130   ar
    62   132   130   ar
    63   117   116    1
    64   117   118    1
    65    58    59    2
    66    58    57    1
    67   116   110   am
    68    32    31   ar
    69    98    99    1
    70    98    97    1
    71   130   129    1
    72    62    63    1
    73    62    61    1
    74    99   100    2
    75    99   108   am
    76    30    31    1
    77   110   109    1
    78   110   111    2
    79   108   109    1
    80    63    65   am
    81   109   112    1
    82    31    33   ar
    83   118   119    2
    84    57    54    1
    85    55    56    2
    86    55    54    1
    87   114   113    1
    88   129   126    1
    89   125   126    1
    90    65    66    1
    91    54    53    1
    92    66    69    1
    93    66    67    1
    94   112   113    1
    95   126   127    1
    96   113   115    1
    97    69    70    1
    98    71    67   am
    99    71    72    1
   100    67    68    2
   101    75    72    1
   102   127   128    2
   103    72    73    1
   104    96    95    1
   105    83    82   ar
   106    73    74    2
   107    82    84   ar
   108    82    81    1
   109    95    93   ar
   110    95    94   ar
   111    93    91   ar
   112    81    80    1
   113    94    92   ar
   114    80    77    1
   115    91    90   ar
   116    76    77    1
   117    92    90   ar
   118    77    78    1
   119    90    89    1
   120    78    79    2
   121    87    88    2
   122    87    86    1
   123    89    86    1
   124    86    85    1
