@<TRIPOS>MOLECULE
tmp/5dwdB00.pdb
 124 116 0 0 0
SMALL
GASTEIGER

@<TRIPOS>ATOM
      1  N         -8.0370    2.0770  -41.6990 N.3    33  TYR33      -0.1227
      2  CA        -9.1600    2.6440  -42.3860 C.3    33  TYR33       0.1736
      3  C         -9.3410    2.0200  -43.7420 C.2    33  TYR33       0.2596
      4  O         -8.3990    1.9100  -44.5200 O.2    33  TYR33      -0.2718
      5  CB        -8.9140    4.1510  -42.5730 C.3    33  TYR33       0.0548
      6  CG        -9.9850    4.9190  -43.3010 C.ar   33  TYR33      -0.0200
      7  CD1      -11.1100    5.4770  -42.5580 C.ar   33  TYR33      -0.0009
      8  CD2       -9.9350    5.1450  -44.6320 C.ar   33  TYR33      -0.0009
      9  CE1      -12.1030    6.1980  -43.2330 C.ar   33  TYR33       0.0417
     10  CE2      -10.9470    5.9210  -45.3060 C.ar   33  TYR33       0.0417
     11  CZ       -12.0150    6.4000  -44.6000 C.ar   33  TYR33       0.1957
     12  OH       -13.0100    7.1510  -45.2640 O.3    33  TYR33      -0.2866
     13  N        -10.5240    1.4550  -43.9820 N.am   34  GLY34      -0.1957
     14  CA       -10.8810    0.8100  -45.2040 C.3    34  GLY34       0.1869
     15  C        -10.5060   -0.6560  -45.3260 C.2    34  GLY34       0.2309
     16  O        -10.7910   -1.2480  -46.3700 O.2    34  GLY34      -0.2863
     17  N        -15.0390    5.6860  -47.5570 N.3    67  GLY67      -0.1210
     18  CA       -14.2580    5.6800  -48.7700 C.3    67  GLY67       0.1956
     19  C        -14.1740    4.3350  -49.4530 C.2    67  GLY67       0.2611
     20  O        -13.7660    4.2660  -50.6070 O.2    67  GLY67      -0.2717
     21  N        -14.5960    3.2650  -48.7780 N.am   68  ASN68      -0.1974
     22  CA       -14.4750    1.9240  -49.3200 C.3    68  ASN68       0.1688
     23  C        -15.6000    1.1100  -48.7420 C.2    68  ASN68       0.2292
     24  O        -15.4670    0.5580  -47.6080 O.2    68  ASN68      -0.2864
     25  CB       -13.1100    1.2170  -49.0280 C.3    68  ASN68       0.1181
     26  CG       -13.1260   -0.2380  -49.4270 C.2    68  ASN68       0.2629
     27  OD1      -13.9200   -0.6290  -50.2850 O.2    68  ASN68      -0.2716
     28  ND2      -12.2530   -1.0590  -48.8350 N.am   68  ASN68      -0.0877
     29  N        -13.5460    5.3190  -37.3650 N.3    75  PHE75      -0.1241
     30  CA       -14.1520    6.6510  -37.3760 C.3    75  PHE75       0.1605
     31  C        -13.9500    7.2550  -38.7430 C.2    75  PHE75       0.2264
     32  O        -13.0500    6.8220  -39.4810 O.2    75  PHE75      -0.2867
     33  CB       -13.6380    7.5740  -36.2630 C.3    75  PHE75       0.0534
     34  CG       -12.1170    7.6950  -36.1950 C.ar   75  PHE75      -0.0203
     35  CD1      -11.4250    8.6200  -36.9900 C.ar   75  PHE75      -0.0042
     36  CD2      -11.3640    6.9400  -35.2950 C.ar   75  PHE75      -0.0042
     37  CE1      -10.0490    8.7630  -36.9160 C.ar   75  PHE75      -0.0003
     38  CE2       -9.9970    7.0860  -35.2130 C.ar   75  PHE75      -0.0003
     39  CZ        -9.3620    8.0350  -36.0080 C.ar   75  PHE75      -0.0000
     40  N        -13.1770    9.8440  -41.9030 N.3    77  LEU77      -0.1245
     41  CA       -12.1480   10.7510  -42.2980 C.3    77  LEU77       0.1561
     42  C        -12.6060   11.5540  -43.5020 C.2    77  LEU77       0.2260
     43  O        -13.3330   11.0330  -44.3640 O.2    77  LEU77      -0.2867
     44  CB       -10.8900   10.0170  -42.7000 C.3    77  LEU77       0.0270
     45  CG       -10.1160    9.3140  -41.5480 C.3    77  LEU77       0.0019
     46  CD1       -8.9500    8.5060  -42.1560 C.3    77  LEU77       0.0001
     47  CD2       -9.6800   10.2660  -40.4690 C.3    77  LEU77       0.0001
     48  N        -10.6430   12.8150  -46.4620 N.3    79  LEU79      -0.1245
     49  CA        -9.2860   12.6090  -46.9270 C.3    79  LEU79       0.1561
     50  C         -8.6270   13.8270  -47.6410 C.2    79  LEU79       0.2260
     51  O         -7.3800   13.8960  -47.7290 O.2    79  LEU79      -0.2867
     52  CB        -9.2950   11.3600  -47.8340 C.3    79  LEU79       0.0270
     53  CG        -9.0330    9.9990  -47.1760 C.3    79  LEU79       0.0019
     54  CD1       -8.9500    9.9090  -45.6630 C.3    79  LEU79       0.0001
     55  CD2       -9.8220    8.8570  -47.8240 C.3    79  LEU79       0.0001
     56  N         -6.4530   16.0730  -41.2720 N.3    83  ARG83      -0.1245
     57  CA        -7.1830   15.0410  -40.5270 C.3    83  ARG83       0.1563
     58  C         -7.2290   15.2340  -39.0160 C.2    83  ARG83       0.2260
     59  O         -7.8490   14.4680  -38.3320 O.2    83  ARG83      -0.2867
     60  CB        -6.5770   13.6730  -40.8670 C.3    83  ARG83       0.0307
     61  CG        -6.8910   13.2870  -42.2920 C.3    83  ARG83       0.0489
     62  CD        -6.1270   12.0760  -42.7440 C.3    83  ARG83       0.2205
     63  NE        -4.7590   12.4180  -43.0870 N.pl3  83  ARG83      -0.0865
     64  CZ        -3.7810   11.5470  -43.3940 C.cat  83  ARG83       0.5346
     65  NH1       -3.9820   10.2520  -43.3680 N.pl3  83  ARG83       0.1354
     66  NH2       -2.5790   11.9900  -43.7270 N.pl3  83  ARG83       0.1354
     67  N         -9.7280   13.0360  -36.5510 N.3    87  ARG87      -0.1245
     68  CA        -9.1350   12.0720  -35.5760 C.3    87  ARG87       0.1563
     69  C         -9.5340   12.3520  -34.1200 C.2    87  ARG87       0.2260
     70  O         -9.8450   11.4370  -33.3340 O.2    87  ARG87      -0.2867
     71  CB        -7.6320   12.0860  -35.6840 C.3    87  ARG87       0.0307
     72  CG        -7.1040   11.4630  -36.9610 C.3    87  ARG87       0.0489
     73  CD        -5.6660   11.8390  -37.1400 C.3    87  ARG87       0.2205
     74  NE        -5.0800   11.2520  -38.3300 N.pl3  87  ARG87      -0.0865
     75  CZ        -3.8860   11.6240  -38.8530 C.cat  87  ARG87       0.5346
     76  NH1       -3.1880   12.5940  -38.3340 N.pl3  87  ARG87       0.1354
     77  NH2       -3.3940   11.0020  -39.9290 N.pl3  87  ARG87       0.1354
     78  N         -2.1410    1.5910  -38.5300 N.3   122  SER122     -0.1202
     79  CA        -2.6880    2.8590  -39.0630 C.3   122  SER122      0.2020
     80  C         -3.7920    3.4010  -38.1360 C.2   122  SER122      0.2618
     81  O         -3.5300    3.6110  -36.9470 O.2   122  SER122     -0.2717
     82  CB        -3.0950    2.6210  -40.4940 C.3   122  SER122      0.2103
     83  OG        -3.2580    3.9210  -41.1490 O.3   122  SER122     -0.2182
     84  N         -5.0140    3.5630  -38.6550 N.am  123  GLN123     -0.1979
     85  CA        -6.1060    4.0230  -37.7760 C.3   123  GLN123      0.1601
     86  C         -6.2960    3.0610  -36.5700 C.2   123  GLN123      0.2287
     87  O         -6.5730    3.4750  -35.4740 O.2   123  GLN123     -0.2864
     88  CB        -7.4450    4.1060  -38.5730 C.3   123  GLN123      0.0394
     89  CG        -8.5160    4.8220  -37.7340 C.3   123  GLN123      0.0908
     90  CD        -9.8110    5.0500  -38.5500 C.2   123  GLN123      0.2608
     91  OE1      -10.5080    4.1010  -38.8690 O.2   123  GLN123     -0.2717
     92  NE2       -9.9860    6.2480  -39.0450 N.am  123  GLN123     -0.0878
     93  N         -3.7780    3.9420  -33.9770 N.3   126  MET126     -0.1245
     94  CA        -4.2030    5.1620  -33.2850 C.3   126  MET126      0.1570
     95  C         -5.1900    4.7430  -32.1870 C.2   126  MET126      0.2261
     96  O         -5.0720    5.2320  -31.0500 O.2   126  MET126     -0.2867
     97  CB        -4.8140    6.1210  -34.2640 C.3   126  MET126      0.0387
     98  CG        -3.8250    6.7250  -35.2440 C.3   126  MET126      0.0595
     99  SD        -4.6970    7.7210  -36.4810 S.3   126  MET126     -0.1393
    100  CE        -3.5560    7.5930  -37.8380 C.3   126  MET126      0.0692
    101  N          1.3480    8.4630  -46.0420 N.3   175  VAL175     -0.1231
    102  CA        -0.0280    8.4080  -45.6700 C.3   175  VAL175      0.1692
    103  C         -0.1970    8.8680  -44.2300 C.2   175  VAL175      0.2591
    104  O         -0.9860    9.7640  -43.9530 O.2   175  VAL175     -0.2718
    105  CB        -0.5700    6.9590  -45.8330 C.3   175  VAL175      0.0266
    106  CG1       -2.0160    6.8700  -45.4240 C.3   175  VAL175      0.0020
    107  CG2       -0.4020    6.5470  -47.3210 C.3   175  VAL175      0.0020
    108  N          0.5410    8.2450  -43.3190 N.am  176  VAL176     -0.1980
    109  CA         0.7270    8.7200  -41.9600 C.3   176  VAL176      0.1595
    110  C          2.2180    8.8930  -41.8470 C.2   176  VAL176      0.2287
    111  O          2.9870    7.9580  -41.6820 O.2   176  VAL176     -0.2864
    112  CB         0.2940    7.6970  -40.9140 C.3   176  VAL176      0.0276
    113  CG1        0.6090    8.2300  -39.5260 C.3   176  VAL176      0.0022
    114  CG2       -1.1820    7.3890  -41.0740 C.3   176  VAL176      0.0022
    115  N          3.5880    2.8140  -46.1600 N.3   205  HIS205     -0.1241
    116  CA         2.4080    2.6050  -45.2860 C.3   205  HIS205      0.1621
    117  C          2.0310    1.1360  -45.3730 C.2   205  HIS205      0.2264
    118  O          1.0730    0.7240  -46.0360 O.2   205  HIS205     -0.2867
    119  CB         1.2630    3.5560  -45.6040 C.3   205  HIS205      0.0745
    120  CG         0.2310    3.6760  -44.5210 C.ar  205  HIS205      0.0817
    121  ND1        0.5360    4.2030  -43.3050 N.ar  205  HIS205     -0.2268
    122  CD2       -1.1050    3.3210  -44.4590 C.ar  205  HIS205      0.1154
    123  CE1       -0.5410    4.1810  -42.5250 C.ar  205  HIS205      0.1986
    124  NE2       -1.5400    3.6780  -43.2130 N.ar  205  HIS205     -0.2212
@<TRIPOS>BOND
     1    20    19    2
     2    27    26    2
     3    19    21   am
     4    19    18    1
     5    26    25    1
     6    26    28   am
     7    22    25    1
     8    22    21    1
     9    22    23    1
    10    18    17    1
    11    23    24    2
    12    52    53    1
    13    52    49    1
    14    55    53    1
    15    51    50    2
    16    50    49    1
    17   107   105    1
    18    53    54    1
    19    49    48    1
    20    16    15    2
    21   115   116    1
    22   101   102    1
    23   118   117    2
    24   105   102    1
    25   105   106    1
    26   102   103    1
    27   119   116    1
    28   119   120    1
    29   117   116    1
    30    15    14    1
    31    10     8   ar
    32    10    11   ar
    33    12    11    1
    34    14    13    1
    35     8     6   ar
    36    11     9   ar
    37   120   122   ar
    38   120   121   ar
    39     4     3    2
    40   122   124   ar
    41    43    42    2
    42   103   104    2
    43   103   108   am
    44    13     3   am
    45     3     2    1
    46    66    64    1
    47    42    41    1
    48    64    65    1
    49    64    63    2
    50   108   109    1
    51   121   123   ar
    52     6     5    1
    53     6     7   ar
    54     9     7   ar
    55   124   123   ar
    56    63    62    1
    57    62    61    1
    58    44    41    1
    59    44    45    1
    60     5     2    1
    61     2     1    1
    62    41    40    1
    63    61    60    1
    64    46    45    1
    65   109   110    1
    66   109   112    1
    67   110   111    2
    68    45    47    1
    69    56    57    1
    70    83    82    1
    71   114   112    1
    72   112   113    1
    73    60    57    1
    74    57    58    1
    75    82    79    1
    76    77    75    1
    77    32    31    2
    78    79    78    1
    79    79    80    1
    80    92    90   am
    81    58    59    2
    82    91    90    2
    83    75    76    1
    84    75    74    2
    85    31    30    1
    86    84    80   am
    87    84    85    1
    88    88    85    1
    89    88    89    1
    90    90    89    1
    91    74    73    1
    92    80    81    2
    93   100    99    1
    94    85    86    1
    95    30    29    1
    96    30    33    1
    97    73    72    1
    98    35    37   ar
    99    35    34   ar
   100    72    71    1
   101    37    39   ar
   102    86    87    2
   103    67    68    1
   104    99    98    1
   105    33    34    1
   106    34    36   ar
   107    39    38   ar
   108    71    68    1
   109    68    69    1
   110    36    38   ar
   111    98    97    1
   112    97    94    1
   113    69    70    2
   114    93    94    1
   115    94    95    1
   116    95    96    2
