@<TRIPOS>MOLECULE
tmp/5dwgB00.pdb
 117 109 0 0 0
SMALL
GASTEIGER

@<TRIPOS>ATOM
      1  N         -2.3640  -27.4300  -37.8540 N.3    41  VAL41      -0.1245
      2  CA        -1.3200  -28.2640  -38.4350 C.3    41  VAL41       0.1561
      3  C          0.0590  -27.7160  -38.0740 C.2    41  VAL41       0.2260
      4  O          0.9510  -28.4620  -37.6780 O.2    41  VAL41      -0.2867
      5  CB        -1.4640  -28.3590  -39.9640 C.3    41  VAL41       0.0252
      6  CG1       -0.2960  -29.1280  -40.5730 C.3    41  VAL41       0.0019
      7  CG2       -2.7940  -29.0180  -40.3250 C.3    41  VAL41       0.0019
      8  N          0.8850  -28.1350  -34.3250 N.3    44  ILE44      -0.1231
      9  CA         1.3180  -29.4830  -33.9950 C.3    44  ILE44       0.1692
     10  C          2.7990  -29.6790  -34.2890 C.2    44  ILE44       0.2592
     11  O          3.5200  -30.2750  -33.4910 O.2    44  ILE44      -0.2718
     12  CB         0.4980  -30.5330  -34.7650 C.3    44  ILE44       0.0266
     13  CG1       -0.9470  -30.5350  -34.2580 C.3    44  ILE44       0.0019
     14  CG2        1.1160  -31.9120  -34.6130 C.3    44  ILE44       0.0020
     15  CD1       -1.8540  -31.5140  -34.9820 C.3    44  ILE44       0.0001
     16  N          3.2550  -29.1730  -35.4300 N.am   45  ASN45      -0.1974
     17  CA         4.6580  -29.2980  -35.7920 C.3    45  ASN45       0.1688
     18  C          5.4960  -28.2510  -35.0630 C.2    45  ASN45       0.2292
     19  O          6.7210  -28.3520  -34.9990 O.2    45  ASN45      -0.2864
     20  CB         4.8270  -29.1900  -37.3080 C.3    45  ASN45       0.1181
     21  CG         4.2180  -30.3720  -38.0430 C.2    45  ASN45       0.2629
     22  OD1        4.8500  -31.4210  -38.1810 O.2    45  ASN45      -0.2716
     23  ND2        2.9830  -30.2140  -38.5080 N.am   45  ASN45      -0.0877
     24  N          6.2530  -29.8700  -31.3500 N.3    48  LYS48      -0.1245
     25  CA         7.3720  -30.8040  -31.4370 C.3    48  LYS48       0.1561
     26  C          8.7090  -30.0960  -31.2280 C.2    48  LYS48       0.2260
     27  O          9.6560  -30.6850  -30.7140 O.2    48  LYS48      -0.2867
     28  CB         7.3780  -31.5190  -32.7910 C.3    48  LYS48       0.0271
     29  CG         6.1200  -32.3150  -33.1180 C.3    48  LYS48       0.0035
     30  CD         6.2630  -32.9790  -34.4890 C.3    48  LYS48       0.0206
     31  CE         5.0490  -33.8200  -34.8520 C.3    48  LYS48       0.1093
     32  NZ         5.1760  -34.4080  -36.2180 N.3    48  LYS48      -0.1314
     33  N          8.8450  -31.3390  -25.1270 N.3    53  PHE53      -0.1241
     34  CA         7.6110  -31.9020  -25.6610 C.3    53  PHE53       0.1605
     35  C          7.8210  -33.2690  -26.3000 C.2    53  PHE53       0.2264
     36  O          6.9940  -34.1690  -26.1430 O.2    53  PHE53      -0.2867
     37  CB         6.9890  -30.9490  -26.6790 C.3    53  PHE53       0.0534
     38  CG         5.5780  -31.2980  -27.0410 C.ar   53  PHE53      -0.0203
     39  CD1        4.5340  -31.0210  -26.1670 C.ar   53  PHE53      -0.0042
     40  CD2        5.2920  -31.9130  -28.2450 C.ar   53  PHE53      -0.0042
     41  CE1        3.2280  -31.3460  -26.4940 C.ar   53  PHE53      -0.0003
     42  CE2        3.9920  -32.2410  -28.5800 C.ar   53  PHE53      -0.0003
     43  CZ         2.9570  -31.9580  -27.7040 C.ar   53  PHE53      -0.0000
     44  N          3.3380  -40.2350  -26.5630 N.3    58  LEU58      -0.1245
     45  CA         2.4810  -39.8210  -27.6680 C.3    58  LEU58       0.1561
     46  C          1.0890  -39.5080  -27.1350 C.2    58  LEU58       0.2260
     47  O          0.4190  -38.5900  -27.6100 O.2    58  LEU58      -0.2867
     48  CB         2.4160  -40.9010  -28.7500 C.3    58  LEU58       0.0270
     49  CG         3.6840  -41.1120  -29.5770 C.3    58  LEU58       0.0019
     50  CD1        3.4770  -42.3030  -30.4830 C.3    58  LEU58       0.0001
     51  CD2        4.0200  -39.9050  -30.4150 C.3    58  LEU58       0.0001
     52  N          1.3570  -36.1180  -25.3340 N.3    61  GLN61      -0.1231
     53  CA         1.4030  -35.0490  -26.3310 C.3    61  GLN61       0.1698
     54  C         -0.0010  -34.7570  -26.8570 C.2    61  GLN61       0.2592
     55  O         -0.3820  -33.6040  -27.0180 O.2    61  GLN61      -0.2718
     56  CB         2.3490  -35.4130  -27.4810 C.3    61  GLN61       0.0381
     57  CG         3.8290  -35.4460  -27.0870 C.3    61  GLN61       0.0905
     58  CD         4.7290  -35.9570  -28.2040 C.2    61  GLN61       0.2608
     59  OE1        4.2820  -36.1470  -29.3350 O.2    61  GLN61      -0.2717
     60  NE2        6.0020  -36.1870  -27.8890 N.am   61  GLN61      -0.0878
     61  N         -0.7720  -35.8120  -27.1020 N.am   62  VAL62      -0.1980
     62  CA        -2.1550  -35.6750  -27.5430 C.3    62  VAL62       0.1595
     63  C         -3.0090  -34.9400  -26.5040 C.2    62  VAL62       0.2287
     64  O         -3.8100  -34.0720  -26.8500 O.2    62  VAL62      -0.2864
     65  CB        -2.7890  -37.0550  -27.8370 C.3    62  VAL62       0.0276
     66  CG1       -4.2790  -36.9150  -28.1240 C.3    62  VAL62       0.0022
     67  CG2       -2.0830  -37.7310  -28.9960 C.3    62  VAL62       0.0022
     68  N         -2.0590  -31.0960  -26.1840 N.3    65  LEU65      -0.1231
     69  CA        -2.5500  -30.3210  -27.3240 C.3    65  LEU65       0.1693
     70  C         -4.0700  -30.2070  -27.3160 C.2    65  LEU65       0.2591
     71  O         -4.6230  -29.1580  -27.6460 O.2    65  LEU65      -0.2718
     72  CB        -2.0830  -30.9400  -28.6410 C.3    65  LEU65       0.0284
     73  CG        -0.6430  -30.6330  -29.0560 C.3    65  LEU65       0.0019
     74  CD1       -0.2450  -31.4700  -30.2590 C.3    65  LEU65       0.0001
     75  CD2       -0.4660  -29.1470  -29.3520 C.3    65  LEU65       0.0001
     76  N         -4.7390  -31.2930  -26.9460 N.am   66  GLU66      -0.1979
     77  CA        -6.1920  -31.3010  -26.8720 C.3    66  GLU66       0.1602
     78  C         -6.7000  -30.2940  -25.8530 C.2    66  GLU66       0.2287
     79  O         -7.7730  -29.7210  -26.0200 O.2    66  GLU66      -0.2864
     80  CB        -6.7050  -32.6930  -26.5160 C.3    66  GLU66       0.0415
     81  CG        -6.7560  -33.6560  -27.6790 C.3    66  GLU66       0.1163
     82  CD        -7.2840  -35.0100  -27.2670 C.2    66  GLU66       0.3649
     83  OE1       -7.4710  -35.2260  -26.0530 O.co2  66  GLU66      -0.2457
     84  OE2       -7.5130  -35.8590  -28.1540 O.co2  66  GLU66      -0.2457
     85  N        -12.7120  -31.7840  -39.5490 N.3   207  ASP207     -0.1225
     86  CA       -12.6350  -33.1120  -38.9520 C.3   207  ASP207      0.1805
     87  C        -11.6310  -33.1610  -37.8040 C.2   207  ASP207      0.2597
     88  O        -11.8360  -33.8720  -36.8220 O.2   207  ASP207     -0.2718
     89  CB       -12.2720  -34.1480  -40.0130 C.3   207  ASP207      0.1424
     90  CG       -13.3070  -34.2330  -41.1180 C.2   207  ASP207      0.3668
     91  OD1      -14.4730  -33.8640  -40.8650 O.co2 207  ASP207     -0.2456
     92  OD2      -12.9570  -34.6690  -42.2350 O.co2 207  ASP207     -0.2456
     93  N        -10.5470  -32.4040  -37.9290 N.am  208  LEU208     -0.1979
     94  CA        -9.5420  -32.3500  -36.8750 C.3   208  LEU208      0.1596
     95  C        -10.0440  -31.5420  -35.6820 C.2   208  LEU208      0.2287
     96  O         -9.8030  -31.9090  -34.5320 O.2   208  LEU208     -0.2864
     97  CB        -8.2340  -31.7540  -37.3990 C.3   208  LEU208      0.0297
     98  CG        -7.1200  -31.5730  -36.3640 C.3   208  LEU208      0.0022
     99  CD1       -6.7550  -32.9050  -35.7240 C.3   208  LEU208      0.0001
    100  CD2       -5.8990  -30.9270  -36.9970 C.3   208  LEU208      0.0001
    101  N        -12.3770  -33.4870  -33.5330 N.3   211  GLU211     -0.1231
    102  CA       -11.6100  -34.4040  -32.7000 C.3   211  GLU211      0.1699
    103  C        -11.0360  -33.6690  -31.4940 C.2   211  GLU211      0.2592
    104  O        -10.8920  -34.2410  -30.4140 O.2   211  GLU211     -0.2718
    105  CB       -10.4860  -35.0560  -33.5080 C.3   211  GLU211      0.0402
    106  CG        -9.6830  -36.1050  -32.6950 C.3   211  GLU211      0.1161
    107  CD        -8.3800  -36.5580  -33.2460 C.2   211  GLU211      0.3649
    108  OE1       -7.8360  -35.8310  -34.1050 O.co2 211  GLU211     -0.2457
    109  OE2       -7.8030  -37.5500  -32.8660 O.co2 211  GLU211     -0.2457
    110  N        -10.7170  -32.3940  -31.6900 N.am  212  MET212     -0.1979
    111  CA       -10.1480  -31.5670  -30.6360 C.3   212  MET212      0.1605
    112  C        -11.2230  -31.1280  -29.6460 C.2   212  MET212      0.2287
    113  O        -10.9240  -30.7850  -28.5000 O.2   212  MET212     -0.2864
    114  CB        -9.4560  -30.3420  -31.2390 C.3   212  MET212      0.0413
    115  CG        -8.3110  -30.6580  -32.1900 C.3   212  MET212      0.0598
    116  SD        -6.7600  -31.0230  -31.3380 S.3   212  MET212     -0.1393
    117  CE        -5.6110  -31.0240  -32.7120 C.3   212  MET212      0.0692
@<TRIPOS>BOND
     1    92    90   ar
     2    90    91   ar
     3    90    89    1
     4     6     5    1
     5     7     5    1
     6    89    86    1
     7     5     2    1
     8    85    86    1
     9    86    87    1
    10    23    21   am
    11     2     3    1
    12     2     1    1
    13    22    21    2
    14     3     4    2
    15    21    20    1
    16    93    87   am
    17    93    94    1
    18    87    88    2
    19    97    94    1
    20    97    98    1
    21    20    17    1
    22   100    98    1
    23    94    95    1
    24    98    99    1
    25    32    31    1
    26    17    16    1
    27    17    18    1
    28    95    96    2
    29    16    10   am
    30    18    19    2
    31    15    13    1
    32    31    30    1
    33    12    14    1
    34    12    13    1
    35    12     9    1
    36    30    29    1
    37     8     9    1
    38    10     9    1
    39    10    11    2
    40   108   107   ar
    41   101   102    1
    42   105   102    1
    43   105   106    1
    44   107   109   ar
    45   107   106    1
    46    29    28    1
    47    28    25    1
    48   117   116    1
    49   102   103    1
    50   115   116    1
    51   115   114    1
    52   110   103   am
    53   110   111    1
    54   103   104    2
    55    25    24    1
    56    25    26    1
    57   114   111    1
    58    26    27    2
    59   111   112    1
    60    50    49    1
    61    51    49    1
    62    74    73    1
    63   112   113    2
    64    49    48    1
    65    75    73    1
    66    59    58    2
    67    73    72    1
    68    67    65    1
    69    48    45    1
    70    72    69    1
    71    42    40   ar
    72    42    43   ar
    73    40    38   ar
    74    58    60   am
    75    58    57    1
    76    84    82   ar
    77    66    65    1
    78    65    62    1
    79    43    41   ar
    80    81    82    1
    81    81    80    1
    82    45    46    1
    83    45    44    1
    84    71    70    2
    85    47    46    2
    86    62    61    1
    87    62    63    1
    88    56    57    1
    89    56    53    1
    90    69    70    1
    91    69    68    1
    92    70    76   am
    93    82    83   ar
    94    61    54   am
    95    38    37    1
    96    38    39   ar
    97    55    54    2
    98    76    77    1
    99    77    80    1
   100    77    78    1
   101    54    53    1
   102    64    63    2
   103    37    34    1
   104    41    39   ar
   105    53    52    1
   106    35    36    2
   107    35    34    1
   108    79    78    2
   109    34    33    1
