@<TRIPOS>MOLECULE
tmp/5dwiB00.pdb
 117 109 0 0 0
SMALL
GASTEIGER

@<TRIPOS>ATOM
      1  N         -2.4070  -27.2610  -37.8850 N.3    49  VAL49      -0.1245
      2  CA        -1.3640  -28.0810  -38.4850 C.3    49  VAL49       0.1561
      3  C          0.0050  -27.4890  -38.1830 C.2    49  VAL49       0.2260
      4  O          0.9550  -28.2080  -37.8840 O.2    49  VAL49      -0.2867
      5  CB        -1.5540  -28.2030  -40.0000 C.3    49  VAL49       0.0252
      6  CG1       -0.6010  -29.2440  -40.5660 C.3    49  VAL49       0.0019
      7  CG2       -2.9990  -28.5660  -40.3160 C.3    49  VAL49       0.0019
      8  N          0.7790  -27.9690  -34.3870 N.3    52  ILE52      -0.1231
      9  CA         1.2400  -29.3110  -34.0650 C.3    52  ILE52       0.1692
     10  C          2.7350  -29.4570  -34.3310 C.2    52  ILE52       0.2592
     11  O          3.4640  -30.0390  -33.5260 O.2    52  ILE52      -0.2718
     12  CB         0.4680  -30.3660  -34.8670 C.3    52  ILE52       0.0266
     13  CG1       -0.9990  -30.3810  -34.4380 C.3    52  ILE52       0.0019
     14  CG2        1.0900  -31.7410  -34.6870 C.3    52  ILE52       0.0020
     15  CD1       -1.8990  -31.1420  -35.3810 C.3    52  ILE52       0.0001
     16  N          3.1900  -28.9160  -35.4570 N.am   53  ASN53      -0.1974
     17  CA         4.6000  -28.9930  -35.8130 C.3    53  ASN53       0.1688
     18  C          5.4220  -27.9880  -35.0200 C.2    53  ASN53       0.2292
     19  O          6.6130  -28.1940  -34.7800 O.2    53  ASN53      -0.2864
     20  CB         4.7850  -28.7820  -37.3140 C.3    53  ASN53       0.1181
     21  CG         4.1750  -29.9020  -38.1310 C.2    53  ASN53       0.2629
     22  OD1        4.8140  -30.9270  -38.3710 O.2    53  ASN53      -0.2716
     23  ND2        2.9310  -29.7160  -38.5580 N.am   53  ASN53      -0.0877
     24  N          6.0900  -29.5830  -31.5670 N.3    56  LYS56      -0.1245
     25  CA         7.2160  -30.5040  -31.6460 C.3    56  LYS56       0.1561
     26  C          8.5360  -29.7850  -31.3770 C.2    56  LYS56       0.2260
     27  O          9.4750  -30.3780  -30.8560 O.2    56  LYS56      -0.2867
     28  CB         7.2650  -31.1800  -33.0180 C.3    56  LYS56       0.0271
     29  CG         6.0410  -32.0140  -33.3570 C.3    56  LYS56       0.0035
     30  CD         6.2170  -32.7030  -34.7050 C.3    56  LYS56       0.0206
     31  CE         4.9990  -33.5340  -35.0730 C.3    56  LYS56       0.1093
     32  NZ         5.1230  -34.1430  -36.4260 N.3    56  LYS56      -0.1314
     33  N          8.9500  -31.0160  -25.1170 N.3    61  PHE61      -0.1241
     34  CA         7.6680  -31.5670  -25.5570 C.3    61  PHE61       0.1605
     35  C          7.8200  -32.9530  -26.1730 C.2    61  PHE61       0.2264
     36  O          6.9840  -33.8310  -25.9590 O.2    61  PHE61      -0.2867
     37  CB         7.0010  -30.6240  -26.5630 C.3    61  PHE61       0.0534
     38  CG         5.6030  -31.0290  -26.9500 C.ar   61  PHE61      -0.0203
     39  CD1        4.5230  -30.7030  -26.1440 C.ar   61  PHE61      -0.0042
     40  CD2        5.3660  -31.7230  -28.1250 C.ar   61  PHE61      -0.0042
     41  CE1        3.2360  -31.0690  -26.4990 C.ar   61  PHE61      -0.0003
     42  CE2        4.0810  -32.0900  -28.4860 C.ar   61  PHE61      -0.0003
     43  CZ         3.0160  -31.7630  -27.6710 C.ar   61  PHE61      -0.0000
     44  N          3.3610  -40.1360  -26.6380 N.3    66  LEU66      -0.1245
     45  CA         2.4130  -39.7060  -27.6610 C.3    66  LEU66       0.1561
     46  C          1.0960  -39.2970  -27.0090 C.2    66  LEU66       0.2260
     47  O          0.5310  -38.2540  -27.3370 O.2    66  LEU66      -0.2867
     48  CB         2.1790  -40.8180  -28.6900 C.3    66  LEU66       0.0270
     49  CG         2.0030  -40.4570  -30.1720 C.3    66  LEU66       0.0019
     50  CD1        1.7850  -41.7170  -31.0050 C.3    66  LEU66       0.0001
     51  CD2        0.8770  -39.4560  -30.4050 C.3    66  LEU66       0.0001
     52  N          1.4510  -35.9520  -25.3770 N.3    69  GLN69      -0.1231
     53  CA         1.5330  -34.8860  -26.3740 C.3    69  GLN69       0.1698
     54  C          0.1520  -34.5510  -26.9180 C.2    69  GLN69       0.2592
     55  O         -0.2020  -33.3830  -27.0710 O.2    69  GLN69      -0.2718
     56  CB         2.4670  -35.2850  -27.5170 C.3    69  GLN69       0.0381
     57  CG         3.9370  -35.2980  -27.1380 C.3    69  GLN69       0.0905
     58  CD         4.8140  -35.8550  -28.2420 C.2    69  GLN69       0.2608
     59  OE1        4.3220  -36.2610  -29.2940 O.2    69  GLN69      -0.2717
     60  NE2        6.1210  -35.8820  -28.0050 N.am   69  GLN69      -0.0878
     61  N         -0.6210  -35.5910  -27.2070 N.am   70  VAL70      -0.1980
     62  CA        -1.9920  -35.4370  -27.6680 C.3    70  VAL70       0.1595
     63  C         -2.8290  -34.6710  -26.6480 C.2    70  VAL70       0.2287
     64  O         -3.4870  -33.6820  -26.9810 O.2    70  VAL70      -0.2864
     65  CB        -2.6430  -36.8110  -27.9410 C.3    70  VAL70       0.0276
     66  CG1       -4.1490  -36.6740  -28.1130 C.3    70  VAL70       0.0022
     67  CG2       -2.0140  -37.4630  -29.1620 C.3    70  VAL70       0.0022
     68  N         -2.0840  -30.8920  -26.2390 N.3    73  LEU73      -0.1231
     69  CA        -2.5880  -30.0820  -27.3430 C.3    73  LEU73       0.1693
     70  C         -4.1130  -29.9910  -27.3050 C.2    73  LEU73       0.2591
     71  O         -4.6820  -28.9200  -27.5220 O.2    73  LEU73      -0.2718
     72  CB        -2.1150  -30.6460  -28.6860 C.3    73  LEU73       0.0284
     73  CG        -0.6550  -30.3620  -29.0480 C.3    73  LEU73       0.0019
     74  CD1       -0.2160  -31.1940  -30.2420 C.3    73  LEU73       0.0001
     75  CD2       -0.4630  -28.8830  -29.3310 C.3    73  LEU73       0.0001
     76  N         -4.7670  -31.1140  -27.0230 N.am   74  GLU74      -0.1979
     77  CA        -6.2250  -31.1530  -26.9260 C.3    74  GLU74       0.1602
     78  C         -6.7480  -30.1710  -25.8870 C.2    74  GLU74       0.2287
     79  O         -7.8190  -29.5880  -26.0540 O.2    74  GLU74      -0.2864
     80  CB        -6.7090  -32.5620  -26.5810 C.3    74  GLU74       0.0415
     81  CG        -6.7120  -33.5370  -27.7410 C.3    74  GLU74       0.1163
     82  CD        -7.1930  -34.9140  -27.3250 C.2    74  GLU74       0.3649
     83  OE1       -7.2840  -35.1590  -26.1030 O.co2  74  GLU74      -0.2457
     84  OE2       -7.4870  -35.7500  -28.2090 O.co2  74  GLU74      -0.2457
     85  N        -12.8430  -32.0330  -39.5600 N.3   221  ASP221     -0.1225
     86  CA       -12.6680  -33.3110  -38.8710 C.3   221  ASP221      0.1805
     87  C        -11.5990  -33.2600  -37.7820 C.2   221  ASP221      0.2597
     88  O        -11.6760  -33.9920  -36.7950 O.2   221  ASP221     -0.2718
     89  CB       -12.3280  -34.4120  -39.8770 C.3   221  ASP221      0.1424
     90  CG       -13.5350  -34.8620  -40.6740 C.2   221  ASP221      0.3668
     91  OD1      -14.5070  -34.0830  -40.7690 O.co2 221  ASP221     -0.2456
     92  OD2      -13.5130  -35.9940  -41.2050 O.co2 221  ASP221     -0.2456
     93  N        -10.6020  -32.4020  -37.9610 N.am  222  LEU222     -0.1979
     94  CA        -9.5810  -32.2270  -36.9390 C.3   222  LEU222      0.1596
     95  C        -10.1180  -31.3790  -35.7930 C.2   222  LEU222      0.2287
     96  O         -9.8750  -31.6700  -34.6220 O.2   222  LEU222     -0.2864
     97  CB        -8.3240  -31.5840  -37.5260 C.3   222  LEU222      0.0297
     98  CG        -7.2350  -31.2180  -36.5150 C.3   222  LEU222      0.0022
     99  CD1       -6.7270  -32.4580  -35.7940 C.3   222  LEU222      0.0001
    100  CD2       -6.0940  -30.4810  -37.1950 C.3   222  LEU222      0.0001
    101  N        -12.3490  -33.4220  -33.4670 N.3   225  GLU225     -0.1231
    102  CA       -11.6070  -34.2760  -32.5440 C.3   225  GLU225      0.1699
    103  C        -11.0570  -33.4680  -31.3750 C.2   225  GLU225      0.2592
    104  O        -11.0040  -33.9500  -30.2430 O.2   225  GLU225     -0.2718
    105  CB       -10.4630  -34.9930  -33.2670 C.3   225  GLU225      0.0402
    106  CG       -10.9160  -36.0420  -34.2710 C.3   225  GLU225      0.1161
    107  CD        -9.7730  -36.9150  -34.7540 C.2   225  GLU225      0.3649
    108  OE1       -8.6220  -36.6770  -34.3290 O.co2 225  GLU225     -0.2457
    109  OE2      -10.0250  -37.8410  -35.5550 O.co2 225  GLU225     -0.2457
    110  N        -10.6440  -32.2380  -31.6610 N.am  226  MET226     -0.1979
    111  CA       -10.1510  -31.3320  -30.6330 C.3   226  MET226      0.1605
    112  C        -11.2770  -30.9210  -29.6950 C.2   226  MET226      0.2287
    113  O        -11.0520  -30.6620  -28.5110 O.2   226  MET226     -0.2864
    114  CB        -9.5250  -30.0900  -31.2690 C.3   226  MET226      0.0413
    115  CG        -8.3260  -30.3690  -32.1520 C.3   226  MET226      0.0598
    116  SD        -6.9140  -30.9760  -31.2150 S.3   226  MET226     -0.1393
    117  CE        -5.5820  -30.1130  -32.0410 C.3   226  MET226      0.0692
@<TRIPOS>BOND
     1    92    90   ar
     2    91    90   ar
     3    90    89    1
     4     6     5    1
     5     7     5    1
     6     5     2    1
     7    89    86    1
     8    85    86    1
     9    86    87    1
    10    23    21   am
    11     2     3    1
    12     2     1    1
    13    22    21    2
    14     3     4    2
    15    21    20    1
    16    93    87   am
    17    93    94    1
    18    87    88    2
    19    97    94    1
    20    97    98    1
    21    20    17    1
    22   100    98    1
    23    94    95    1
    24    98    99    1
    25    32    31    1
    26    17    16    1
    27    17    18    1
    28    95    96    2
    29   109   107   ar
    30    16    10   am
    31    15    13    1
    32    31    30    1
    33    18    19    2
    34    12    14    1
    35    12    13    1
    36    12     9    1
    37   107   108   ar
    38   107   106    1
    39    30    29    1
    40     8     9    1
    41    10     9    1
    42    10    11    2
    43   106   105    1
    44   101   102    1
    45    29    28    1
    46   105   102    1
    47    28    25    1
    48   102   103    1
    49   115   114    1
    50   115   116    1
    51   117   116    1
    52   110   103   am
    53   110   111    1
    54    25    24    1
    55    25    26    1
    56    26    27    2
    57   103   104    2
    58   114   111    1
    59    50    49    1
    60   111   112    1
    61    51    49    1
    62    74    73    1
    63    49    48    1
    64   112   113    2
    65    75    73    1
    66    59    58    2
    67    67    65    1
    68    73    72    1
    69    48    45    1
    70    72    69    1
    71    42    40   ar
    72    42    43   ar
    73    58    60   am
    74    58    57    1
    75    84    82   ar
    76    40    38   ar
    77    66    65    1
    78    65    62    1
    79    81    82    1
    80    81    80    1
    81    43    41   ar
    82    62    61    1
    83    62    63    1
    84    45    46    1
    85    45    44    1
    86    71    70    2
    87    56    57    1
    88    56    53    1
    89    69    70    1
    90    69    68    1
    91    47    46    2
    92    82    83   ar
    93    70    76   am
    94    61    54   am
    95    55    54    2
    96    76    77    1
    97    64    63    2
    98    38    37    1
    99    38    39   ar
   100    77    80    1
   101    77    78    1
   102    54    53    1
   103    37    34    1
   104    41    39   ar
   105    53    52    1
   106    35    36    2
   107    35    34    1
   108    79    78    2
   109    34    33    1
