@<TRIPOS>MOLECULE
tmp/5dwnA00.pdb
 181 175 0 0 0
SMALL
GASTEIGER

@<TRIPOS>ATOM
      1  N        -13.6680  -61.6210  -15.0030 N.3    24  ALA24      -0.1245
      2  CA       -14.7190  -60.7730  -14.4490 C.3    24  ALA24       0.1562
      3  C        -15.0040  -59.5690  -15.3500 C.2    24  ALA24       0.2260
      4  O        -16.1710  -59.2330  -15.5960 O.2    24  ALA24      -0.2867
      5  CB       -14.3220  -60.3090  -13.0470 C.3    24  ALA24       0.0290
      6  N        -19.6830  -56.2820  -12.5660 N.3    30  GLY30      -0.1225
      7  CA       -19.1590  -55.7750  -11.3110 C.3    30  GLY30       0.1811
      8  C        -18.0610  -54.7580  -11.5420 C.2    30  GLY30       0.2280
      9  O        -17.9930  -53.7360  -10.8570 O.2    30  GLY30      -0.2866
     10  N        -13.3860  -51.3370   -0.4040 N.3    86  ASP86      -0.1225
     11  CA       -12.9470  -52.7200   -0.6170 C.3    86  ASP86       0.1805
     12  C        -13.2820  -53.1730   -2.0360 C.2    86  ASP86       0.2598
     13  O        -14.2440  -52.7030   -2.6450 O.2    86  ASP86      -0.2718
     14  CB       -13.5600  -53.7010    0.4150 C.3    86  ASP86       0.1424
     15  CG       -15.0770  -53.9240    0.2290 C.2    86  ASP86       0.3668
     16  OD1      -15.5090  -54.9940   -0.2800 O.co2  86  ASP86      -0.2456
     17  OD2      -15.8470  -53.0290    0.6200 O.co2  86  ASP86      -0.2456
     18  N        -12.4410  -54.0510   -2.5840 N.am   87  SER87      -0.1938
     19  CA       -12.6990  -54.6940   -3.8690 C.3    87  SER87       0.2055
     20  C        -12.3990  -56.1690   -3.6960 C.2    87  SER87       0.2643
     21  O        -11.4140  -56.5160   -3.0460 O.2    87  SER87      -0.2714
     22  CB       -11.8190  -54.1140   -5.0130 C.3    87  SER87       0.2130
     23  OG       -11.9020  -52.6890   -5.0830 O.3    87  SER87      -0.2179
     24  N        -13.2240  -57.0380   -4.2740 N.am   88  ILE88      -0.1963
     25  CA       -12.9890  -58.4690   -4.0980 C.3    88  ILE88       0.1727
     26  C        -13.4780  -59.2030   -5.3290 C.2    88  ILE88       0.2616
     27  O        -14.5350  -58.8820   -5.8790 O.2    88  ILE88      -0.2715
     28  CB       -13.6650  -58.9830   -2.8120 C.3    88  ILE88       0.0290
     29  CG1      -13.5200  -60.5010   -2.6680 C.3    88  ILE88       0.0022
     30  CG2      -15.1260  -58.6130   -2.8030 C.3    88  ILE88       0.0023
     31  CD1      -13.7580  -60.9630   -1.2400 C.3    88  ILE88       0.0001
     32  N        -12.6750  -60.1730   -5.7760 N.am   89  TYR89      -0.1960
     33  CA       -12.9490  -60.9550   -6.9740 C.3    89  TYR89       0.1771
     34  C        -12.5940  -62.4090   -6.7030 C.2    89  TYR89       0.2619
     35  O        -11.4760  -62.7000   -6.2730 O.2    89  TYR89      -0.2715
     36  CB       -12.1460  -60.4410   -8.1690 C.3    89  TYR89       0.0574
     37  CG       -12.6540  -59.1170   -8.6590 C.ar   89  TYR89      -0.0198
     38  CD1      -13.5800  -59.0630   -9.6790 C.ar   89  TYR89      -0.0009
     39  CD2      -12.2530  -57.9180   -8.0660 C.ar   89  TYR89      -0.0009
     40  CE1      -14.0800  -57.8600  -10.1290 C.ar   89  TYR89       0.0417
     41  CE2      -12.7530  -56.6940   -8.5230 C.ar   89  TYR89       0.0417
     42  CZ       -13.6710  -56.6870   -9.5470 C.ar   89  TYR89       0.1957
     43  OH       -14.2010  -55.5110  -10.0220 O.3    89  TYR89      -0.2866
     44  N        -13.5270  -63.3100   -6.9910 N.am   90  ILE90      -0.1977
     45  CA       -13.3610  -64.7460   -6.7610 C.3    90  ILE90       0.1596
     46  C        -13.4140  -65.4510   -8.1110 C.2    90  ILE90       0.2287
     47  O        -14.2210  -65.0840   -8.9720 O.2    90  ILE90      -0.2864
     48  CB       -14.4620  -65.2750   -5.8210 C.3    90  ILE90       0.0276
     49  CG1      -14.4700  -64.4970   -4.5010 C.3    90  ILE90       0.0022
     50  CG2      -14.3150  -66.7920   -5.5580 C.3    90  ILE90       0.0022
     51  CD1      -13.1850  -64.6960   -3.6560 C.3    90  ILE90       0.0001
     52  N        -16.7210  -69.6220   -6.6460 N.3    95  LYS95      -0.1231
     53  CA       -17.7810  -68.7770   -6.0990 C.3    95  LYS95       0.1693
     54  C        -18.8080  -69.6080   -5.3300 C.2    95  LYS95       0.2593
     55  O        -18.9520  -70.8140   -5.5380 O.2    95  LYS95      -0.2718
     56  CB       -18.4980  -68.0070   -7.2130 C.3    95  LYS95       0.0285
     57  CG       -17.6540  -66.9310   -7.9020 C.3    95  LYS95       0.0035
     58  CD       -18.3680  -66.3800   -9.1390 C.3    95  LYS95       0.0206
     59  CE       -17.5230  -65.3240   -9.8570 C.3    95  LYS95       0.1093
     60  NZ       -18.2000  -64.9050  -11.1220 N.3    95  LYS95      -0.1314
     61  N        -19.5430  -68.9380   -4.4430 N.am   96  GLY96      -0.1942
     62  CA       -20.6070  -69.6220   -3.7240 C.3    96  GLY96       0.2014
     63  C        -20.1310  -70.6520   -2.7290 C.2    96  GLY96       0.2639
     64  O        -20.8960  -71.5530   -2.3590 O.2    96  GLY96      -0.2714
     65  N        -18.8760  -70.5540   -2.2980 N.am   97  GLN97      -0.1963
     66  CA       -18.2820  -71.4980   -1.3640 C.3    97  GLN97       0.1733
     67  C        -17.8080  -70.8280   -0.0820 C.2    97  GLN97       0.2617
     68  O        -17.1030  -71.4620    0.7090 O.2    97  GLN97      -0.2715
     69  CB       -17.1250  -72.2270   -2.0490 C.3    97  GLN97       0.0408
     70  CG       -17.5690  -72.9430   -3.3140 C.3    97  GLN97       0.0908
     71  CD       -16.4180  -73.5420   -4.0870 C.2    97  GLN97       0.2608
     72  OE1      -15.4710  -74.0730   -3.5060 O.2    97  GLN97      -0.2717
     73  NE2      -16.4920  -73.4560   -5.4090 N.am   97  GLN97      -0.0878
     74  N        -18.1640  -69.5620    0.1390 N.am   98  GLY98      -0.1940
     75  CA       -17.7590  -68.8470    1.3290 C.3    98  GLY98       0.2014
     76  C        -16.3850  -68.2170    1.2590 C.2    98  GLY98       0.2639
     77  O        -15.9380  -67.6440    2.2570 O.2    98  GLY98      -0.2714
     78  N        -15.7090  -68.2860    0.1090 N.am   99  ILE99      -0.1963
     79  CA       -14.3620  -67.7300   -0.0070 C.3    99  ILE99       0.1727
     80  C        -14.4030  -66.2040   -0.0220 C.2    99  ILE99       0.2617
     81  O        -13.5530  -65.5440    0.5880 O.2    99  ILE99      -0.2715
     82  CB       -13.6680  -68.2980   -1.2550 C.3    99  ILE99       0.0290
     83  CG1      -13.5010  -69.7990   -1.1140 C.3    99  ILE99       0.0022
     84  CG2      -12.3220  -67.6380   -1.4870 C.3    99  ILE99       0.0023
     85  CD1      -13.1290  -70.4690   -2.4140 C.3    99  ILE99       0.0001
     86  N        -15.3770  -65.6170   -0.7210 N.am  100  GLY100     -0.1940
     87  CA       -15.5500  -64.1740   -0.6470 C.3   100  GLY100      0.2014
     88  C        -15.7500  -63.6880    0.7800 C.2   100  GLY100      0.2638
     89  O        -15.1950  -62.6640    1.1850 O.2   100  GLY100     -0.2714
     90  N        -16.5490  -64.4180    1.5600 N.am  101  LYS101     -0.1977
     91  CA       -16.7820  -64.0200    2.9420 C.3   101  LYS101      0.1596
     92  C        -15.5080  -64.1510    3.7670 C.2   101  LYS101      0.2287
     93  O        -15.1850  -63.2610    4.5570 O.2   101  LYS101     -0.2864
     94  CB       -17.9130  -64.8560    3.5450 C.3   101  LYS101      0.0298
     95  CG       -18.5600  -64.2290    4.7660 C.3   101  LYS101      0.0038
     96  CD       -19.7160  -65.0930    5.2530 C.3   101  LYS101      0.0206
     97  CE       -20.5070  -64.3820    6.3470 C.3   101  LYS101      0.1093
     98  NZ       -21.5150  -65.2980    7.0030 N.3   101  LYS101     -0.1314
     99  N        -18.2170  -50.0290    0.0860 N.3   121  ALA121     -0.1231
    100  CA       -18.3390  -50.9120   -1.0690 C.3   121  ALA121      0.1694
    101  C        -19.0240  -50.1390   -2.1850 C.2   121  ALA121      0.2592
    102  O        -20.1400  -49.6480   -2.0030 O.2   121  ALA121     -0.2718
    103  CB       -19.1400  -52.1690   -0.7270 C.3   121  ALA121      0.0304
    104  N        -18.3700  -50.0430   -3.3340 N.am  122  VAL122     -0.1966
    105  CA       -18.9550  -49.4140   -4.5120 C.3   122  VAL122      0.1727
    106  C        -19.2780  -50.5440   -5.4770 C.2   122  VAL122      0.2616
    107  O        -18.3860  -51.0630   -6.1560 O.2   122  VAL122     -0.2715
    108  CB       -18.0160  -48.3790   -5.1390 C.3   122  VAL122      0.0290
    109  CG1      -18.7050  -47.7100   -6.3380 C.3   122  VAL122      0.0023
    110  CG2      -17.6460  -47.3320   -4.0990 C.3   122  VAL122      0.0023
    111  N        -20.5410  -50.9620   -5.5000 N.am  123  ILE123     -0.1963
    112  CA       -20.9400  -52.2150   -6.1360 C.3   123  ILE123      0.1727
    113  C        -21.4940  -51.9000   -7.5190 C.2   123  ILE123      0.2616
    114  O        -22.5460  -51.2620   -7.6420 O.2   123  ILE123     -0.2715
    115  CB       -21.9670  -52.9690   -5.2780 C.3   123  ILE123      0.0290
    116  CG1      -21.3100  -53.4530   -3.9860 C.3   123  ILE123      0.0022
    117  CG2      -22.5890  -54.1500   -6.0720 C.3   123  ILE123      0.0023
    118  CD1      -22.2980  -54.0560   -2.9830 C.3   123  ILE123      0.0001
    119  N        -20.7940  -52.3450   -8.5650 N.am  124  GLY124     -0.1955
    120  CA       -21.2660  -52.0970   -9.9170 C.3   124  GLY124      0.1869
    121  C        -22.4560  -52.9830  -10.2530 C.2   124  GLY124      0.2309
    122  O        -22.5160  -54.1470   -9.8580 O.2   124  GLY124     -0.2863
    123  N        -25.9220  -57.8360   -9.6500 N.3   129  ASN129     -0.1225
    124  CA       -24.8670  -58.4880   -8.8870 C.3   129  ASN129      0.1785
    125  C        -25.3140  -58.6980   -7.4370 C.2   129  ASN129      0.2597
    126  O        -24.7840  -58.1250   -6.4820 O.2   129  ASN129     -0.2718
    127  CB       -23.5790  -57.6850   -9.0100 C.3   129  ASN129      0.1169
    128  CG       -23.0110  -57.7460  -10.4290 C.2   129  ASN129      0.2627
    129  OD1      -22.9220  -58.8270  -11.0230 O.2   129  ASN129     -0.2716
    130  ND2      -22.6700  -56.5930  -10.9910 N.am  129  ASN129     -0.0877
    131  N        -26.3090  -59.5810   -7.2950 N.am  130  ILE130     -0.1966
    132  CA       -26.8740  -59.9000   -5.9860 C.3   130  ILE130      0.1727
    133  C        -25.8120  -60.4810   -5.0640 C.2   130  ILE130      0.2617
    134  O        -25.7840  -60.1770   -3.8660 O.2   130  ILE130     -0.2715
    135  CB       -28.0630  -60.8740   -6.1400 C.3   130  ILE130      0.0290
    136  CG1      -29.0900  -60.3250   -7.1330 C.3   130  ILE130      0.0022
    137  CG2      -28.7050  -61.1500   -4.7850 C.3   130  ILE130      0.0023
    138  CD1      -29.5360  -58.9040   -6.8450 C.3   130  ILE130      0.0001
    139  N        -24.9450  -61.3520   -5.5970 N.am  131  GLY131     -0.1940
    140  CA       -23.8800  -61.9190   -4.7780 C.3   131  GLY131      0.2014
    141  C        -23.0370  -60.8650   -4.0840 C.2   131  GLY131      0.2639
    142  O        -22.6670  -61.0210   -2.9130 O.2   131  GLY131     -0.2714
    143  N        -22.7240  -59.7780   -4.7920 N.am  132  SER132     -0.1949
    144  CA       -21.9670  -58.6840   -4.1860 C.3   132  SER132      0.1924
    145  C        -22.7300  -58.0490   -3.0310 C.2   132  SER132      0.2314
    146  O        -22.1660  -57.7910   -1.9540 O.2   132  SER132     -0.2863
    147  CB       -21.6470  -57.6220   -5.2390 C.3   132  SER132      0.2116
    148  OG       -20.8880  -58.1730   -6.2900 O.3   132  SER132     -0.2180
    149  N        -25.2370  -59.3300   -1.2520 N.3   134  LYS134     -0.1231
    150  CA       -25.4220  -60.2850   -0.1600 C.3   134  LYS134      0.1693
    151  C        -24.1240  -60.5300    0.6050 C.2   134  LYS134      0.2592
    152  O        -24.1430  -60.6890    1.8280 O.2   134  LYS134     -0.2718
    153  CB       -25.9580  -61.6140   -0.7010 C.3   134  LYS134      0.0285
    154  CG       -27.2820  -61.5030   -1.4100 C.3   134  LYS134      0.0035
    155  CD       -28.4190  -61.2400   -0.4490 C.3   134  LYS134      0.0206
    156  CE       -29.7300  -61.7470   -1.0440 C.3   134  LYS134      0.1093
    157  NZ       -30.8540  -61.6510   -0.0820 N.3   134  LYS134     -0.1314
    158  N        -22.9930  -60.6110   -0.1030 N.am  135  LEU135     -0.1966
    159  CA       -21.7100  -60.7540    0.5800 C.3   135  LEU135      0.1728
    160  C        -21.5170  -59.6220    1.5770 C.2   135  LEU135      0.2616
    161  O        -21.1770  -59.8450    2.7500 O.2   135  LEU135     -0.2715
    162  CB       -20.5600  -60.7670   -0.4390 C.3   135  LEU135      0.0311
    163  CG       -19.1620  -60.5730    0.1750 C.3   135  LEU135      0.0022
    164  CD1      -18.8530  -61.6550    1.2320 C.3   135  LEU135      0.0001
    165  CD2      -18.0590  -60.5180   -0.9060 C.3   135  LEU135      0.0001
    166  N        -21.7600  -58.3910    1.1270 N.am  136  HIS136     -0.1973
    167  CA       -21.4870  -57.2430    1.9760 C.3   136  HIS136      0.1656
    168  C        -22.5140  -57.1400    3.1030 C.2   136  HIS136      0.2291
    169  O        -22.1410  -56.8980    4.2590 O.2   136  HIS136     -0.2864
    170  CB       -21.4080  -55.9780    1.1060 C.3   136  HIS136      0.0771
    171  CG       -20.1150  -55.8710    0.3420 C.ar  136  HIS136      0.0820
    172  ND1      -19.8960  -56.5240   -0.8540 N.ar  136  HIS136     -0.2267
    173  CD2      -18.9420  -55.2670    0.6590 C.ar  136  HIS136      0.1154
    174  CE1      -18.6610  -56.2860   -1.2660 C.ar  136  HIS136      0.1986
    175  NE2      -18.0620  -55.5220   -0.3680 N.ar  136  HIS136     -0.2212
    176  N        -23.8730  -59.6500    4.5270 N.3   138  SER138     -0.1217
    177  CA       -23.6080  -60.7370    5.4750 C.3   138  SER138      0.1889
    178  C        -22.5070  -60.3820    6.4700 C.2   138  SER138      0.2288
    179  O        -22.3860  -61.0390    7.5120 O.2   138  SER138     -0.2866
    180  CB       -23.2060  -62.0190    4.7350 C.3   138  SER138      0.2089
    181  OG       -21.8590  -61.9230    4.2610 O.3   138  SER138     -0.2183
@<TRIPOS>BOND
     1     4     3    2
     2     3     2    1
     3     1     2    1
     4     2     5    1
     5     6     7    1
     6     8     7    1
     7     8     9    2
     8    60    59    1
     9   129   128    2
    10   130   128   am
    11   128   127    1
    12   121   120    1
    13   121   122    2
    14    40    38   ar
    15    40    42   ar
    16    43    42    1
    17   120   119    1
    18    59    58    1
    19    38    37   ar
    20   123   124    1
    21    42    41   ar
    22    58    57    1
    23   127   124    1
    24    47    46    2
    25   124   125    1
    26    37    36    1
    27    37    39   ar
    28   119   113   am
    29    41    39   ar
    30    36    33    1
    31    46    45    1
    32    57    56    1
    33   114   113    2
    34   113   112    1
    35   125   131   am
    36   125   126    2
    37   131   132    1
    38    56    53    1
    39   136   138    1
    40   136   135    1
    41    44    45    1
    42    44    34   am
    43    33    34    1
    44    33    32    1
    45    45    48    1
    46    34    35    2
    47    52    53    1
    48   109   108    1
    49   148   147    1
    50   107   106    2
    51   135   132    1
    52   135   137    1
    53   112   111    1
    54   112   115    1
    55    53    54    1
    56   117   115    1
    57   132   133    1
    58    27    26    2
    59    48    50    1
    60    48    49    1
    61    32    26   am
    62   139   133   am
    63   139   140    1
    64    55    54    2
    65   111   106   am
    66   106   105    1
    67    73    71   am
    68    54    61   am
    69    26    25    1
    70   115   116    1
    71   147   144    1
    72   108   105    1
    73   108   110    1
    74    23    22    1
    75   133   134    2
    76    22    19    1
    77   143   144    1
    78   143   141   am
    79   140   141    1
    80   105   104    1
    81    49    51    1
    82    61    62    1
    83    24    25    1
    84    24    20   am
    85   144   145    1
    86    25    28    1
    87    71    72    2
    88    71    70    1
    89   141   142    2
    90   116   118    1
    91    19    20    1
    92    19    18    1
    93    62    63    1
    94    20    21    2
    95   104   101   am
    96    70    69    1
    97   145   146    2
    98    28    30    1
    99    28    29    1
   100    63    64    2
   101    63    65   am
   102    29    31    1
   103    13    12    2
   104    18    12   am
   105    85    83    1
   106    65    66    1
   107   101   102    2
   108   101   100    1
   109    69    66    1
   110    12    11    1
   111    84    82    1
   112   154   153    1
   113   154   155    1
   114    66    67    1
   115   174   172   ar
   116   174   175   ar
   117    82    83    1
   118    82    79    1
   119   149   150    1
   120   100   103    1
   121   100    99    1
   122   156   155    1
   123   156   157    1
   124   165   163    1
   125   172   171   ar
   126    86    87    1
   127    86    80   am
   128   153   150    1
   129    87    88    1
   130    11    10    1
   131    11    14    1
   132   162   163    1
   133   162   159    1
   134   175   173   ar
   135    16    15   ar
   136   150   151    1
   137   158   159    1
   138   158   151   am
   139    67    74   am
   140    67    68    2
   141    80    79    1
   142    80    81    2
   143    79    78    1
   144    78    76   am
   145    74    75    1
   146   163   164    1
   147    15    14    1
   148    15    17   ar
   149   171   173   ar
   150   171   170    1
   151   159   160    1
   152   151   152    2
   153    88    89    2
   154    88    90   am
   155   170   167    1
   156   166   160   am
   157   166   167    1
   158    76    75    1
   159    76    77    2
   160    90    91    1
   161   160   161    2
   162   167   168    1
   163    91    94    1
   164    91    92    1
   165   168   169    2
   166    94    95    1
   167    92    93    2
   168   181   180    1
   169   176   177    1
   170   180   177    1
   171    95    96    1
   172    96    97    1
   173   177   178    1
   174    97    98    1
   175   178   179    2
