@<TRIPOS>MOLECULE
tmp/5dwrA00.pdb
 161 151 0 0 0
SMALL
GASTEIGER

@<TRIPOS>ATOM
      1  N        -41.7840    4.7590    5.5210 N.3    12  LEU12      -0.1231
      2  CA       -42.3630    3.4820    5.9710 C.3    12  LEU12       0.1693
      3  C        -41.3510    2.6960    6.7850 C.2    12  LEU12       0.2592
      4  O        -41.7020    2.0630    7.7670 O.2    12  LEU12      -0.2718
      5  CB       -42.9140    2.6560    4.7900 C.3    12  LEU12       0.0284
      6  CG       -44.0900    3.2600    4.0260 C.3    12  LEU12       0.0019
      7  CD1      -44.2860    2.5700    2.6890 C.3    12  LEU12       0.0001
      8  CD2      -45.3740    3.1900    4.8280 C.3    12  LEU12       0.0001
      9  N        -40.0890    2.7820    6.3960 N.am   13  GLY13      -0.1957
     10  CA       -38.9950    2.1260    7.0970 C.3    13  GLY13       0.1869
     11  C        -37.6920    2.3000    6.3650 C.2    13  GLY13       0.2309
     12  O        -37.6730    2.7570    5.2220 O.2    13  GLY13      -0.2863
     13  N        -31.3270   -2.1980    3.3070 N.3    17  PHE17      -0.1241
     14  CA       -31.9460   -2.0650    1.9970 C.3    17  PHE17       0.1605
     15  C        -32.0550   -0.6200    1.4690 C.2    17  PHE17       0.2264
     16  O        -32.2920   -0.4370    0.2800 O.2    17  PHE17      -0.2867
     17  CB       -33.3410   -2.6960    2.0420 C.3    17  PHE17       0.0534
     18  CG       -34.3050   -2.1370    3.0780 C.ar   17  PHE17      -0.0203
     19  CD1      -35.0580   -0.9930    2.8110 C.ar   17  PHE17      -0.0042
     20  CD2      -34.5200   -2.8040    4.2850 C.ar   17  PHE17      -0.0042
     21  CE1      -35.9750   -0.5020    3.7530 C.ar   17  PHE17      -0.0003
     22  CE2      -35.4290   -2.3060    5.2310 C.ar   17  PHE17      -0.0003
     23  CZ       -36.1650   -1.1670    4.9500 C.ar   17  PHE17      -0.0000
     24  N        -37.4830    3.4580    2.4430 N.3    20  VAL20      -0.1245
     25  CA       -38.7180    3.2800    1.6870 C.3    20  VAL20       0.1561
     26  C        -39.8130    4.2270    2.2020 C.2    20  VAL20       0.2260
     27  O        -40.1300    4.2130    3.3890 O.2    20  VAL20      -0.2867
     28  CB       -39.1850    1.7850    1.6380 C.3    20  VAL20       0.0252
     29  CG1      -40.5200    1.6380    0.9000 C.3    20  VAL20       0.0019
     30  CG2      -38.1200    0.8990    0.9940 C.3    20  VAL20       0.0019
     31  N        -44.8080    2.8800   -3.6300 N.3    33  ALA33      -0.1245
     32  CA       -43.7720    2.7890   -2.6100 C.3    33  ALA33       0.1562
     33  C        -42.5420    3.3440   -3.2890 C.2    33  ALA33       0.2260
     34  O        -42.3130    3.0800   -4.4710 O.2    33  ALA33      -0.2867
     35  CB       -43.5600    1.3560   -2.1570 C.3    33  ALA33       0.0290
     36  N        -38.5670    3.6870   -3.0550 N.3    35  LYS35      -0.1245
     37  CA       -37.3510    3.1490   -2.4520 C.3    35  LYS35       0.1561
     38  C        -36.1080    3.9240   -2.9000 C.2    35  LYS35       0.2260
     39  O        -35.8600    4.0370   -4.0900 O.2    35  LYS35      -0.2867
     40  CB       -37.2190    1.6480   -2.8170 C.3    35  LYS35       0.0271
     41  CG       -36.0010    0.9680   -2.1820 C.3    35  LYS35       0.0035
     42  CD       -35.9110   -0.5180   -2.5330 C.3    35  LYS35       0.0206
     43  CE       -34.5940   -1.0570   -2.0600 C.3    35  LYS35       0.1093
     44  NZ       -34.5870   -2.5450   -1.9830 N.3    35  LYS35      -0.1314
     45  N        -31.0270   -5.2040   -8.5260 N.3    57  GLU57      -0.1245
     46  CA       -32.4240   -5.1020   -8.1630 C.3    57  GLU57       0.1567
     47  C        -33.3100   -4.6330   -9.3210 C.2    57  GLU57       0.2260
     48  O        -34.3850   -5.1830   -9.5240 O.2    57  GLU57      -0.2867
     49  CB       -32.5000   -4.0930   -7.0400 C.3    57  GLU57       0.0388
     50  CG       -33.7110   -4.2550   -6.1840 C.3    57  GLU57       0.1160
     51  CD       -33.7520   -3.2570   -5.0500 C.2    57  GLU57       0.3649
     52  OE1      -32.7040   -2.6950   -4.6360 O.co2  57  GLU57      -0.2457
     53  OE2      -34.8860   -3.0260   -4.5920 O.co2  57  GLU57      -0.2457
     54  N        -43.9260   -8.0410   -6.5090 N.3    72  ILE72      -0.1245
     55  CA       -44.1210   -6.5910   -6.5220 C.3    72  ILE72       0.1561
     56  C        -43.6650   -6.0140   -7.8880 C.2    72  ILE72       0.2260
     57  O        -42.6040   -6.3920   -8.3950 O.2    72  ILE72      -0.2867
     58  CB       -43.3620   -5.9550   -5.3290 C.3    72  ILE72       0.0252
     59  CG1      -43.9520   -4.5880   -4.9640 C.3    72  ILE72       0.0019
     60  CG2      -41.8010   -5.9120   -5.5380 C.3    72  ILE72       0.0019
     61  CD1      -45.3180   -4.7270   -4.2010 C.3    72  ILE72       0.0001
     62  N        -42.3650    1.4690   -6.8070 N.3    88  LEU88      -0.1231
     63  CA       -43.0000    0.1660   -6.7690 C.3    88  LEU88       0.1693
     64  C        -44.4810    0.2860   -6.5260 C.2    88  LEU88       0.2595
     65  O        -44.9330    1.2330   -5.8740 O.2    88  LEU88      -0.2718
     66  CB       -42.3520   -0.6700   -5.6510 C.3    88  LEU88       0.0284
     67  CG       -40.8410   -0.8620   -5.8240 C.3    88  LEU88       0.0019
     68  CD1      -40.0900   -0.5680   -4.5340 C.3    88  LEU88       0.0001
     69  CD2      -40.5210   -2.2180   -6.4460 C.3    88  LEU88       0.0001
     70  N        -45.2390   -0.7170   -7.0010 N.am   89  GLU89      -0.1920
     71  CA       -46.6690   -0.7960   -6.7720 C.3    89  GLU89       0.1949
     72  C        -46.9040   -0.8620   -5.2580 C.2    89  GLU89       0.2659
     73  O        -46.0530   -1.3830   -4.5370 O.2    89  GLU89      -0.2711
     74  CB       -47.2320   -2.0340   -7.5180 C.2    89  GLU89       0.0111
     75  CG       -47.7190   -3.1760   -6.6430 C.2    89  GLU89       0.0838
     76  CD       -48.2290   -4.3900   -7.3930 C.2    89  GLU89       0.3877
     77  OE1      -47.3900   -5.1180   -7.9690 O.co2  89  GLU89      -0.2406
     78  OE2      -49.4580   -4.6340   -7.3750 O.co2  89  GLU89      -0.2406
     79  N        -48.0120   -0.3040   -4.7650 N.am   90  ARG90      -0.1961
     80  CA       -48.3140   -0.3760   -3.3410 C.3    90  ARG90       0.1714
     81  C        -49.7670   -0.7740   -3.1190 C.2    90  ARG90       0.2458
     82  O        -50.6420    0.0750   -3.2850 O.2    90  ARG90      -0.2730
     83  CB       -47.9460    0.9280   -2.5840 C.3    90  ARG90       0.0347
     84  CG       -48.4700    1.0140   -1.1360 C.3    90  ARG90       0.0492
     85  CD       -47.9460    2.2160   -0.3600 C.3    90  ARG90       0.2205
     86  NE       -48.4200    3.5150   -0.8730 N.pl3  90  ARG90      -0.0865
     87  CZ       -49.5640    4.1020   -0.5250 C.cat  90  ARG90       0.5346
     88  NH1      -49.8780    5.2940   -1.0140 N.pl3  90  ARG90       0.1354
     89  NH2      -50.4070    3.4970    0.3040 N.pl3  90  ARG90       0.1354
     90  N        -50.0390   -2.0370   -2.6750 N.am   91  PRO91      -0.2727
     91  CA       -51.4240   -2.4210   -2.3550 C.3    91  PRO91       0.1402
     92  C        -51.8820   -1.6380   -1.1240 C.2    91  PRO91       0.2269
     93  O        -51.0520   -1.2030   -0.3190 O.2    91  PRO91      -0.2865
     94  CB       -51.3260   -3.9300   -2.0500 C.3    91  PRO91       0.0296
     95  CG       -49.9640   -4.3580   -2.5550 C.3    91  PRO91       0.0237
     96  CD       -49.1030   -3.1440   -2.3820 C.3    91  PRO91       0.0939
     97  N        -52.2240   -2.9120    3.2400 N.3    94  VAL94      -0.1231
     98  CA       -51.1410   -3.8800    3.1260 C.3    94  VAL94       0.1692
     99  C        -50.5070   -4.0750    4.5000 C.2    94  VAL94       0.2592
    100  O        -50.5530   -3.1680    5.3480 O.2    94  VAL94      -0.2718
    101  CB       -50.1130   -3.4050    2.0430 C.3    94  VAL94       0.0266
    102  CG1      -49.2300   -2.2640    2.5410 C.3    94  VAL94       0.0020
    103  CG2      -49.2620   -4.5470    1.5210 C.3    94  VAL94       0.0020
    104  N        -49.9010   -5.2500    4.7080 N.am   95  GLN95      -0.1966
    105  CA       -49.1180   -5.5650    5.8990 C.3    95  GLN95       0.1733
    106  C        -48.0630   -6.5970    5.5260 C.2    95  GLN95       0.2616
    107  O        -48.3860   -7.5600    4.8320 O.2    95  GLN95      -0.2715
    108  CB       -50.0010   -6.0880    7.0340 C.3    95  GLN95       0.0408
    109  CG       -49.2660   -6.1690    8.3870 C.3    95  GLN95       0.0908
    110  CD       -50.1830   -6.6660    9.4820 C.2    95  GLN95       0.2608
    111  OE1      -51.0280   -7.5240    9.2550 O.2    95  GLN95      -0.2717
    112  NE2      -50.0300   -6.1560   10.6980 N.am   95  GLN95      -0.0878
    113  N        -46.8180   -6.4240    5.9940 N.am   96  ASP96      -0.1971
    114  CA       -45.7980   -7.4480    5.7270 C.3    96  ASP96       0.1709
    115  C        -46.0820   -8.6750    6.6090 C.2    96  ASP96       0.2293
    116  O        -46.7750   -8.5600    7.6360 O.2    96  ASP96      -0.2864
    117  CB       -44.3520   -6.9230    5.8240 C.3    96  ASP96       0.1436
    118  CG       -43.8230   -6.5720    7.2000 C.2    96  ASP96       0.3671
    119  OD1      -44.2000   -7.2380    8.1660 O.co2  96  ASP96      -0.2456
    120  OD2      -42.9620   -5.6800    7.2900 O.co2  96  ASP96      -0.2456
    121  N        -40.2970  -10.7850    6.4850 N.3   139  GLU139     -0.1231
    122  CA       -40.1630   -9.3240    6.2600 C.3   139  GLU139      0.1699
    123  C        -40.2480   -8.9360    4.7780 C.2   139  GLU139      0.2592
    124  O        -40.5740   -7.7760    4.4610 O.2   139  GLU139     -0.2718
    125  CB       -38.8600   -8.7940    6.8750 C.3   139  GLU139      0.0402
    126  CG       -38.8640   -8.8510    8.4010 C.3   139  GLU139      0.1161
    127  CD       -37.5920   -8.4110    9.1010 C.2   139  GLU139      0.3649
    128  OE1      -37.6950   -7.8320   10.2060 O.co2 139  GLU139     -0.2457
    129  OE2      -36.4940   -8.6330    8.5440 O.co2 139  GLU139     -0.2457
    130  N        -39.9620   -9.9010    3.8610 N.am  140  ASN140     -0.1974
    131  CA       -39.9560   -9.6430    2.4070 C.3   140  ASN140      0.1688
    132  C        -41.1640  -10.1980    1.6820 C.2   140  ASN140      0.2292
    133  O        -41.1340  -10.4060    0.4660 O.2   140  ASN140     -0.2864
    134  CB       -38.6510  -10.1290    1.7850 C.3   140  ASN140      0.1181
    135  CG       -37.5040   -9.2640    2.2140 C.2   140  ASN140      0.2629
    136  OD1      -37.7010   -8.1220    2.6190 O.2   140  ASN140     -0.2716
    137  ND2      -36.2980   -9.7960    2.2150 N.am  140  ASN140     -0.0877
    138  N        -45.3380   -9.4050    1.3750 N.3   142  LEU142     -0.1245
    139  CA       -46.4260   -8.4780    1.6730 C.3   142  LEU142      0.1561
    140  C        -47.7510   -9.1210    1.4790 C.2   142  LEU142      0.2260
    141  O        -47.9410   -9.8550    0.4980 O.2   142  LEU142     -0.2867
    142  CB       -46.3790   -7.2730    0.7410 C.3   142  LEU142      0.0270
    143  CG       -45.2660   -6.3100    0.9300 C.3   142  LEU142      0.0019
    144  CD1      -45.5550   -5.0820    0.1310 C.3   142  LEU142      0.0001
    145  CD2      -45.0700   -5.9750    2.3990 C.3   142  LEU142      0.0001
    146  N        -41.1350   -9.0740   -2.1570 N.3   153  ILE153     -0.1231
    147  CA       -40.4860   -7.7550   -2.2610 C.3   153  ILE153      0.1692
    148  C        -38.9960   -7.8990   -1.9330 C.2   153  ILE153      0.2592
    149  O        -38.5750   -8.9060   -1.3610 O.2   153  ILE153     -0.2718
    150  CB       -41.1750   -6.6670   -1.3410 C.3   153  ILE153      0.0266
    151  CG1      -41.0990   -7.0580    0.1320 C.3   153  ILE153      0.0019
    152  CG2      -42.6430   -6.3880   -1.7680 C.3   153  ILE153      0.0020
    153  CD1      -41.4040   -5.9230    1.1890 C.3   153  ILE153      0.0001
    154  N        -38.2310   -6.8380   -2.2230 N.am  154  ASP154     -0.1974
    155  CA       -36.8060   -6.6920   -1.9500 C.3   154  ASP154      0.1709
    156  C        -35.9320   -7.6790   -2.7150 C.2   154  ASP154      0.2293
    157  O        -35.4600   -8.6660   -2.1500 O.2   154  ASP154     -0.2864
    158  CB       -36.4650   -6.7170   -0.4490 C.3   154  ASP154      0.1436
    159  CG       -34.9970   -6.4070   -0.1470 C.2   154  ASP154      0.3671
    160  OD1      -34.2880   -5.8860   -1.0560 O.co2 154  ASP154     -0.2456
    161  OD2      -34.5810   -6.6040    1.0060 O.co2 154  ASP154     -0.2456
@<TRIPOS>BOND
     1    48    47    2
     2    47    46    1
     3    45    46    1
     4    57    56    2
     5    46    49    1
     6    77    76   ar
     7    56    55    1
     8    74    71    1
     9    74    75    2
    10    76    78   ar
    11    76    75    1
    12    49    50    1
    13    70    71    1
    14    70    64   am
    15    62    63    1
    16    71    72    1
    17    63    64    1
    18    63    66    1
    19    64    65    2
    20    55    54    1
    21    55    58    1
    22    69    67    1
    23    50    51    1
    24    67    66    1
    25    67    68    1
    26    60    58    1
    27    58    59    1
    28    72    79   am
    29    72    73    2
    30    51    52   ar
    31    51    53   ar
    32    59    61    1
    33    79    80    1
    34    34    33    2
    35    39    38    2
    36    31    32    1
    37    80    81    1
    38    80    83    1
    39    33    32    1
    40    82    81    2
    41    81    90   am
    42    36    37    1
    43    38    37    1
    44    40    37    1
    45    40    41    1
    46   156   157    2
    47   156   155    1
    48    90    96    1
    49    90    91    1
    50    32    35    1
    51    83    84    1
    52    95    96    1
    53    95    94    1
    54    42    41    1
    55    42    43    1
    56    91    94    1
    57    91    92    1
    58   147   146    1
    59   147   148    1
    60   147   150    1
    61   154   155    1
    62   154   148   am
    63    43    44    1
    64   155   158    1
    65   148   149    2
    66   152   150    1
    67   150   151    1
    68    84    85    1
    69    92    93    2
    70   160   159   ar
    71    88    87    1
    72    86    87    2
    73    86    85    1
    74    87    89    1
    75   158   159    1
    76   159   161   ar
    77   144   143    1
    78   151   153    1
    79    16    15    2
    80   133   132    2
    81   141   140    2
    82   142   143    1
    83   142   139    1
    84    29    28    1
    85   143   145    1
    86    30    28    1
    87   138   139    1
    88    15    14    1
    89   140   139    1
    90   103   101    1
    91    28    25    1
    92   132   131    1
    93    25    26    1
    94    25    24    1
    95   134   135    1
    96   134   131    1
    97    14    17    1
    98    14    13    1
    99    17    18    1
   100   101   102    1
   101   101    98    1
   102    26    27    2
   103   135   137   am
   104   135   136    2
   105   131   130    1
   106     7     6    1
   107    19    18   ar
   108    19    21   ar
   109    18    20   ar
   110    98    97    1
   111    98    99    1
   112    21    23   ar
   113   130   123   am
   114     6     5    1
   115     6     8    1
   116    20    22   ar
   117   124   123    2
   118    99   104   am
   119    99   100    2
   120   104   105    1
   121   123   122    1
   122     5     2    1
   123   107   106    2
   124    23    22   ar
   125    12    11    2
   126     1     2    1
   127   106   105    1
   128   106   113   am
   129   114   117    1
   130   114   113    1
   131   114   115    1
   132   117   118    1
   133   105   108    1
   134     2     3    1
   135   122   121    1
   136   122   125    1
   137    11    10    1
   138     9     3   am
   139     9    10    1
   140   115   116    2
   141     3     4    2
   142   125   126    1
   143   108   109    1
   144   118   120   ar
   145   118   119   ar
   146   109   110    1
   147   126   127    1
   148   129   127   ar
   149   127   128   ar
   150   111   110    2
   151   110   112   am
