@<TRIPOS>MOLECULE
tmp/5dwvA00.pdb
 183 175 0 0 0
SMALL
GASTEIGER

@<TRIPOS>ATOM
      1  N        -66.7130  -19.1840   -4.5220 N.3   212  ARG212     -0.1245
      2  CA       -65.5620  -19.6170   -3.7300 C.3   212  ARG212      0.1563
      3  C        -64.3130  -18.7930   -4.0460 C.2   212  ARG212      0.2260
      4  O        -63.5170  -18.4740   -3.1480 O.2   212  ARG212     -0.2867
      5  CB       -65.3020  -21.1050   -3.9900 C.3   212  ARG212      0.0307
      6  CG       -63.9890  -21.6140   -3.4380 C.3   212  ARG212      0.0489
      7  CD       -63.9780  -21.5610   -1.9300 C.3   212  ARG212      0.2205
      8  NE       -62.6140  -21.6140   -1.4450 N.pl3 212  ARG212     -0.0865
      9  CZ       -62.2450  -21.2510   -0.2250 C.cat 212  ARG212      0.5346
     10  NH1      -63.1540  -20.8100    0.6420 N.pl3 212  ARG212      0.1354
     11  NH2      -60.9680  -21.3080    0.1180 N.pl3 212  ARG212      0.1354
     12  N        -62.1010  -13.4550    4.6780 N.3   221  PHE221     -0.1227
     13  CA       -62.6740  -14.7890    4.5800 C.3   221  PHE221      0.1736
     14  C        -61.7970  -15.7560    3.8020 C.2   221  PHE221      0.2596
     15  O        -62.1670  -16.9240    3.6530 O.2   221  PHE221     -0.2718
     16  CB       -64.0730  -14.6980    3.9540 C.3   221  PHE221      0.0547
     17  CG       -65.0680  -13.9920    4.8400 C.ar  221  PHE221     -0.0202
     18  CD1      -65.0910  -12.6070    4.9180 C.ar  221  PHE221     -0.0042
     19  CD2      -65.9350  -14.7190    5.6490 C.ar  221  PHE221     -0.0042
     20  CE1      -65.9780  -11.9550    5.7610 C.ar  221  PHE221     -0.0003
     21  CE2      -66.8310  -14.0710    6.5030 C.ar  221  PHE221     -0.0003
     22  CZ       -66.8540  -12.6870    6.5550 C.ar  221  PHE221     -0.0000
     23  N        -60.6450  -15.3030    3.3150 N.am  222  GLY222     -0.1942
     24  CA       -59.7100  -16.1630    2.6170 C.3   222  GLY222      0.2014
     25  C        -58.2860  -15.7890    2.9640 C.2   222  GLY222      0.2638
     26  O        -57.9430  -15.6610    4.1440 O.2   222  GLY222     -0.2714
     27  N        -57.4470  -15.5810    1.9530 N.am  223  ASN223     -0.1972
     28  CA       -56.0670  -15.1930    2.1890 C.3   223  ASN223      0.1688
     29  C        -55.7160  -13.9670    1.3620 C.2   223  ASN223      0.2292
     30  O        -56.1540  -13.8270    0.2160 O.2   223  ASN223     -0.2864
     31  CB       -55.1000  -16.3290    1.8680 C.3   223  ASN223      0.1181
     32  CG       -55.3470  -17.5580    2.7180 C.2   223  ASN223      0.2629
     33  OD1      -54.9950  -17.6050    3.9060 O.2   223  ASN223     -0.2716
     34  ND2      -55.9700  -18.5590    2.1190 N.am  223  ASN223     -0.0877
     35  N        -62.1980  -34.6530   -2.5710 N.3   239  HIS239     -0.1226
     36  CA       -63.2620  -34.2140   -1.6850 C.3   239  HIS239      0.1752
     37  C        -63.3380  -32.6930   -1.7400 C.2   239  HIS239      0.2597
     38  O        -62.3810  -32.0230   -2.1410 O.2   239  HIS239     -0.2718
     39  CB       -63.0060  -34.7220   -0.2540 C.3   239  HIS239      0.0759
     40  CG       -63.9590  -34.1870    0.7740 C.ar  239  HIS239      0.0818
     41  ND1      -63.7830  -32.9590    1.3840 N.ar  239  HIS239     -0.2268
     42  CD2      -65.0810  -34.7200    1.3170 C.ar  239  HIS239      0.1154
     43  CE1      -64.7670  -32.7500    2.2410 C.ar  239  HIS239      0.1986
     44  NE2      -65.5660  -33.8050    2.2220 N.ar  239  HIS239     -0.2212
     45  N        -64.4950  -32.1530   -1.3350 N.am  240  GLY240     -0.1942
     46  CA       -64.7750  -30.7400   -1.5480 C.3   240  GLY240      0.2014
     47  C        -63.8880  -29.8000   -0.7540 C.2   240  GLY240      0.2638
     48  O        -63.6590  -28.6580   -1.1680 O.2   240  GLY240     -0.2714
     49  N        -63.4030  -30.2510    0.4040 N.am  241  PHE241     -0.1973
     50  CA       -62.4700  -29.4550    1.1920 C.3   241  PHE241      0.1639
     51  C        -61.1590  -29.2460    0.4300 C.2   241  PHE241      0.2290
     52  O        -60.6610  -28.1240    0.3290 O.2   241  PHE241     -0.2864
     53  CB       -62.2400  -30.1490    2.5510 C.3   241  PHE241      0.0560
     54  CG       -61.3860  -29.3660    3.5270 C.ar  241  PHE241     -0.0200
     55  CD1      -61.3080  -27.9790    3.4630 C.ar  241  PHE241     -0.0042
     56  CD2      -60.6580  -30.0290    4.5170 C.ar  241  PHE241     -0.0042
     57  CE1      -60.5170  -27.2620    4.3660 C.ar  241  PHE241     -0.0003
     58  CE2      -59.8610  -29.3210    5.4270 C.ar  241  PHE241     -0.0003
     59  CZ       -59.7900  -27.9320    5.3460 C.ar  241  PHE241     -0.0000
     60  N        -60.2810  -25.5240   -1.7770 N.3   245  THR245     -0.1218
     61  CA       -59.1660  -24.7570   -1.2490 C.3   245  THR245      0.1862
     62  C        -58.0470  -24.6820   -2.2710 C.2   245  THR245      0.2287
     63  O        -57.4440  -23.6230   -2.4580 O.2   245  THR245     -0.2866
     64  CB       -58.6340  -25.3570    0.0650 C.3   245  THR245      0.1770
     65  OG1      -58.3180  -26.7390   -0.1210 O.3   245  THR245     -0.2211
     66  CG2      -59.6400  -25.1960    1.2300 C.3   245  THR245      0.0375
     67  N        -56.3120  -21.5230   -4.0600 N.3   249  TYR249     -0.1241
     68  CA       -54.8830  -21.2270   -3.9930 C.3   249  TYR249      0.1605
     69  C        -54.2890  -21.0010   -5.3860 C.2   249  TYR249      0.2264
     70  O        -53.3980  -20.1700   -5.5560 O.2   249  TYR249     -0.2867
     71  CB       -54.1360  -22.3500   -3.2860 C.3   249  TYR249      0.0534
     72  CG       -54.5420  -22.5650   -1.8590 C.ar  249  TYR249     -0.0201
     73  CD1      -54.8630  -21.4970   -1.0260 C.ar  249  TYR249     -0.0009
     74  CD2      -54.6130  -23.8470   -1.3390 C.ar  249  TYR249     -0.0009
     75  CE1      -55.2350  -21.7090    0.2780 C.ar  249  TYR249      0.0417
     76  CE2      -54.9810  -24.0710   -0.0560 C.ar  249  TYR249      0.0417
     77  CZ       -55.2930  -23.0170    0.7500 C.ar  249  TYR249      0.1957
     78  OH       -55.6680  -23.2950    2.0270 O.3   249  TYR249     -0.2866
     79  N        -53.1150  -27.1820    6.0700 N.3   280  LEU280     -0.1245
     80  CA       -54.4760  -27.7030    6.0080 C.3   280  LEU280      0.1561
     81  C        -54.5080  -29.1350    6.5040 C.2   280  LEU280      0.2260
     82  O        -53.7680  -29.9830    5.9970 O.2   280  LEU280     -0.2867
     83  CB       -55.0170  -27.6730    4.5820 C.3   280  LEU280      0.0270
     84  CG       -55.7680  -26.4020    4.2720 C.3   280  LEU280      0.0019
     85  CD1      -54.7400  -25.3210    4.1620 C.3   280  LEU280      0.0001
     86  CD2      -56.5680  -26.5570    2.9990 C.3   280  LEU280      0.0001
     87  N        -51.0970  -19.8070   10.0740 N.3   305  GLU305     -0.1245
     88  CA       -52.3830  -20.3970   10.4110 C.3   305  GLU305      0.1567
     89  C        -52.3780  -21.8910   10.1260 C.2   305  GLU305      0.2260
     90  O        -51.6580  -22.3810    9.2400 O.2   305  GLU305     -0.2867
     91  CB       -53.5330  -19.7490    9.6400 C.3   305  GLU305      0.0388
     92  CG       -53.4130  -19.8800    8.1500 C.3   305  GLU305      0.1160
     93  CD       -54.6360  -19.3750    7.4030 C.2   305  GLU305      0.3649
     94  OE1      -54.8720  -19.8370    6.2600 O.co2 305  GLU305     -0.2457
     95  OE2      -55.3590  -18.5180    7.9520 O.co2 305  GLU305     -0.2457
     96  N        -55.5890  -24.5310    9.3160 N.3   307  ALA307     -0.1231
     97  CA       -56.9920  -24.4930    8.9550 C.3   307  ALA307      0.1694
     98  C        -57.5740  -25.8990    8.9750 C.2   307  ALA307      0.2593
     99  O        -56.8860  -26.8690    8.6410 O.2   307  ALA307     -0.2718
    100  CB       -57.1710  -23.8570    7.5770 C.3   307  ALA307      0.0304
    101  N        -58.8350  -25.9930    9.3960 N.am  308  SER308     -0.1938
    102  CA       -59.6500  -27.2150    9.3450 C.3   308  SER308      0.2055
    103  C        -61.0210  -26.7890    8.8390 C.2   308  SER308      0.2644
    104  O        -61.3110  -25.5910    8.8500 O.2   308  SER308     -0.2714
    105  CB       -59.7540  -27.8690   10.7260 C.3   308  SER308      0.2130
    106  OG       -60.3290  -26.9850   11.6680 O.3   308  SER308     -0.2179
    107  N        -61.8870  -27.6980    8.3920 N.am  309  GLY309     -0.1939
    108  CA       -61.7120  -29.1370    8.2920 C.3   309  GLY309      0.2014
    109  C        -63.1210  -29.6340    7.9950 C.2   309  GLY309      0.2639
    110  O        -64.0450  -28.8110    7.9300 O.2   309  GLY309     -0.2714
    111  N        -63.3030  -30.9410    7.7800 N.am  310  GLY310     -0.1954
    112  CA       -64.6440  -31.5110    7.7380 C.3   310  GLY310      0.1869
    113  C        -65.2580  -31.4220    9.1220 C.2   310  GLY310      0.2309
    114  O        -65.9940  -30.4730    9.4190 O.2   310  GLY310     -0.2863
    115  N        -57.9710  -21.7890   12.5730 N.3   331  ARG331     -0.1231
    116  CA       -58.8700  -21.1360   11.6310 C.3   331  ARG331      0.1694
    117  C        -59.7900  -22.1890   11.0440 C.2   331  ARG331      0.2592
    118  O        -59.4420  -22.8570   10.0690 O.2   331  ARG331     -0.2718
    119  CB       -58.1060  -20.4190   10.5320 C.3   331  ARG331      0.0321
    120  CG       -59.0280  -19.5720    9.7300 C.3   331  ARG331      0.0489
    121  CD       -58.3080  -18.4190    9.1450 C.3   331  ARG331      0.2205
    122  NE       -59.1930  -17.6220    8.3190 N.pl3 331  ARG331     -0.0865
    123  CZ       -58.8360  -17.1170    7.1470 C.cat 331  ARG331      0.5346
    124  NH1      -57.6220  -17.3670    6.6800 N.pl3 331  ARG331      0.1354
    125  NH2      -59.6850  -16.3790    6.4450 N.pl3 331  ARG331      0.1354
    126  N        -60.9720  -22.3190   11.6220 N.am  332  GLN332     -0.1966
    127  CA       -61.9060  -23.3410   11.1880 C.3   332  GLN332      0.1733
    128  C        -62.8230  -22.8200   10.0900 C.2   332  GLN332      0.2616
    129  O        -62.9770  -21.6180    9.8780 O.2   332  GLN332     -0.2715
    130  CB       -62.7510  -23.8390   12.3640 C.3   332  GLN332      0.0408
    131  CG       -61.9890  -24.6250   13.4020 C.3   332  GLN332      0.0908
    132  CD       -62.8680  -25.0230   14.5900 C.2   332  GLN332      0.2608
    133  OE1      -63.6390  -25.9830   14.5160 O.2   332  GLN332     -0.2717
    134  NE2      -62.7440  -24.2850   15.6940 N.am  332  GLN332     -0.0878
    135  N        -63.4430  -23.7600    9.3940 N.am  333  GLY333     -0.1955
    136  CA       -64.4950  -23.4320    8.4590 C.3   333  GLY333      0.1869
    137  C        -65.4020  -24.6330    8.3550 C.2   333  GLY333      0.2309
    138  O        -64.9890  -25.7670    8.6270 O.2   333  GLY333     -0.2863
    139  N        -68.6330  -26.4380    5.9530 N.3   335  GLY335     -0.1210
    140  CA       -69.4520  -26.5460    4.7620 C.3   335  GLY335      0.1956
    141  C        -69.7440  -28.0080    4.5160 C.2   335  GLY335      0.2612
    142  O        -69.2480  -28.8890    5.2190 O.2   335  GLY335     -0.2717
    143  N        -70.5620  -28.2590    3.5020 N.am  336  LEU336     -0.1965
    144  CA       -70.8980  -29.6100    3.0820 C.3   336  LEU336      0.1728
    145  C        -70.6160  -29.7390    1.5900 C.2   336  LEU336      0.2616
    146  O        -70.4400  -28.7450    0.8890 O.2   336  LEU336     -0.2715
    147  CB       -72.3690  -29.9360    3.3900 C.3   336  LEU336      0.0311
    148  CG       -72.7770  -29.5850    4.8330 C.3   336  LEU336      0.0022
    149  CD1      -74.2780  -29.7130    5.0480 C.3   336  LEU336      0.0001
    150  CD2      -71.9980  -30.4420    5.8390 C.3   336  LEU336      0.0001
    151  N        -70.5630  -30.9810    1.1100 N.am  337  THR337     -0.1951
    152  CA       -70.3960  -31.2010   -0.3240 C.3   337  THR337      0.1897
    153  C        -71.4350  -30.4120   -1.1000 C.2   337  THR337      0.2313
    154  O        -71.1320  -29.8200   -2.1480 O.2   337  THR337     -0.2863
    155  CB       -70.5160  -32.6880   -0.6610 C.3   337  THR337      0.1794
    156  OG1      -69.6470  -33.4440    0.1880 O.3   337  THR337     -0.2208
    157  CG2      -70.1260  -32.9410   -2.1170 C.3   337  THR337      0.0378
    158  N        -70.7790  -26.6150   -1.9360 N.3   340  THR340     -0.1203
    159  CA       -69.5100  -26.4380   -2.6480 C.3   340  THR340      0.1994
    160  C        -68.3240  -26.4120   -1.6950 C.2   340  THR340      0.2619
    161  O        -67.4690  -27.3080   -1.7410 O.2   340  THR340     -0.2717
    162  CB       -69.4910  -25.1630   -3.5030 C.3   340  THR340      0.1784
    163  OG1      -70.5840  -25.1930   -4.4230 O.3   340  THR340     -0.2211
    164  CG2      -68.1700  -25.0920   -4.3130 C.3   340  THR340      0.0376
    165  N        -68.2710  -25.3940   -0.8350 N.am  341  SER341     -0.1937
    166  CA       -67.1370  -25.1360    0.0450 C.3   341  SER341      0.2055
    167  C        -67.6630  -24.6250    1.3880 C.2   341  SER341      0.2642
    168  O        -68.8560  -24.7220    1.6890 O.2   341  SER341     -0.2714
    169  CB       -66.1810  -24.1390   -0.6170 C.3   341  SER341      0.2130
    170  OG       -65.1080  -23.8220    0.2380 O.3   341  SER341     -0.2179
    171  N        -66.7690  -24.0740    2.2060 N.am  342  ALA342     -0.1977
    172  CA       -67.1790  -23.5600    3.5030 C.3   342  ALA342      0.1597
    173  C        -68.0880  -22.3500    3.3260 C.2   342  ALA342      0.2287
    174  O        -67.7710  -21.4170    2.5790 O.2   342  ALA342     -0.2864
    175  CB       -65.9710  -23.1860    4.3560 C.3   342  ALA342      0.0319
    176  N        -66.8450  -19.3880    7.9340 N.3   345  ILE345     -0.1245
    177  CA       -65.3900  -19.2820    7.9280 C.3   345  ILE345      0.1561
    178  C        -64.9450  -18.3930    9.0820 C.2   345  ILE345      0.2260
    179  O        -65.4970  -17.3080    9.2860 O.2   345  ILE345     -0.2867
    180  CB       -64.8640  -18.7210    6.5870 C.3   345  ILE345      0.0252
    181  CG1      -65.1010  -19.7300    5.4630 C.3   345  ILE345      0.0019
    182  CG2      -63.3940  -18.4140    6.6820 C.3   345  ILE345      0.0019
    183  CD1      -64.5550  -19.3010    4.1220 C.3   345  ILE345      0.0001
@<TRIPOS>BOND
     1    70    69    2
     2    69    68    1
     3     1     2    1
     4   163   162    1
     5   164   162    1
     6    67    68    1
     7     3     2    1
     8     3     4    2
     9    68    71    1
    10     5     2    1
    11     5     6    1
    12   162   159    1
    13     6     7    1
    14    71    72    1
    15   159   158    1
    16   159   160    1
    17    35    36    1
    18    63    62    2
    19    62    61    1
    20   154   153    2
    21    38    37    2
    22   157   155    1
    23     7     8    1
    24    72    74   ar
    25    72    73   ar
    26    60    61    1
    27   161   160    2
    28    37    36    1
    29    37    45   am
    30   160   165   am
    31    36    39    1
    32    46    45    1
    33    46    47    1
    34     8     9    2
    35    74    76   ar
    36    61    64    1
    37    48    47    2
    38   153   152    1
    39    73    75   ar
    40   165   166    1
    41    47    49   am
    42   155   152    1
    43   155   156    1
    44   169   166    1
    45   169   170    1
    46   152   151    1
    47    39    40    1
    48     9    11    1
    49     9    10    1
    50    65    64    1
    51    76    77   ar
    52   166   167    1
    53    64    66    1
    54    30    29    2
    55    75    77   ar
    56    52    51    2
    57    49    50    1
    58    51    50    1
    59    77    78    1
    60    40    42   ar
    61    40    41   ar
    62   146   145    2
    63   151   145   am
    64    50    53    1
    65    42    44   ar
    66    29    28    1
    67    41    43   ar
    68   167   168    2
    69   167   171   am
    70   145   144    1
    71    31    28    1
    72    31    32    1
    73    27    28    1
    74    27    25   am
    75    34    32   am
    76   171   172    1
    77    44    43   ar
    78    53    54    1
    79   174   173    2
    80    24    25    1
    81    24    23    1
    82    32    33    2
    83    25    26    2
    84    86    84    1
    85   144   147    1
    86   144   143    1
    87    23    14   am
    88   173   172    1
    89   147   148    1
    90    55    54   ar
    91    55    57   ar
    92   143   141   am
    93   172   175    1
    94    54    56   ar
    95    15    14    2
    96    14    13    1
    97    16    13    1
    98    16    17    1
    99   183   181    1
   100    85    84    1
   101    84    83    1
   102    57    59   ar
   103   141   140    1
   104   141   142    2
   105    56    58   ar
   106    13    12    1
   107    83    80    1
   108   140   139    1
   109   148   149    1
   110   148   150    1
   111    17    18   ar
   112    17    19   ar
   113    18    20   ar
   114    59    58   ar
   115   181   180    1
   116    19    21   ar
   117    20    22   ar
   118    82    81    2
   119    80    79    1
   120    80    81    1
   121    94    93   ar
   122   125   123    1
   123    21    22   ar
   124   180   182    1
   125   180   177    1
   126   124   123    1
   127   123   122    2
   128    93    95   ar
   129    93    92    1
   130   100    97    1
   131   112   111    1
   132   112   113    1
   133   111   109   am
   134   177   176    1
   135   177   178    1
   136   110   109    2
   137   109   108    1
   138    92    91    1
   139   108   107    1
   140   122   121    1
   141   137   136    1
   142   137   138    2
   143   107   103   am
   144   136   135    1
   145    99    98    2
   146   103   104    2
   147   103   102    1
   148    97    98    1
   149    97    96    1
   150    98   101   am
   151   178   179    2
   152   113   114    2
   153   121   120    1
   154    90    89    2
   155   102   101    1
   156   102   105    1
   157   135   128   am
   158    91    88    1
   159   120   119    1
   160   129   128    2
   161   118   117    2
   162    87    88    1
   163   128   127    1
   164    89    88    1
   165   119   116    1
   166   105   106    1
   167   117   126   am
   168   117   116    1
   169   127   126    1
   170   127   130    1
   171   116   115    1
   172   130   131    1
   173   131   132    1
   174   133   132    2
   175   132   134   am
