@<TRIPOS>MOLECULE
tmp/5dwyB06.pdb
 74 66 0 0 0
SMALL
GASTEIGER

@<TRIPOS>ATOM
      1  N        -75.7350   25.1420   21.3060 N.3    86  VAL86      -0.1245
      2  CA       -75.7540   25.4230   22.7400 C.3    86  VAL86       0.1561
      3  C        -77.0770   26.0640   23.1470 C.2    86  VAL86       0.2260
      4  O        -77.7040   25.6570   24.1350 O.2    86  VAL86      -0.2867
      5  CB       -74.5500   26.2960   23.1370 C.3    86  VAL86       0.0252
      6  CG1      -74.7910   26.9370   24.4870 C.3    86  VAL86       0.0019
      7  CG2      -73.3080   25.4400   23.2220 C.3    86  VAL86       0.0019
      8  N        -65.3670   24.9380   37.6770 N.3   130  LEU130     -0.1245
      9  CA       -65.7110   25.2040   36.2790 C.3   130  LEU130      0.1561
     10  C        -64.4910   25.5550   35.4270 C.2   130  LEU130      0.2260
     11  O        -64.3960   25.1180   34.2720 O.2   130  LEU130     -0.2867
     12  CB       -66.7340   26.3370   36.2300 C.3   130  LEU130      0.0270
     13  CG       -67.1560   26.8720   34.8710 C.3   130  LEU130      0.0019
     14  CD1      -68.0340   25.8550   34.1420 C.3   130  LEU130      0.0001
     15  CD2      -67.8720   28.1880   35.0790 C.3   130  LEU130      0.0001
     16  N        -62.4780   22.5180   34.5080 N.3   133  THR133     -0.1203
     17  CA       -63.2590   21.7360   33.5590 C.3   133  THR133      0.1994
     18  C        -63.1140   22.2870   32.1400 C.2   133  THR133      0.2617
     19  O        -63.0320   21.5190   31.1700 O.2   133  THR133     -0.2717
     20  CB       -64.7100   21.7050   34.0210 C.3   133  THR133      0.1784
     21  OG1      -64.7550   21.0320   35.2840 O.3   133  THR133     -0.2211
     22  CG2      -65.5700   20.9510   33.0340 C.3   133  THR133      0.0376
     23  N        -63.0760   23.6170   32.0020 N.am  134  LEU134     -0.1979
     24  CA       -62.9110   24.2220   30.6860 C.3   134  LEU134      0.1596
     25  C        -61.4880   24.0220   30.1640 C.2   134  LEU134      0.2287
     26  O        -61.2900   23.5650   29.0270 O.2   134  LEU134     -0.2864
     27  CB       -63.2730   25.7040   30.7480 C.3   134  LEU134      0.0297
     28  CG       -64.7520   25.9590   31.0480 C.3   134  LEU134      0.0022
     29  CD1      -65.0350   27.4470   31.2140 C.3   134  LEU134      0.0001
     30  CD2      -65.6280   25.3650   29.9570 C.3   134  LEU134      0.0001
     31  N        -60.7250   20.9140   28.4330 N.3   137  ILE137     -0.1245
     32  CA       -61.2170   20.6640   27.0760 C.3   137  ILE137      0.1561
     33  C        -60.0510   20.5380   26.1150 C.2   137  ILE137      0.2260
     34  O        -60.0960   19.7370   25.1730 O.2   137  ILE137     -0.2867
     35  CB       -62.1960   21.7670   26.6320 C.3   137  ILE137      0.0252
     36  CG1      -63.4650   21.7500   27.4880 C.3   137  ILE137      0.0019
     37  CG2      -62.4990   21.6610   25.1770 C.3   137  ILE137      0.0019
     38  CD1      -64.5320   22.6860   26.9670 C.3   137  ILE137      0.0001
     39  N        -64.4460   14.7930   24.5870 N.3   152  LEU152     -0.1245
     40  CA       -64.4400   16.2490   24.4660 C.3   152  LEU152      0.1561
     41  C        -63.0930   16.8290   24.0070 C.2   152  LEU152      0.2260
     42  O        -63.1050   17.7380   23.1610 O.2   152  LEU152     -0.2867
     43  CB       -64.9380   16.8500   25.7840 C.3   152  LEU152      0.0270
     44  CG       -65.7580   18.1220   25.6390 C.3   152  LEU152      0.0019
     45  CD1      -66.6850   17.9940   24.4790 C.3   152  LEU152      0.0001
     46  CD2      -66.5680   18.2660   26.9060 C.3   152  LEU152      0.0001
     47  N        -70.7710   16.6880   20.5940 N.3   306  LEU306     -0.1245
     48  CA       -70.9110   17.7020   21.6300 C.3   306  LEU306      0.1561
     49  C        -72.1660   17.4450   22.4410 C.2   306  LEU306      0.2260
     50  O        -72.1370   17.5010   23.6740 O.2   306  LEU306     -0.2867
     51  CB       -70.9190   19.1040   21.0070 C.3   306  LEU306      0.0270
     52  CG       -71.0570   20.2340   22.0140 C.3   306  LEU306      0.0019
     53  CD1      -69.8740   20.2400   22.9570 C.3   306  LEU306      0.0001
     54  CD2      -71.1340   21.5510   21.3000 C.3   306  LEU306      0.0001
     55  N        -73.0390   17.4230   26.4830 N.3   310  ILE310     -0.1245
     56  CA       -73.6740   18.5810   27.1300 C.3   310  ILE310      0.1561
     57  C        -75.1840   18.4740   27.2690 C.2   310  ILE310      0.2260
     58  O        -75.7730   19.3580   27.9030 O.2   310  ILE310     -0.2867
     59  CB       -73.3060   19.9190   26.4570 C.3   310  ILE310      0.0252
     60  CG1      -73.8180   19.9890   25.0250 C.3   310  ILE310      0.0019
     61  CG2      -71.8220   20.1740   26.5400 C.3   310  ILE310      0.0019
     62  CD1      -73.7310   21.3820   24.4560 C.3   310  ILE310      0.0001
     63  N        -73.0240   18.9940   33.6560 N.3   351  ILE351     -0.1231
     64  CA       -72.5560   19.4100   32.3370 C.3   351  ILE351      0.1692
     65  C        -71.1240   18.9380   32.1060 C.2   351  ILE351      0.2592
     66  O        -70.2790   18.9770   33.0120 O.2   351  ILE351     -0.2718
     67  CB       -72.6250   20.9360   32.1880 C.3   351  ILE351      0.0266
     68  CG1      -74.0430   21.4440   32.4190 C.3   351  ILE351      0.0019
     69  CG2      -72.1900   21.3260   30.8000 C.3   351  ILE351      0.0020
     70  CD1      -74.3010   22.8240   31.8220 C.3   351  ILE351      0.0001
     71  N        -70.8410   18.4940   30.8820 N.am  352  GLY352     -0.1957
     72  CA       -69.5250   18.0380   30.4870 C.3   352  GLY352      0.1869
     73  C        -69.2890   16.5510   30.6450 C.2   352  GLY352      0.2309
     74  O        -68.4320   15.9930   29.9480 O.2   352  GLY352     -0.2863
@<TRIPOS>BOND
     1    47    48    1
     2    51    48    1
     3    51    52    1
     4    54    52    1
     5     1     2    1
     6    48    49    1
     7    52    53    1
     8    49    50    2
     9     2     5    1
    10     2     3    1
    11     5     7    1
    12     5     6    1
    13     3     4    2
    14    42    41    2
    15    41    40    1
    16    62    60    1
    17    40    39    1
    18    40    43    1
    19    45    44    1
    20    60    59    1
    21    34    33    2
    22    37    35    1
    23    44    43    1
    24    44    46    1
    25    33    32    1
    26    59    61    1
    27    59    56    1
    28    55    56    1
    29    35    32    1
    30    35    36    1
    31    38    36    1
    32    32    31    1
    33    56    57    1
    34    57    58    2
    35    26    25    2
    36    74    73    2
    37    30    28    1
    38    25    24    1
    39    72    73    1
    40    72    71    1
    41    24    27    1
    42    24    23    1
    43    27    28    1
    44    69    67    1
    45    71    65   am
    46    28    29    1
    47    19    18    2
    48    70    68    1
    49    23    18   am
    50    65    64    1
    51    65    66    2
    52    18    17    1
    53    67    64    1
    54    67    68    1
    55    64    63    1
    56    22    20    1
    57    17    20    1
    58    17    16    1
    59    20    21    1
    60    14    13    1
    61    11    10    2
    62    13    15    1
    63    13    12    1
    64    10     9    1
    65    12     9    1
    66     9     8    1
