@<TRIPOS>MOLECULE
tmp/5dwyB01.pdb
 85 81 0 0 0
SMALL
GASTEIGER

@<TRIPOS>ATOM
      1  N        -62.4780   22.5180   34.5080 N.3   133  THR133     -0.1218
      2  CA       -63.2590   21.7360   33.5590 C.3   133  THR133      0.1862
      3  C        -63.1140   22.2870   32.1400 C.2   133  THR133      0.2287
      4  O        -63.0320   21.5190   31.1700 O.2   133  THR133     -0.2866
      5  CB       -64.7100   21.7050   34.0210 C.3   133  THR133      0.1770
      6  OG1      -64.7550   21.0320   35.2840 O.3   133  THR133     -0.2211
      7  CG2      -65.5700   20.9510   33.0340 C.3   133  THR133      0.0375
      8  N        -59.5170   21.6950   30.7960 N.3   136  ASN136     -0.1225
      9  CA       -59.4000   20.2890   30.4180 C.3   136  ASN136      0.1785
     10  C        -60.0050   19.9740   29.0560 C.2   136  ASN136      0.2597
     11  O        -59.8380   18.8410   28.5790 O.2   136  ASN136     -0.2718
     12  CB       -60.1050   19.4010   31.4360 C.3   136  ASN136      0.1169
     13  CG       -59.3730   19.3100   32.7230 C.2   136  ASN136      0.2627
     14  OD1      -58.2940   19.8850   32.8970 O.2   136  ASN136     -0.2716
     15  ND2      -59.9760   18.6190   33.6700 N.am  136  ASN136     -0.0877
     16  N        -60.7250   20.9140   28.4330 N.am  137  ILE137     -0.1980
     17  CA       -61.2170   20.6640   27.0760 C.3   137  ILE137      0.1595
     18  C        -60.0510   20.5380   26.1150 C.2   137  ILE137      0.2287
     19  O        -60.0960   19.7370   25.1730 O.2   137  ILE137     -0.2864
     20  CB       -62.1960   21.7670   26.6320 C.3   137  ILE137      0.0276
     21  CG1      -63.4650   21.7500   27.4880 C.3   137  ILE137      0.0022
     22  CG2      -62.4990   21.6610   25.1770 C.3   137  ILE137      0.0022
     23  CD1      -64.5320   22.6860   26.9670 C.3   137  ILE137      0.0001
     24  N        -61.1960    9.9460   25.4930 N.3   150  GLU150     -0.1231
     25  CA       -61.7960   11.1700   26.0060 C.3   150  GLU150      0.1699
     26  C        -62.4210   11.9210   24.8280 C.2   150  GLU150      0.2592
     27  O        -61.7120   12.4130   23.9460 O.2   150  GLU150     -0.2718
     28  CB       -60.7420   12.0170   26.7180 C.3   150  GLU150      0.0402
     29  CG       -60.0230   11.3040   27.8730 C.3   150  GLU150      0.1161
     30  CD       -58.8240   12.0950   28.4270 C.2   150  GLU150      0.3649
     31  OE1      -58.4890   13.1740   27.8780 O.co2 150  GLU150     -0.2457
     32  OE2      -58.1900   11.6100   29.3940 O.co2 150  GLU150     -0.2457
     33  N        -63.7480   12.0220   24.8120 N.am  151  VAL151     -0.1966
     34  CA       -64.4290   12.5490   23.6320 C.3   151  VAL151      0.1727
     35  C        -64.2300   14.0520   23.5050 C.2   151  VAL151      0.2616
     36  O        -63.9180   14.5610   22.4200 O.2   151  VAL151     -0.2715
     37  CB       -65.9230   12.1900   23.6510 C.3   151  VAL151      0.0290
     38  CG1      -66.6580   12.9600   22.5740 C.3   151  VAL151      0.0023
     39  CG2      -66.0880   10.7440   23.3810 C.3   151  VAL151      0.0023
     40  N        -64.4460   14.7930   24.5870 N.am  152  LEU152     -0.1964
     41  CA       -64.4400   16.2490   24.4660 C.3   152  LEU152      0.1713
     42  C        -63.0930   16.8290   24.0070 C.2   152  LEU152      0.2458
     43  O        -63.1050   17.7380   23.1610 O.2   152  LEU152     -0.2730
     44  CB       -64.9380   16.8500   25.7840 C.3   152  LEU152      0.0310
     45  CG       -65.7580   18.1220   25.6390 C.3   152  LEU152      0.0022
     46  CD1      -66.6850   17.9940   24.4790 C.3   152  LEU152      0.0001
     47  CD2      -66.5680   18.2660   26.9060 C.3   152  LEU152      0.0001
     48  N        -61.9310   16.3740   24.4880 N.am  153  PRO153     -0.2727
     49  CA       -60.6730   16.8760   23.9100 C.3   153  PRO153      0.1402
     50  C        -60.4280   16.3920   22.4950 C.2   153  PRO153      0.2269
     51  O        -59.6830   17.0440   21.7470 O.2   153  PRO153     -0.2865
     52  CB       -59.6030   16.3330   24.8650 C.3   153  PRO153      0.0296
     53  CG       -60.3370   15.9390   26.0760 C.3   153  PRO153      0.0237
     54  CD       -61.6680   15.4740   25.6120 C.3   153  PRO153      0.0939
     55  N        -72.0880   14.9160   25.2800 N.3   309  THR309     -0.1218
     56  CA       -71.6060   15.3650   26.5820 C.3   309  THR309      0.1862
     57  C        -72.3470   16.5460   27.2250 C.2   309  THR309      0.2287
     58  O        -72.2850   16.6750   28.4490 O.2   309  THR309     -0.2866
     59  CB       -70.1380   15.7680   26.4480 C.3   309  THR309      0.1770
     60  OG1      -70.0630   17.1270   25.9860 O.3   309  THR309     -0.2211
     61  CG2      -69.4700   14.8800   25.3790 C.3   309  THR309      0.0375
     62  N        -73.0240   18.9940   33.6560 N.3   351  ILE351     -0.1231
     63  CA       -72.5560   19.4100   32.3370 C.3   351  ILE351      0.1692
     64  C        -71.1240   18.9380   32.1060 C.2   351  ILE351      0.2593
     65  O        -70.2790   18.9770   33.0120 O.2   351  ILE351     -0.2718
     66  CB       -72.6250   20.9360   32.1880 C.3   351  ILE351      0.0266
     67  CG1      -74.0430   21.4440   32.4190 C.3   351  ILE351      0.0019
     68  CG2      -72.1900   21.3260   30.8000 C.3   351  ILE351      0.0020
     69  CD1      -74.3010   22.8240   31.8220 C.3   351  ILE351      0.0001
     70  N        -70.8410   18.4940   30.8820 N.am  352  GLY352     -0.1942
     71  CA       -69.5250   18.0380   30.4870 C.3   352  GLY352      0.2014
     72  C        -69.2890   16.5510   30.6450 C.2   352  GLY352      0.2640
     73  O        -68.4320   15.9930   29.9480 O.2   352  GLY352     -0.2714
     74  N        -70.0280   15.8940   31.5360 N.am  353  THR353     -0.1936
     75  CA       -69.9150   14.4530   31.6850 C.3   353  THR353      0.2028
     76  C        -70.6720   13.8210   30.5240 C.2   353  THR353      0.2642
     77  O        -71.8470   14.1410   30.3080 O.2   353  THR353     -0.2714
     78  CB       -70.4900   13.9930   33.0300 C.3   353  THR353      0.1808
     79  OG1      -69.9690   14.8050   34.0870 O.3   353  THR353     -0.2208
     80  CG2      -70.1060   12.5470   33.3090 C.3   353  THR353      0.0379
     81  N        -70.0170   12.9310   29.7740 N.am  354  ALA354     -0.1977
     82  CA       -70.7280   12.3120   28.6660 C.3   354  ALA354      0.1597
     83  C        -71.7340   11.2830   29.1840 C.2   354  ALA354      0.2287
     84  O        -71.7620   10.9330   30.3700 O.2   354  ALA354     -0.2864
     85  CB       -69.7440   11.6610   27.6940 C.3   354  ALA354      0.0319
@<TRIPOS>BOND
     1    51    50    2
     2    36    35    2
     3    50    49    1
     4    38    37    1
     5    43    42    2
     6    39    37    1
     7    35    34    1
     8    35    40   am
     9    34    37    1
    10    34    33    1
    11    49    48    1
    12    49    52    1
    13    27    26    2
    14    42    41    1
    15    42    48   am
    16    41    40    1
    17    41    44    1
    18    46    45    1
    19    48    54    1
    20    33    26   am
    21    26    25    1
    22    52    53    1
    23    19    18    2
    24    22    20    1
    25    55    56    1
    26    61    59    1
    27    24    25    1
    28    54    53    1
    29    45    44    1
    30    45    47    1
    31    60    59    1
    32    25    28    1
    33    18    17    1
    34    59    56    1
    35    56    57    1
    36    20    17    1
    37    20    21    1
    38    28    29    1
    39    23    21    1
    40    17    16    1
    41    57    58    2
    42    85    82    1
    43    29    30    1
    44    31    30   ar
    45    30    32   ar
    46    16    10   am
    47    11    10    2
    48    82    83    1
    49    82    81    1
    50    10     9    1
    51    83    84    2
    52    81    76   am
    53    73    72    2
    54    77    76    2
    55     9     8    1
    56     9    12    1
    57    71    72    1
    58    71    70    1
    59    76    75    1
    60    72    74   am
    61    68    66    1
    62    70    64   am
    63     4     3    2
    64    12    13    1
    65    74    75    1
    66    75    78    1
    67    69    67    1
    68    64    63    1
    69    64    65    2
    70     3     2    1
    71    66    63    1
    72    66    67    1
    73    63    62    1
    74    13    14    2
    75    13    15   am
    76    78    80    1
    77    78    79    1
    78     7     5    1
    79     2     5    1
    80     2     1    1
    81     5     6    1
