@<TRIPOS>MOLECULE
tmp/5dwyB00.pdb
 66 59 0 0 0
SMALL
GASTEIGER

@<TRIPOS>ATOM
      1  N        -68.8270    0.4900   20.6860 N.3    55  LYS55      -0.1245
      2  CA       -67.7950    1.2670   21.3710 C.3    55  LYS55       0.1561
      3  C        -66.5350    1.3240   20.5340 C.2    55  LYS55       0.2260
      4  O        -65.8990    2.3780   20.4260 O.2    55  LYS55      -0.2867
      5  CB       -67.4820    0.6680   22.7390 C.3    55  LYS55       0.0271
      6  CG       -68.4270    1.0670   23.8560 C.3    55  LYS55       0.0035
      7  CD       -68.0730    0.2950   25.1170 C.3    55  LYS55       0.0206
      8  CE       -69.0120    0.6800   26.2340 C.3    55  LYS55       0.1093
      9  NZ       -68.8230   -0.1560   27.4350 N.3    55  LYS55      -0.1314
     10  N        -66.4000    4.4370   18.2890 N.3    58  VAL58      -0.1231
     11  CA       -66.6500    5.8100   18.7470 C.3    58  VAL58       0.1692
     12  C        -65.4570    6.7220   18.4610 C.2    58  VAL58       0.2591
     13  O        -65.6170    7.7820   17.8510 O.2    58  VAL58      -0.2718
     14  CB       -67.0340    5.8480   20.2380 C.3    58  VAL58       0.0266
     15  CG1      -67.2080    7.2790   20.6850 C.3    58  VAL58       0.0020
     16  CG2      -68.3020    5.0660   20.4700 C.3    58  VAL58       0.0020
     17  N        -64.2490    6.3580   18.9210 N.am   59  MET59      -0.1979
     18  CA       -63.1290    7.2840   18.7080 C.3    59  MET59       0.1605
     19  C        -62.7650    7.4180   17.2430 C.2    59  MET59       0.2287
     20  O        -62.5970    8.5610   16.7750 O.2    59  MET59      -0.2864
     21  CB       -61.9060    6.8870   19.5550 C.3    59  MET59       0.0413
     22  CG       -61.8810    7.2660   21.0530 C.3    59  MET59       0.0598
     23  SD       -62.0930    8.9750   21.3980 S.3    59  MET59      -0.1393
     24  CE       -63.7100    8.8300   22.0250 C.3    59  MET59       0.0692
     25  N        -57.1180    7.0710   25.6870 N.3   148  LYS148     -0.1231
     26  CA       -57.9780    7.0760   26.8680 C.3   148  LYS148      0.1693
     27  C        -59.4420    7.2670   26.5230 C.2   148  LYS148      0.2592
     28  O        -60.2830    7.2620   27.4280 O.2   148  LYS148     -0.2718
     29  CB       -57.5720    8.1690   27.8580 C.3   148  LYS148      0.0285
     30  CG       -56.2200    8.0000   28.4350 C.3   148  LYS148      0.0035
     31  CD       -55.9200    9.1230   29.4050 C.3   148  LYS148      0.0206
     32  CE       -54.4270    9.1330   29.6990 C.3   148  LYS148      0.1093
     33  NZ       -54.0930    9.9400   30.8940 N.3   148  LYS148     -0.1314
     34  N        -59.7610    7.4640   25.2510 N.am  149  GLY149     -0.1957
     35  CA       -61.1550    7.5940   24.8750 C.3   149  GLY149      0.1869
     36  C        -61.8780    8.8140   25.3970 C.2   149  GLY149      0.2309
     37  O        -63.0810    8.7410   25.6570 O.2   149  GLY149     -0.2863
     38  N        -63.7480   12.0220   24.8120 N.3   151  VAL151     -0.1245
     39  CA       -64.4290   12.5490   23.6320 C.3   151  VAL151      0.1561
     40  C        -64.2300   14.0520   23.5050 C.2   151  VAL151      0.2260
     41  O        -63.9180   14.5610   22.4200 O.2   151  VAL151     -0.2867
     42  CB       -65.9230   12.1900   23.6510 C.3   151  VAL151      0.0252
     43  CG1      -66.6580   12.9600   22.5740 C.3   151  VAL151      0.0019
     44  CG2      -66.0880   10.7440   23.3810 C.3   151  VAL151      0.0019
     45  N        -72.4260    8.2340   24.2520 N.3   279  SER279     -0.1202
     46  CA       -71.1750    8.0610   23.5200 C.3   279  SER279      0.2020
     47  C        -71.2130    6.7860   22.7020 C.2   279  SER279      0.2619
     48  O        -70.8300    6.7790   21.5330 O.2   279  SER279     -0.2717
     49  CB       -69.9880    7.9770   24.4880 C.3   279  SER279      0.2103
     50  OG       -70.1320    8.8400   25.5830 O.3   279  SER279     -0.2182
     51  N        -71.6740    5.6900   23.3140 N.am  280  GLY280     -0.1956
     52  CA       -71.6990    4.3840   22.6760 C.3   280  GLY280      0.1869
     53  C        -72.7010    4.2450   21.5540 C.2   280  GLY280      0.2309
     54  O        -72.5460    3.3610   20.7040 O.2   280  GLY280     -0.2863
     55  N        -70.0170   12.9310   29.7740 N.3   354  ALA354     -0.1245
     56  CA       -70.7280   12.3120   28.6660 C.3   354  ALA354      0.1562
     57  C        -71.7340   11.2830   29.1840 C.2   354  ALA354      0.2260
     58  O        -71.7620   10.9330   30.3700 O.2   354  ALA354     -0.2867
     59  CB       -69.7440   11.6610   27.6940 C.3   354  ALA354      0.0290
     60  N        -73.1360    8.0500   30.2760 N.3   356  VAL356     -0.1245
     61  CA       -72.5100    6.8190   30.7450 C.3   356  VAL356      0.1561
     62  C        -73.5210    6.0900   31.6230 C.2   356  VAL356      0.2260
     63  O        -74.2660    6.7440   32.3700 O.2   356  VAL356     -0.2867
     64  CB       -71.1920    7.1240   31.4760 C.3   356  VAL356      0.0252
     65  CG1      -71.4340    8.0790   32.6280 C.3   356  VAL356      0.0019
     66  CG2      -70.4840    5.8470   31.9350 C.3   356  VAL356      0.0019
@<TRIPOS>BOND
     1    20    19    2
     2    19    18    1
     3    13    12    2
     4    10    11    1
     5    12    11    1
     6    12    17   am
     7    18    17    1
     8    18    21    1
     9    11    14    1
    10    21    22    1
    11    14    16    1
    12    14    15    1
    13     4     3    2
    14     3     2    1
    15     1     2    1
    16    54    53    2
    17    22    23    1
    18     2     5    1
    19    23    24    1
    20    48    47    2
    21    53    52    1
    22    41    40    2
    23    43    42    1
    24    52    51    1
    25    47    51   am
    26    47    46    1
    27     5     6    1
    28    44    42    1
    29    40    39    1
    30    46    45    1
    31    46    49    1
    32    39    42    1
    33    39    38    1
    34     6     7    1
    35    49    50    1
    36    35    34    1
    37    35    36    1
    38     7     8    1
    39    34    27   am
    40    36    37    2
    41    25    26    1
    42     8     9    1
    43    27    26    1
    44    27    28    2
    45    26    29    1
    46    59    56    1
    47    29    30    1
    48    30    31    1
    49    56    57    1
    50    56    55    1
    51    57    58    2
    52    31    32    1
    53    32    33    1
    54    60    61    1
    55    61    64    1
    56    61    62    1
    57    64    66    1
    58    64    65    1
    59    62    63    2
