@<TRIPOS>MOLECULE
tmp/5dwyB03.pdb
 93 88 0 0 0
SMALL
GASTEIGER

@<TRIPOS>ATOM
      1  N        -88.2490   -2.6050   10.3680 N.3    14  TRP14      -0.1241
      2  CA       -88.7690   -2.7070   11.7260 C.3    14  TRP14       0.1605
      3  C        -88.0660   -3.7470   12.5910 C.2    14  TRP14       0.2264
      4  O        -88.4540   -3.9200   13.7530 O.2    14  TRP14      -0.2867
      5  CB       -90.2740   -2.9660   11.6860 C.3    14  TRP14       0.0550
      6  CG       -90.9700   -1.7690   11.1360 C.ar   14  TRP14       0.0003
      7  CD1      -91.6380   -1.6740    9.9510 C.ar   14  TRP14       0.0946
      8  CD2      -91.0030   -0.4590   11.7270 C.ar   14  TRP14       0.0152
      9  NE1      -92.1150   -0.3920    9.7830 N.ar   14  TRP14      -0.2442
     10  CE2      -91.7400    0.3720   10.8590 C.ar   14  TRP14       0.0810
     11  CE3      -90.4930    0.0860   12.9160 C.ar   14  TRP14       0.0012
     12  CZ2      -91.9840    1.7210   11.1410 C.ar   14  TRP14       0.0191
     13  CZ3      -90.7370    1.4220   13.1950 C.ar   14  TRP14       0.0001
     14  CH2      -91.4720    2.2250   12.3080 C.ar   14  TRP14       0.0015
     15  N        -86.9640   -2.9830   16.0500 N.3    17  LEU17      -0.1245
     16  CA       -88.0730   -2.6970   16.9540 C.3    17  LEU17       0.1561
     17  C        -88.7420   -3.9810   17.4300 C.2    17  LEU17       0.2260
     18  O        -89.2780   -4.0270   18.5420 O.2    17  LEU17      -0.2867
     19  CB       -89.0990   -1.8030   16.2590 C.3    17  LEU17       0.0270
     20  CG       -90.2370   -1.2880   17.1390 C.3    17  LEU17       0.0019
     21  CD1      -89.6360   -0.5280   18.3190 C.3    17  LEU17       0.0001
     22  CD2      -91.2170   -0.4270   16.3640 C.3    17  LEU17       0.0001
     23  N        -86.5550   -5.1910   20.2100 N.3    20  LEU20      -0.1245
     24  CA       -86.9130   -4.4890   21.4360 C.3    20  LEU20       0.1561
     25  C        -88.1690   -5.0870   22.0730 C.2    20  LEU20       0.2260
     26  O        -88.1630   -5.4620   23.2510 O.2    20  LEU20      -0.2867
     27  CB       -87.0990   -3.0020   21.1490 C.3    20  LEU20       0.0270
     28  CG       -87.2670   -2.2060   22.4340 C.3    20  LEU20       0.0019
     29  CD1      -85.9940   -2.3620   23.2950 C.3    20  LEU20       0.0001
     30  CD2      -87.6020   -0.7410   22.1680 C.3    20  LEU20       0.0001
     31  N        -89.1610   10.8880   13.7420 N.3   262  ILE262     -0.1231
     32  CA       -89.1380    9.7320   14.6400 C.3   262  ILE262      0.1692
     33  C        -88.8790    8.4420   13.8660 C.2   262  ILE262      0.2591
     34  O        -88.0590    7.6120   14.2800 O.2   262  ILE262     -0.2718
     35  CB       -90.4470    9.6480   15.4440 C.3   262  ILE262      0.0266
     36  CG1      -90.5250   10.7590   16.4790 C.3   262  ILE262      0.0019
     37  CG2      -90.4920    8.3480   16.2110 C.3   262  ILE262      0.0020
     38  CD1      -89.4690   10.6260   17.5400 C.3   262  ILE262      0.0001
     39  N        -89.5580    8.2520   12.7260 N.am  263  ARG263     -0.1980
     40  CA       -89.3160    7.0460   11.9380 C.3   263  ARG263      0.1597
     41  C        -87.8460    6.9240   11.5780 C.2   263  ARG263      0.2287
     42  O        -87.2870    5.8210   11.5670 O.2   263  ARG263     -0.2864
     43  CB       -90.1460    7.0570   10.6590 C.3   263  ARG263      0.0334
     44  CG       -91.5850    6.6530   10.8220 C.3   263  ARG263      0.0492
     45  CD       -92.3410    6.9150    9.5390 C.3   263  ARG263      0.2205
     46  NE       -93.7760    6.7740    9.7340 N.pl3 263  ARG263     -0.0865
     47  CZ       -94.4510    5.6540    9.5040 C.cat 263  ARG263      0.5346
     48  NH1      -93.8140    4.5690    9.0810 N.pl3 263  ARG263      0.1354
     49  NH2      -95.7630    5.6140    9.7070 N.pl3 263  ARG263      0.1354
     50  N        -85.4680    6.1190   14.8220 N.3   266  LYS266     -0.1245
     51  CA       -85.8110    4.9850   15.6790 C.3   266  LYS266      0.1561
     52  C        -84.6050    4.0980   15.9820 C.2   266  LYS266      0.2260
     53  O        -84.4810    3.5660   17.0920 O.2   266  LYS266     -0.2867
     54  CB       -86.9400    4.1720   15.0350 C.3   266  LYS266      0.0271
     55  CG       -86.4830    3.4150   13.8120 C.3   266  LYS266      0.0035
     56  CD       -87.5000    2.4430   13.2830 C.3   266  LYS266      0.0206
     57  CE       -87.2170    2.1350   11.8120 C.3   266  LYS266      0.1093
     58  NZ       -85.8140    1.6590   11.5630 N.3   266  LYS266     -0.1314
     59  N        -82.6080    5.7880   18.6300 N.3   269  MET269     -0.1230
     60  CA       -83.3370    5.8400   19.8930 C.3   269  MET269      0.1702
     61  C        -83.3140    4.4880   20.5960 C.2   269  MET269      0.2592
     62  O        -83.0160    4.4010   21.7960 O.2   269  MET269     -0.2718
     63  CB       -84.7680    6.2820   19.6350 C.3   269  MET269      0.0401
     64  CG       -84.8680    7.6700   19.0680 C.3   269  MET269      0.0596
     65  SD       -86.5650    7.9700   18.5610 S.3   269  MET269     -0.1393
     66  CE       -87.3540    7.9200   20.1680 C.3   269  MET269      0.0692
     67  N        -83.6080    3.4170   19.8600 N.am  270  ILE270     -0.1980
     68  CA       -83.6110    2.0910   20.4660 C.3   270  ILE270      0.1595
     69  C        -82.2150    1.7360   20.9410 C.2   270  ILE270      0.2287
     70  O        -82.0310    1.2360   22.0540 O.2   270  ILE270     -0.2864
     71  CB       -84.1260    1.0560   19.4570 C.3   270  ILE270      0.0276
     72  CG1      -85.5990    1.2900   19.1490 C.3   270  ILE270      0.0022
     73  CG2      -83.8170   -0.3430   19.9410 C.3   270  ILE270      0.0022
     74  CD1      -86.0130    0.6300   17.8910 C.3   270  ILE270      0.0001
     75  N        -81.5960    3.5400   23.9200 N.3   273  PHE273     -0.1241
     76  CA       -82.3940    2.9280   24.9730 C.3   273  PHE273      0.1605
     77  C        -81.6580    1.7710   25.6400 C.2   273  PHE273      0.2264
     78  O        -81.4380    1.7840   26.8510 O.2   273  PHE273     -0.2867
     79  CB       -83.7300    2.4640   24.3950 C.3   273  PHE273      0.0534
     80  CG       -84.7780    2.1600   25.4410 C.ar  273  PHE273     -0.0203
     81  CD1      -85.3760    3.1880   26.1600 C.ar  273  PHE273     -0.0042
     82  CD2      -85.2020    0.8590   25.6660 C.ar  273  PHE273     -0.0042
     83  CE1      -86.3410    2.9210   27.1090 C.ar  273  PHE273     -0.0003
     84  CE2      -86.1720    0.5910   26.6110 C.ar  273  PHE273     -0.0003
     85  CZ       -86.7420    1.6240   27.3360 C.ar  273  PHE273     -0.0000
     86  N        -82.2870    7.5020   26.0110 N.3   401  MET401     -0.1245
     87  CA       -83.0510    7.5420   24.7690 C.3   401  MET401      0.1570
     88  C        -83.5850    8.9420   24.4830 C.2   401  MET401      0.2261
     89  O        -83.5480    9.4010   23.3340 O.2   401  MET401     -0.2867
     90  CB       -84.1810    6.5120   24.8490 C.3   401  MET401      0.0387
     91  CG       -84.9520    6.2780   23.5740 C.3   401  MET401      0.0595
     92  SD       -86.4590    7.2480   23.6410 S.3   401  MET401     -0.1393
     93  CE       -86.9640    6.9990   25.3380 C.3   401  MET401      0.0692
@<TRIPOS>BOND
     1    48    47    1
     2    47    49    1
     3    47    46    2
     4    45    46    1
     5    45    44    1
     6     9     7   ar
     7     9    10   ar
     8     7     6   ar
     9     1     2    1
    10    43    44    1
    11    43    40    1
    12    10    12   ar
    13    10     8   ar
    14     6     5    1
    15     6     8   ar
    16    12    14   ar
    17    58    57    1
    18    42    41    2
    19    41    40    1
    20     5     2    1
    21     2     3    1
    22     8    11   ar
    23    57    56    1
    24    40    39    1
    25    14    13   ar
    26     3     4    2
    27    39    33   am
    28    11    13   ar
    29    56    55    1
    30    31    32    1
    31    55    54    1
    32    33    34    2
    33    33    32    1
    34    32    35    1
    35    50    51    1
    36    54    51    1
    37    35    37    1
    38    35    36    1
    39    51    52    1
    40    52    53    2
    41    15    16    1
    42    19    16    1
    43    19    20    1
    44    22    20    1
    45    36    38    1
    46    16    17    1
    47    20    21    1
    48    17    18    2
    49    74    72    1
    50    65    64    1
    51    65    66    1
    52    59    60    1
    53    64    63    1
    54    72    71    1
    55    71    73    1
    56    71    68    1
    57    63    60    1
    58    67    68    1
    59    67    61   am
    60    60    61    1
    61    23    24    1
    62    68    69    1
    63    61    62    2
    64    69    70    2
    65    27    24    1
    66    27    28    1
    67    24    25    1
    68    25    26    2
    69    30    28    1
    70    28    29    1
    71    89    88    2
    72    91    92    1
    73    91    90    1
    74    92    93    1
    75    75    76    1
    76    79    76    1
    77    79    80    1
    78    88    87    1
    79    87    90    1
    80    87    86    1
    81    76    77    1
    82    80    82   ar
    83    80    81   ar
    84    77    78    2
    85    82    84   ar
    86    81    83   ar
    87    84    85   ar
    88    83    85   ar
