@<TRIPOS>MOLECULE
tmp/5dwyA01.pdb
 94 88 0 0 0
SMALL
GASTEIGER

@<TRIPOS>ATOM
      1  N        -62.3160  -19.0880    5.5680 N.3    78  ARG78      -0.1245
      2  CA       -61.8260  -20.4510    5.4040 C.3    78  ARG78       0.1563
      3  C        -60.4080  -20.5800    5.9380 C.2    78  ARG78       0.2260
      4  O        -60.0700  -21.5800    6.5850 O.2    78  ARG78      -0.2867
      5  CB       -61.8400  -20.8910    3.9420 C.3    78  ARG78       0.0307
      6  CG       -63.1840  -20.9420    3.2750 C.3    78  ARG78       0.0489
      7  CD       -63.0930  -21.9590    2.1630 C.3    78  ARG78       0.2205
      8  NE       -61.9490  -21.7120    1.2940 N.pl3  78  ARG78      -0.0865
      9  CZ       -61.9250  -20.8370    0.2980 C.cat  78  ARG78       0.5346
     10  NH1      -62.9940  -20.0960    0.0260 N.pl3  78  ARG78       0.1354
     11  NH2      -60.8230  -20.7060   -0.4280 N.pl3  78  ARG78       0.1354
     12  N        -59.2800  -23.2220    8.6400 N.3    82  LYS82      -0.1245
     13  CA       -58.1840  -24.1280    8.3100 C.3    82  LYS82       0.1561
     14  C        -57.0750  -24.0490    9.3600 C.2    82  LYS82       0.2260
     15  O        -56.5440  -25.0800    9.7980 O.2    82  LYS82      -0.2867
     16  CB       -57.6290  -23.7980    6.9250 C.3    82  LYS82       0.0271
     17  CG       -58.4650  -24.2890    5.7740 C.3    82  LYS82       0.0035
     18  CD       -57.8440  -23.8300    4.4620 C.3    82  LYS82       0.0206
     19  CE       -58.7080  -24.1770    3.2570 C.3    82  LYS82       0.1093
     20  NZ       -57.9940  -23.8590    1.9820 N.3    82  LYS82      -0.1314
     21  N        -58.2490  -25.5710   12.6900 N.3    85  VAL85      -0.1231
     22  CA       -58.2060  -27.0240   12.5470 C.3    85  VAL85       0.1692
     23  C        -56.7610  -27.5050   12.6000 C.2    85  VAL85       0.2592
     24  O        -56.4480  -28.4910   13.2790 O.2    85  VAL85      -0.2718
     25  CB       -58.9350  -27.4650   11.2590 C.3    85  VAL85       0.0266
     26  CG1      -58.5600  -28.8850   10.8900 C.3    85  VAL85       0.0020
     27  CG2      -60.4500  -27.3580   11.4510 C.3    85  VAL85       0.0020
     28  N        -55.8510  -26.7820   11.9320 N.am   86  TYR86      -0.1976
     29  CA       -54.4330  -27.1240   12.0000 C.3    86  TYR86       0.1639
     30  C        -53.9360  -27.1200   13.4390 C.2    86  TYR86       0.2290
     31  O        -53.1920  -28.0180   13.8500 O.2    86  TYR86      -0.2864
     32  CB       -53.5980  -26.1670   11.1480 C.3    86  TYR86       0.0560
     33  CG       -52.1010  -26.3030   11.3760 C.ar   86  TYR86      -0.0198
     34  CD1      -51.3630  -27.2440   10.6980 C.ar   86  TYR86      -0.0009
     35  CD2      -51.4340  -25.4890   12.2790 C.ar   86  TYR86      -0.0009
     36  CE1      -50.0140  -27.3740   10.8980 C.ar   86  TYR86       0.0417
     37  CE2      -50.0770  -25.6180   12.4930 C.ar   86  TYR86       0.0417
     38  CZ       -49.3730  -26.5700   11.8020 C.ar   86  TYR86       0.1957
     39  OH       -48.0130  -26.7020   12.0000 O.3    86  TYR86      -0.2866
     40  N        -55.2650  -30.2110   15.4800 N.3    89  ALA89      -0.1245
     41  CA       -54.5110  -31.3940   15.0780 C.3    89  ALA89       0.1562
     42  C        -53.1350  -31.4390   15.7400 C.2    89  ALA89       0.2260
     43  O        -52.8030  -32.4020   16.4360 O.2    89  ALA89      -0.2867
     44  CB       -54.3720  -31.4110   13.5540 C.3    89  ALA89       0.0290
     45  N        -47.0220  -33.5300    8.2160 N.3   248  LEU248     -0.1245
     46  CA       -48.0630  -32.6410    7.7100 C.3   248  LEU248      0.1561
     47  C        -47.5870  -31.8640    6.4890 C.2   248  LEU248      0.2260
     48  O        -48.3100  -31.7610    5.4880 O.2   248  LEU248     -0.2867
     49  CB       -48.5230  -31.6890    8.8070 C.3   248  LEU248      0.0270
     50  CG       -49.4750  -32.2480    9.8530 C.3   248  LEU248      0.0019
     51  CD1      -49.5920  -31.2630   10.9950 C.3   248  LEU248      0.0001
     52  CD2      -50.8240  -32.4800    9.1990 C.3   248  LEU248      0.0001
     53  N        -49.1810  -32.4840    2.5470 N.3   252  PHE252     -0.1241
     54  CA       -49.6610  -31.4250    1.6640 C.3   252  PHE252      0.1605
     55  C        -48.6540  -31.0420    0.5810 C.2   252  PHE252      0.2264
     56  O        -48.9090  -30.1030   -0.1760 O.2   252  PHE252     -0.2867
     57  CB       -50.0730  -30.1950    2.4800 C.3   252  PHE252      0.0534
     58  CG       -51.4050  -30.3550    3.1840 C.ar  252  PHE252     -0.0203
     59  CD1      -52.5970  -30.0100    2.5410 C.ar  252  PHE252     -0.0042
     60  CD2      -51.4690  -30.8920    4.4730 C.ar  252  PHE252     -0.0042
     61  CE1      -53.8240  -30.1640    3.1840 C.ar  252  PHE252     -0.0003
     62  CE2      -52.6900  -31.0560    5.1180 C.ar  252  PHE252     -0.0003
     63  CZ       -53.8700  -30.6960    4.4720 C.ar  252  PHE252     -0.0000
     64  N        -48.9220  -24.5150    4.9820 N.3   411  ILE411     -0.1231
     65  CA       -49.9480  -25.4710    4.5450 C.3   411  ILE411      0.1692
     66  C        -51.2000  -24.7420    4.0680 C.2   411  ILE411      0.2591
     67  O        -51.6850  -24.9760    2.9560 O.2   411  ILE411     -0.2718
     68  CB       -50.2860  -26.4800    5.6610 C.3   411  ILE411      0.0266
     69  CG1      -49.3460  -27.6810    5.6140 C.3   411  ILE411      0.0019
     70  CG2      -51.7420  -26.9630    5.5590 C.3   411  ILE411      0.0020
     71  CD1      -48.3010  -27.6930    6.6460 C.3   411  ILE411      0.0001
     72  N        -51.7380  -23.8480    4.8920 N.am  412  VAL412     -0.1980
     73  CA       -52.9380  -23.1240    4.5010 C.3   412  VAL412      0.1595
     74  C        -52.6860  -22.3460    3.2270 C.2   412  VAL412      0.2287
     75  O        -53.5120  -22.3470    2.3060 O.2   412  VAL412     -0.2864
     76  CB       -53.3740  -22.1900    5.6360 C.3   412  VAL412      0.0276
     77  CG1      -54.4830  -21.2500    5.1570 C.3   412  VAL412      0.0022
     78  CG2      -53.7940  -23.0040    6.8460 C.3   412  VAL412      0.0022
     79  N        -52.8470  -24.8940    0.3910 N.3   415  THR415     -0.1203
     80  CA       -54.2320  -25.2680    0.0880 C.3   415  THR415      0.1994
     81  C        -55.0450  -24.1090   -0.4920 C.2   415  THR415      0.2617
     82  O        -56.0510  -24.3490   -1.1730 O.2   415  THR415     -0.2717
     83  CB       -54.9620  -25.7980    1.3210 C.3   415  THR415      0.1784
     84  OG1      -55.2590  -24.7160    2.2030 O.3   415  THR415     -0.2211
     85  CG2      -54.0990  -26.8020    2.0460 C.3   415  THR415      0.0376
     86  N        -54.6600  -22.8640   -0.2190 N.am  416  GLU416     -0.1979
     87  CA       -55.3230  -21.7120   -0.8170 C.3   416  GLU416      0.1602
     88  C        -54.6530  -21.2360   -2.1010 C.2   416  GLU416      0.2287
     89  O        -55.0580  -20.1990   -2.6370 O.2   416  GLU416     -0.2864
     90  CB       -55.3950  -20.5500    0.1830 C.3   416  GLU416      0.0415
     91  CG       -56.3650  -20.7380    1.3430 C.3   416  GLU416      0.1163
     92  CD       -57.8200  -20.7480    0.8990 C.2   416  GLU416      0.3649
     93  OE1      -58.1630  -19.9520    0.0010 O.co2 416  GLU416     -0.2457
     94  OE2      -58.6270  -21.5170    1.4730 O.co2 416  GLU416     -0.2457
@<TRIPOS>BOND
     1    89    88    2
     2    88    87    1
     3    82    81    2
     4    87    86    1
     5    87    90    1
     6    81    86   am
     7    81    80    1
     8    11     9    1
     9    56    55    2
    10    93    92   ar
    11    10     9    1
    12    80    79    1
    13    80    83    1
    14    90    91    1
    15     9     8    2
    16    55    54    1
    17    92    91    1
    18    92    94   ar
    19     8     7    1
    20    83    85    1
    21    83    84    1
    22    54    57    1
    23    54    53    1
    24    20    19    1
    25     7     6    1
    26    75    74    2
    27    57    58    1
    28    59    58   ar
    29    59    61   ar
    30    67    66    2
    31    58    60   ar
    32    61    63   ar
    33    74    73    1
    34    19    18    1
    35     6     5    1
    36     5     2    1
    37    66    65    1
    38    66    72   am
    39    18    17    1
    40    63    62   ar
    41    60    62   ar
    42    73    72    1
    43    73    76    1
    44    65    64    1
    45    65    68    1
    46    77    76    1
    47     2     1    1
    48     2     3    1
    49    48    47    2
    50    70    68    1
    51    69    68    1
    52    69    71    1
    53    76    78    1
    54    17    16    1
    55     3     4    2
    56    47    46    1
    57    16    13    1
    58    46    45    1
    59    46    49    1
    60    13    12    1
    61    13    14    1
    62    49    50    1
    63    52    50    1
    64    14    15    2
    65    50    51    1
    66    34    36   ar
    67    34    33   ar
    68    26    25    1
    69    36    38   ar
    70    32    33    1
    71    32    29    1
    72    25    27    1
    73    25    22    1
    74    33    35   ar
    75    38    39    1
    76    38    37   ar
    77    28    29    1
    78    28    23   am
    79    29    30    1
    80    35    37   ar
    81    22    23    1
    82    22    21    1
    83    23    24    2
    84    30    31    2
    85    44    41    1
    86    41    40    1
    87    41    42    1
    88    42    43    2
