@<TRIPOS>MOLECULE
tmp/5dwyB02.pdb
 78 72 0 0 0
SMALL
GASTEIGER

@<TRIPOS>ATOM
      1  N        -89.4560   -9.9450   30.7570 N.3    28  LEU28      -0.1245
      2  CA       -90.4460   -9.9510   31.8340 C.3    28  LEU28       0.1561
      3  C        -90.8530  -11.3690   32.2280 C.2    28  LEU28       0.2260
      4  O        -90.8880  -11.7160   33.4180 O.2    28  LEU28      -0.2867
      5  CB       -91.6680   -9.1410   31.4010 C.3    28  LEU28       0.0270
      6  CG       -91.3050   -7.6690   31.3560 C.3    28  LEU28       0.0019
      7  CD1      -92.3120   -6.9260   30.5450 C.3    28  LEU28       0.0001
      8  CD2      -91.2560   -7.1480   32.7760 C.3    28  LEU28       0.0001
      9  N        -90.2400  -12.9640   35.9620 N.3    32  HIS32      -0.1241
     10  CA       -91.3850  -13.3290   36.7900 C.3    32  HIS32       0.1621
     11  C        -91.3240  -14.7900   37.2180 C.2    32  HIS32       0.2264
     12  O        -91.8320  -15.1420   38.2890 O.2    32  HIS32      -0.2867
     13  CB       -92.6780  -13.0200   36.0250 C.3    32  HIS32       0.0745
     14  CG       -93.9310  -13.4190   36.7400 C.ar   32  HIS32       0.0817
     15  ND1      -94.5180  -14.6570   36.5810 N.ar   32  HIS32      -0.2268
     16  CD2      -94.7270  -12.7320   37.5950 C.ar   32  HIS32       0.1154
     17  CE1      -95.6130  -14.7210   37.3190 C.ar   32  HIS32       0.1986
     18  NE2      -95.7630  -13.5660   37.9430 N.ar   32  HIS32      -0.2212
     19  N        -84.9770   -6.1070   31.6060 N.3   217  MET217     -0.1245
     20  CA       -86.3400   -6.4200   32.0120 C.3   217  MET217      0.1570
     21  C        -86.3790   -7.5740   33.0060 C.2   217  MET217      0.2261
     22  O        -87.1550   -7.5320   33.9640 O.2   217  MET217     -0.2867
     23  CB       -87.1980   -6.7330   30.7840 C.3   217  MET217      0.0387
     24  CG       -87.6650   -5.5140   30.0010 C.3   217  MET217      0.0595
     25  SD       -88.6110   -4.3420   31.0080 S.3   217  MET217     -0.1393
     26  CE       -87.3680   -3.0960   31.3700 C.3   217  MET217      0.0692
     27  N        -87.4210   -5.6770   36.0280 N.3   221  GLY221     -0.1210
     28  CA       -88.8460   -5.6100   35.7540 C.3   221  GLY221      0.1956
     29  C        -89.6770   -5.9490   36.9780 C.2   221  GLY221      0.2611
     30  O        -90.6200   -5.2300   37.3240 O.2   221  GLY221     -0.2717
     31  N        -89.3180   -7.0410   37.6660 N.am  222  VAL222     -0.1979
     32  CA       -89.9950   -7.4460   38.8950 C.3   222  VAL222      0.1595
     33  C        -89.9150   -6.3800   39.9820 C.2   222  VAL222      0.2287
     34  O        -90.7300   -6.3700   40.9070 O.2   222  VAL222     -0.2864
     35  CB       -89.3930   -8.7660   39.4060 C.3   222  VAL222      0.0276
     36  CG1      -89.4610   -9.8200   38.3320 C.3   222  VAL222      0.0022
     37  CG2      -87.9610   -8.5470   39.8450 C.3   222  VAL222      0.0022
     38  N        -90.3940   -3.1790   39.5460 N.3   224  VAL224     -0.1231
     39  CA       -91.2960   -2.0640   39.3100 C.3   224  VAL224      0.1692
     40  C        -92.6540   -2.5280   39.8250 C.2   224  VAL224      0.2591
     41  O        -93.4100   -3.2080   39.1300 O.2   224  VAL224     -0.2718
     42  CB       -91.3350   -1.6860   37.8300 C.3   224  VAL224      0.0266
     43  CG1      -92.2740   -0.5250   37.5870 C.3   224  VAL224      0.0020
     44  CG2      -89.9270   -1.3790   37.3440 C.3   224  VAL224      0.0020
     45  N        -92.9760   -2.0650   41.0330 N.am  225  VAL225     -0.1980
     46  CA       -94.2150   -2.3730   41.7360 C.3   225  VAL225      0.1595
     47  C        -94.3550   -1.3070   42.8100 C.2   225  VAL225      0.2287
     48  O        -93.3650   -0.7060   43.2370 O.2   225  VAL225     -0.2864
     49  CB       -94.2040   -3.7890   42.3710 C.3   225  VAL225      0.0276
     50  CG1      -94.3450   -4.9050   41.3400 C.3   225  VAL225      0.0022
     51  CG2      -92.9110   -3.9720   43.1580 C.3   225  VAL225      0.0022
     52  N        -91.2020    5.1620   37.8580 N.3   232  VAL232     -0.1245
     53  CA       -91.0110    4.8180   36.4510 C.3   232  VAL232      0.1561
     54  C        -92.0360    5.5320   35.5840 C.2   232  VAL232      0.2260
     55  O        -91.7050    6.0800   34.5260 O.2   232  VAL232     -0.2867
     56  CB       -91.0890    3.2960   36.2540 C.3   232  VAL232      0.0252
     57  CG1      -91.0840    2.9850   34.7710 C.3   232  VAL232      0.0019
     58  CG2      -89.9510    2.6010   37.0000 C.3   232  VAL232      0.0019
     59  N        -91.0890    8.3190   32.6380 N.3   236  TYR236     -0.1241
     60  CA       -91.4090    8.0390   31.2430 C.3   236  TYR236      0.1605
     61  C        -92.4580    9.0060   30.6960 C.2   236  TYR236      0.2264
     62  O        -92.4320    9.3310   29.5010 O.2   236  TYR236     -0.2867
     63  CB       -91.8460    6.5820   31.0880 C.3   236  TYR236      0.0534
     64  CG       -90.6650    5.6620   30.8930 C.ar  236  TYR236     -0.0201
     65  CD1      -89.7630    5.4390   31.9180 C.ar  236  TYR236     -0.0009
     66  CD2      -90.4330    5.0480   29.6740 C.ar  236  TYR236     -0.0009
     67  CE1      -88.6720    4.6180   31.7400 C.ar  236  TYR236      0.0417
     68  CE2      -89.3440    4.2150   29.4920 C.ar  236  TYR236      0.0417
     69  CZ       -88.4610    4.0060   30.5270 C.ar  236  TYR236      0.1957
     70  OH       -87.3630    3.1840   30.3400 O.3   236  TYR236     -0.2866
     71  N        -83.7990    0.7570   34.4490 N.3   394  ILE394     -0.1245
     72  CA       -85.0210    1.0910   33.7310 C.3   394  ILE394      0.1561
     73  C        -85.1260    2.5980   33.5320 C.2   394  ILE394      0.2260
     74  O        -85.5470    3.0760   32.4690 O.2   394  ILE394     -0.2867
     75  CB       -86.2340    0.5150   34.4820 C.3   394  ILE394      0.0252
     76  CG1      -86.1150   -1.0180   34.5050 C.3   394  ILE394      0.0019
     77  CG2      -87.5400    1.0350   33.8800 C.3   394  ILE394      0.0019
     78  CD1      -87.3900   -1.7750   34.7600 C.3   394  ILE394      0.0001
@<TRIPOS>BOND
     1    68    66   ar
     2    68    69   ar
     3    62    61    2
     4    66    64   ar
     5    24    23    1
     6    24    25    1
     7    70    69    1
     8    69    67   ar
     9     7     6    1
    10    61    60    1
    11     1     2    1
    12    23    20    1
    13    64    63    1
    14    64    65   ar
    15    25    26    1
    16    63    60    1
    17    60    59    1
    18     6     5    1
    19     6     8    1
    20     5     2    1
    21    19    20    1
    22    67    65   ar
    23     2     3    1
    24    20    21    1
    25     3     4    2
    26    74    73    2
    27    21    22    2
    28    73    72    1
    29    72    71    1
    30    72    75    1
    31    77    75    1
    32    75    76    1
    33    76    78    1
    34    55    54    2
    35    57    56    1
    36    54    53    1
    37    28    27    1
    38    28    29    1
    39     9    10    1
    40    13    14    1
    41    13    10    1
    42    56    53    1
    43    56    58    1
    44    53    52    1
    45    15    14   ar
    46    15    17   ar
    47    14    16   ar
    48    10    11    1
    49    29    30    2
    50    29    31   am
    51    11    12    2
    52    17    18   ar
    53    44    42    1
    54    43    42    1
    55    16    18   ar
    56    31    32    1
    57    42    39    1
    58    36    35    1
    59    32    35    1
    60    32    33    1
    61    41    40    2
    62    39    38    1
    63    39    40    1
    64    35    37    1
    65    40    45   am
    66    33    34    2
    67    45    46    1
    68    50    49    1
    69    46    49    1
    70    46    47    1
    71    49    51    1
    72    47    48    2
