@<TRIPOS>MOLECULE
tmp/5dwzG01.pdb
 107 104 0 0 0
SMALL
GASTEIGER

@<TRIPOS>ATOM
      1  N        -13.3770   24.5230  -48.9710 N.3   203  PHE203     -0.1241
      2  CA       -14.0550   24.9370  -47.7520 C.3   203  PHE203      0.1605
      3  C        -15.5010   24.4960  -47.6560 C.2   203  PHE203      0.2264
      4  O        -16.2950   25.1060  -46.9620 O.2   203  PHE203     -0.2867
      5  CB       -13.9180   26.4500  -47.5680 C.3   203  PHE203      0.0534
      6  CG       -12.4990   26.8980  -47.3680 C.ar  203  PHE203     -0.0203
      7  CD1      -11.8000   26.5270  -46.2320 C.ar  203  PHE203     -0.0042
      8  CD2      -11.8350   27.6580  -48.3440 C.ar  203  PHE203     -0.0042
      9  CE1      -10.4550   26.9180  -46.0550 C.ar  203  PHE203     -0.0003
     10  CE2      -10.5080   28.0540  -48.1710 C.ar  203  PHE203     -0.0003
     11  CZ        -9.8090   27.6810  -47.0250 C.ar  203  PHE203     -0.0000
     12  N        -17.1520   24.2920  -44.1440 N.3   206  VAL206     -0.1245
     13  CA       -17.2620   25.5600  -43.3970 C.3   206  VAL206      0.1561
     14  C        -18.6870   25.9450  -43.0230 C.2   206  VAL206      0.2260
     15  O        -18.9220   26.5960  -42.0180 O.2   206  VAL206     -0.2867
     16  CB       -16.5630   26.7070  -44.1540 C.3   206  VAL206      0.0252
     17  CG1      -16.9150   28.1000  -43.6120 C.3   206  VAL206      0.0019
     18  CG2      -15.0630   26.5000  -44.0610 C.3   206  VAL206      0.0019
     19  N         -7.7220   27.8130  -51.2070 N.3   230  MET230     -0.1245
     20  CA        -8.2610   27.6350  -52.5520 C.3   230  MET230      0.1570
     21  C         -7.1900   27.9990  -53.5950 C.2   230  MET230      0.2261
     22  O         -6.2740   28.8030  -53.3360 O.2   230  MET230     -0.2867
     23  CB        -9.4990   28.5140  -52.7710 C.3   230  MET230      0.0387
     24  CG       -10.6660   28.1320  -51.9130 C.3   230  MET230      0.0595
     25  SD       -12.2040   28.9340  -52.3830 S.3   230  MET230     -0.1393
     26  CE       -11.9610   30.5060  -51.5960 C.3   230  MET230      0.0692
     27  N         -9.6000   34.1510  -51.7720 N.3   234  VAL234     -0.1231
     28  CA       -10.6360   35.1080  -51.5060 C.3   234  VAL234      0.1678
     29  C         -9.8320   36.3860  -51.5760 C.2   234  VAL234      0.2434
     30  O         -8.7350   36.3920  -51.1130 O.2   234  VAL234     -0.2733
     31  CB       -11.1660   34.9570  -50.0810 C.3   234  VAL234      0.0265
     32  CG1      -12.0450   36.1110  -49.6920 C.3   234  VAL234      0.0020
     33  CG2      -11.9000   33.6700  -49.9160 C.3   234  VAL234      0.0020
     34  N        -10.3450   37.5350  -52.1640 N.am  235  PRO235     -0.2729
     35  CA       -11.7100   37.4910  -52.6810 C.3   235  PRO235      0.1401
     36  C        -11.8970   37.4500  -54.2060 C.2   235  PRO235      0.2269
     37  O        -12.8440   37.9600  -54.7360 O.2   235  PRO235     -0.2865
     38  CB       -12.2870   38.7630  -52.1020 C.3   235  PRO235      0.0296
     39  CG       -11.1970   39.7390  -52.3180 C.3   235  PRO235      0.0237
     40  CD        -9.8980   38.9860  -52.3290 C.3   235  PRO235      0.0939
     41  N        -12.6210   34.9570  -56.4290 N.3   237  ASN237     -0.1225
     42  CA       -13.3450   33.9280  -57.1830 C.3   237  ASN237      0.1785
     43  C        -14.4810   34.5810  -57.9730 C.2   237  ASN237      0.2597
     44  O        -14.7130   34.2280  -59.1350 O.2   237  ASN237     -0.2718
     45  CB       -13.8830   32.8120  -56.3290 C.3   237  ASN237      0.1169
     46  CG       -12.7980   31.8340  -55.9330 C.2   237  ASN237      0.2627
     47  OD1      -12.2360   31.9100  -54.8280 O.2   237  ASN237     -0.2716
     48  ND2      -12.5220   30.8810  -56.8350 N.am  237  ASN237     -0.0877
     49  N        -15.1740   35.5200  -57.3240 N.am  238  VAL238     -0.1980
     50  CA       -16.2700   36.2410  -57.9910 C.3   238  VAL238      0.1595
     51  C        -15.7320   37.0810  -59.1560 C.2   238  VAL238      0.2287
     52  O        -16.2400   36.9530  -60.2450 O.2   238  VAL238     -0.2864
     53  CB       -17.2090   36.9790  -57.0120 C.3   238  VAL238      0.0276
     54  CG1      -18.1180   37.9430  -57.7610 C.3   238  VAL238      0.0022
     55  CG2      -18.0430   35.9500  -56.2910 C.3   238  VAL238      0.0022
     56  N        -16.9790   42.9160  -48.7270 N.3   268  LEU268     -0.1245
     57  CA       -16.8600   41.8300  -49.6780 C.3   268  LEU268      0.1561
     58  C        -17.3310   42.2490  -51.0770 C.2   268  LEU268      0.2260
     59  O        -16.6470   42.0170  -52.0900 O.2   268  LEU268     -0.2867
     60  CB       -17.5770   40.5570  -49.1820 C.3   268  LEU268      0.0270
     61  CG       -17.0900   39.2430  -49.8140 C.3   268  LEU268      0.0019
     62  CD1      -15.5640   39.1190  -49.8290 C.3   268  LEU268      0.0001
     63  CD2      -17.6970   38.0740  -49.0730 C.3   268  LEU268      0.0001
     64  N        -15.0840   42.5270  -54.4540 N.3   272  TRP272     -0.1241
     65  CA       -15.4700   41.9620  -55.7500 C.3   272  TRP272      0.1605
     66  C        -15.5030   43.0230  -56.8900 C.2   272  TRP272      0.2264
     67  O        -15.0490   42.8110  -58.0250 O.2   272  TRP272     -0.2867
     68  CB       -16.8240   41.2410  -55.6830 C.3   272  TRP272      0.0550
     69  CG       -16.9030   40.0490  -54.8090 C.ar  272  TRP272      0.0003
     70  CD1      -15.8650   39.2570  -54.3780 C.ar  272  TRP272      0.0946
     71  CD2      -18.0940   39.4690  -54.2590 C.ar  272  TRP272      0.0152
     72  NE1      -16.3390   38.2500  -53.5840 N.ar  272  TRP272     -0.2442
     73  CE2      -17.6980   38.3470  -53.4930 C.ar  272  TRP272      0.0810
     74  CE3      -19.4530   39.7970  -54.3180 C.ar  272  TRP272      0.0012
     75  CZ2      -18.6380   37.5000  -52.8420 C.ar  272  TRP272      0.0191
     76  CZ3      -20.3850   38.9870  -53.6530 C.ar  272  TRP272      0.0001
     77  CH2      -19.9710   37.8460  -52.9240 C.ar  272  TRP272      0.0015
     78  N        -21.3790   34.6750  -55.0400 N.3   322  ALA322     -0.1245
     79  CA       -20.8120   33.4410  -54.4590 C.3   322  ALA322      0.1562
     80  C        -21.8590   32.7410  -53.6590 C.2   322  ALA322      0.2260
     81  O        -22.7990   33.3600  -53.1460 O.2   322  ALA322     -0.2867
     82  CB       -19.5940   33.7470  -53.5760 C.3   322  ALA322      0.0290
     83  N        -18.3260   25.3600  -52.2220 N.3   326  TRP326     -0.1241
     84  CA       -18.7280   26.7140  -52.6140 C.3   326  TRP326      0.1605
     85  C        -18.8710   26.8270  -54.1120 C.2   326  TRP326      0.2264
     86  O        -18.2880   26.0450  -54.8750 O.2   326  TRP326     -0.2867
     87  CB       -17.7440   27.7840  -52.0990 C.3   326  TRP326      0.0550
     88  CG       -17.7720   27.8340  -50.5800 C.ar  326  TRP326      0.0003
     89  CD1      -17.3210   26.8830  -49.7500 C.ar  326  TRP326      0.0946
     90  CD2      -18.3510   28.8470  -49.7580 C.ar  326  TRP326      0.0152
     91  NE1      -17.5440   27.2460  -48.4410 N.ar  326  TRP326     -0.2442
     92  CE2      -18.1910   28.4370  -48.4140 C.ar  326  TRP326      0.0810
     93  CE3      -18.9750   30.0630  -50.0200 C.ar  326  TRP326      0.0012
     94  CZ2      -18.6500   29.1910  -47.3290 C.ar  326  TRP326      0.0191
     95  CZ3      -19.4330   30.8200  -48.9480 C.ar  326  TRP326      0.0001
     96  CH2      -19.2750   30.3750  -47.6150 C.ar  326  TRP326      0.0015
     97  N        -19.6130   29.7970  -57.5660 N.3   328  PHE328     -0.1241
     98  CA       -19.4260   31.1460  -58.0830 C.3   328  PHE328      0.1605
     99  C        -20.0620   31.2250  -59.4640 C.2   328  PHE328      0.2264
    100  O        -19.8550   30.3480  -60.3060 O.2   328  PHE328     -0.2867
    101  CB       -17.9410   31.5570  -58.1540 C.3   328  PHE328      0.0534
    102  CG       -17.1750   31.1360  -56.9460 C.ar  328  PHE328     -0.0203
    103  CD1      -17.2070   31.9080  -55.8000 C.ar  328  PHE328     -0.0042
    104  CD2      -16.5340   29.8960  -56.9130 C.ar  328  PHE328     -0.0042
    105  CE1      -16.5710   31.4720  -54.6560 C.ar  328  PHE328     -0.0003
    106  CE2      -15.8510   29.4950  -55.7810 C.ar  328  PHE328     -0.0003
    107  CZ       -15.8660   30.2850  -54.6550 C.ar  328  PHE328     -0.0000
@<TRIPOS>BOND
     1   100    99    2
     2    52    51    2
     3    99    98    1
     4    51    50    1
     5    44    43    2
     6   101    98    1
     7   101   102    1
     8    98    97    1
     9    67    66    2
    10    50    49    1
    11    50    53    1
    12    43    49   am
    13    43    42    1
    14    54    53    1
    15    42    41    1
    16    42    45    1
    17    53    55    1
    18   102   104   ar
    19   102   103   ar
    20   104   106   ar
    21    66    65    1
    22    48    46   am
    23    45    46    1
    24    46    47    2
    25   103   105   ar
    26   106   107   ar
    27    65    68    1
    28    65    64    1
    29    68    69    1
    30    78    79    1
    31    86    85    2
    32    69    70   ar
    33    69    71   ar
    34    37    36    2
    35   105   107   ar
    36    79    80    1
    37    79    82    1
    38    70    72   ar
    39    74    71   ar
    40    74    76   ar
    41    71    73   ar
    42    36    35    1
    43    85    84    1
    44    80    81    2
    45    76    77   ar
    46    21    22    2
    47    21    20    1
    48    72    73   ar
    49    73    75   ar
    50    77    75   ar
    51    23    20    1
    52    23    24    1
    53    35    34    1
    54    35    38    1
    55    84    83    1
    56    84    87    1
    57    20    19    1
    58    25    24    1
    59    25    26    1
    60    40    39    1
    61    40    34    1
    62    39    38    1
    63    34    29   am
    64    87    88    1
    65    59    58    2
    66    27    28    1
    67    29    28    1
    68    29    30    2
    69    28    31    1
    70    58    57    1
    71    88    90   ar
    72    88    89   ar
    73    31    33    1
    74    31    32    1
    75    93    90   ar
    76    93    95   ar
    77    62    61    1
    78    61    60    1
    79    61    63    1
    80    90    92   ar
    81    89    91   ar
    82    57    60    1
    83    57    56    1
    84     1     2    1
    85    95    96   ar
    86    91    92   ar
    87    92    94   ar
    88     8    10   ar
    89     8     6   ar
    90    10    11   ar
    91     2     3    1
    92     2     5    1
    93     3     4    2
    94    96    94   ar
    95     5     6    1
    96     6     7   ar
    97    11     9   ar
    98     7     9   ar
    99    16    18    1
   100    16    17    1
   101    16    13    1
   102    12    13    1
   103    13    14    1
   104    14    15    2
