@<TRIPOS>MOLECULE
tmp/5dwzC01.pdb
 93 92 0 0 0
SMALL
GASTEIGER

@<TRIPOS>ATOM
      1  N         14.7110   47.5690  -38.4070 N.3    16  ARG16      -0.1245
      2  CA        13.9600   47.6560  -39.6750 C.3    16  ARG16       0.1563
      3  C         12.4500   47.6790  -39.5490 C.2    16  ARG16       0.2260
      4  O         11.8670   46.9020  -38.7810 O.2    16  ARG16      -0.2867
      5  CB        14.3380   46.4990  -40.5720 C.3    16  ARG16       0.0307
      6  CG        15.7820   46.5530  -41.0190 C.3    16  ARG16       0.0489
      7  CD        15.8350   46.4190  -42.5380 C.3    16  ARG16       0.2205
      8  NE        16.1100   45.0700  -43.0270 N.pl3  16  ARG16      -0.0865
      9  CZ        15.5820   44.5370  -44.1430 C.cat  16  ARG16       0.5346
     10  NH1       15.9030   43.2900  -44.4700 N.pl3  16  ARG16       0.1354
     11  NH2       14.7150   45.2170  -44.9260 N.pl3  16  ARG16       0.1354
     12  N          8.7360   47.6260  -41.8270 N.3    18  TYR18      -0.1241
     13  CA         8.1650   47.0330  -43.0380 C.3    18  TYR18       0.1605
     14  C          6.7930   47.5960  -43.2560 C.2    18  TYR18       0.2264
     15  O          5.9230   47.4670  -42.3980 O.2    18  TYR18      -0.2867
     16  CB         8.0630   45.4770  -42.9590 C.3    18  TYR18       0.0534
     17  CG         9.3970   44.7970  -42.8410 C.ar   18  TYR18      -0.0201
     18  CD1       10.0510   44.7020  -41.6270 C.ar   18  TYR18      -0.0009
     19  CD2       10.0200   44.2510  -43.9490 C.ar   18  TYR18      -0.0009
     20  CE1       11.3030   44.1070  -41.5300 C.ar   18  TYR18       0.0417
     21  CE2       11.2760   43.6640  -43.8580 C.ar   18  TYR18       0.0417
     22  CZ        11.9030   43.5900  -42.6520 C.ar   18  TYR18       0.1957
     23  OH        13.1020   42.9590  -42.5690 O.3    18  TYR18      -0.2866
     24  N          8.3060   41.5080  -48.5830 N.3    24  VAL24      -0.1245
     25  CA         8.2350   40.3810  -47.5990 C.3    24  VAL24       0.1561
     26  C          6.8650   39.6390  -47.6410 C.2    24  VAL24       0.2260
     27  O          6.7720   38.4590  -47.3470 O.2    24  VAL24      -0.2867
     28  CB         8.6410   40.8380  -46.1600 C.3    24  VAL24       0.0252
     29  CG1        7.5210   41.5810  -45.4600 C.3    24  VAL24       0.0019
     30  CG2        9.0900   39.6500  -45.3350 C.3    24  VAL24       0.0019
     31  N         10.4450   43.5250  -37.8730 N.3    46  TYR46      -0.1227
     32  CA        10.8970   42.1470  -37.6540 C.3    46  TYR46       0.1736
     33  C         12.3410   42.1630  -37.3000 C.2    46  TYR46       0.2595
     34  O         13.1380   42.8520  -37.9540 O.2    46  TYR46      -0.2718
     35  CB        10.7130   41.2630  -38.8930 C.3    46  TYR46       0.0548
     36  CG         9.3120   41.2360  -39.4340 C.ar   46  TYR46      -0.0200
     37  CD1        8.2260   40.9880  -38.6090 C.ar   46  TYR46      -0.0009
     38  CD2        9.0770   41.4900  -40.7890 C.ar   46  TYR46      -0.0009
     39  CE1        6.9390   40.9780  -39.1130 C.ar   46  TYR46       0.0417
     40  CE2        7.8010   41.4800  -41.3110 C.ar   46  TYR46       0.0417
     41  CZ         6.7430   41.2350  -40.4780 C.ar   46  TYR46       0.1957
     42  OH         5.5090   41.1930  -41.0080 O.3    46  TYR46      -0.2866
     43  N         12.7000   41.3470  -36.3150 N.am   47  PHE47      -0.1962
     44  CA        14.1120   41.1740  -35.9630 C.3    47  PHE47       0.1771
     45  C         14.8550   40.5880  -37.1690 C.2    47  PHE47       0.2620
     46  O         14.3160   39.7820  -37.8970 O.2    47  PHE47      -0.2715
     47  CB        14.3670   40.2340  -34.7720 C.3    47  PHE47       0.0574
     48  CG        13.8110   40.7050  -33.4430 C.ar   47  PHE47      -0.0200
     49  CD1       13.7140   42.0540  -33.1190 C.ar   47  PHE47      -0.0042
     50  CD2       13.3820   39.7560  -32.5060 C.ar   47  PHE47      -0.0042
     51  CE1       13.1600   42.4480  -31.9130 C.ar   47  PHE47      -0.0003
     52  CE2       12.8330   40.1570  -31.3010 C.ar   47  PHE47      -0.0003
     53  CZ        12.7450   41.5020  -30.9990 C.ar   47  PHE47      -0.0000
     54  N         16.0880   41.0340  -37.3230 N.am   48  ASP48      -0.1958
     55  CA        17.0250   40.5480  -38.3210 C.3    48  ASP48       0.1825
     56  C         18.1490   39.8430  -37.5840 C.2    48  ASP48       0.2464
     57  O         19.0840   40.4840  -37.1210 O.2    48  ASP48      -0.2730
     58  CB        17.5590   41.6940  -39.1840 C.3    48  ASP48       0.1450
     59  CG        18.3890   41.2000  -40.3930 C.2    48  ASP48       0.3671
     60  OD1       18.7680   40.0100  -40.4090 O.co2  48  ASP48      -0.2456
     61  OD2       18.6050   41.9880  -41.3470 O.co2  48  ASP48      -0.2456
     62  N         18.0710   38.5010  -37.4760 N.am   49  PRO49      -0.2727
     63  CA        19.0970   37.7670  -36.7050 C.3    49  PRO49       0.1402
     64  C         20.4980   37.7730  -37.3180 C.2    49  PRO49       0.2269
     65  O         21.4940   37.6090  -36.6070 O.2    49  PRO49      -0.2865
     66  CB        18.5230   36.3450  -36.6120 C.3    49  PRO49       0.0296
     67  CG        17.5670   36.2270  -37.7530 C.3    49  PRO49       0.0237
     68  CD        17.0220   37.6090  -38.0070 C.3    49  PRO49       0.0939
     69  N          8.3850   36.5280  -35.5380 N.3   160  SER160     -0.1202
     70  CA         8.5230   36.6370  -36.9950 C.3   160  SER160      0.2020
     71  C          9.2370   35.4130  -37.6110 C.2   160  SER160      0.2618
     72  O          9.0280   35.1180  -38.7750 O.2   160  SER160     -0.2717
     73  CB         9.2540   37.8980  -37.4310 C.3   160  SER160      0.2103
     74  OG        10.6180   37.8190  -37.0500 O.3   160  SER160     -0.2182
     75  N         10.0950   34.7470  -36.8460 N.am  161  ASN161     -0.1974
     76  CA        10.6950   33.4950  -37.3100 C.3   161  ASN161      0.1688
     77  C          9.6950   32.3160  -37.4320 C.2   161  ASN161      0.2292
     78  O         10.0350   31.3130  -38.0220 O.2   161  ASN161     -0.2864
     79  CB        11.9020   33.0670  -36.4570 C.3   161  ASN161      0.1181
     80  CG        11.5390   32.8190  -35.0140 C.2   161  ASN161      0.2629
     81  OD1       10.5980   33.4030  -34.5240 O.2   161  ASN161     -0.2716
     82  ND2       12.2620   31.9300  -34.3440 N.am  161  ASN161     -0.0877
     83  N          4.7140   33.5300  -43.9520 N.3   165  PHE165     -0.1241
     84  CA         4.5840   34.6200  -44.9400 C.3   165  PHE165      0.1605
     85  C          3.8740   34.2460  -46.2540 C.2   165  PHE165      0.2264
     86  O          3.8770   35.0200  -47.2200 O.2   165  PHE165     -0.2867
     87  CB         5.9350   35.2930  -45.1640 C.3   165  PHE165      0.0534
     88  CG         6.3930   36.0660  -43.9670 C.ar  165  PHE165     -0.0203
     89  CD1        7.1510   35.4490  -42.9770 C.ar  165  PHE165     -0.0042
     90  CD2        6.0230   37.4030  -43.7950 C.ar  165  PHE165     -0.0042
     91  CE1        7.5750   36.1620  -41.8740 C.ar  165  PHE165     -0.0003
     92  CE2        6.4300   38.1200  -42.6710 C.ar  165  PHE165     -0.0003
     93  CZ         7.1950   37.4860  -41.7050 C.ar  165  PHE165     -0.0000
@<TRIPOS>BOND
     1    24    25    1
     2    26    25    1
     3    26    27    2
     4    25    28    1
     5    86    85    2
     6    85    84    1
     7    28    29    1
     8    28    30    1
     9    87    84    1
    10    87    88    1
    11    84    83    1
    12    11     9    1
    13    10     9    1
    14     9     8    2
    15    88    90   ar
    16    88    89   ar
    17    19    21   ar
    18    19    17   ar
    19    21    22   ar
    20    90    92   ar
    21    14    13    1
    22    14    15    2
    23    13    16    1
    24    13    12    1
    25     8     7    1
    26    89    91   ar
    27    16    17    1
    28    17    18   ar
    29    92    93   ar
    30    22    23    1
    31    22    20   ar
    32     7     6    1
    33    91    93   ar
    34    18    20   ar
    35    61    59   ar
    36    40    38   ar
    37    40    41   ar
    38     6     5    1
    39    42    41    1
    40    38    36   ar
    41     5     2    1
    42    41    39   ar
    43    60    59   ar
    44    59    58    1
    45     2     3    1
    46     2     1    1
    47     3     4    2
    48    36    35    1
    49    36    37   ar
    50    58    55    1
    51    39    37   ar
    52    35    32    1
    53    72    71    2
    54    55    56    1
    55    55    54    1
    56    78    77    2
    57    68    67    1
    58    68    62    1
    59    34    33    2
    60    46    45    2
    61    31    32    1
    62    67    66    1
    63    32    33    1
    64    71    70    1
    65    71    75   am
    66    56    62   am
    67    56    57    2
    68    62    63    1
    69    77    76    1
    70    73    74    1
    71    73    70    1
    72    54    45   am
    73    64    63    1
    74    64    65    2
    75    76    75    1
    76    76    79    1
    77    33    43   am
    78    45    44    1
    79    70    69    1
    80    63    66    1
    81    79    80    1
    82    43    44    1
    83    44    47    1
    84    80    81    2
    85    80    82   am
    86    47    48    1
    87    48    49   ar
    88    48    50   ar
    89    49    51   ar
    90    50    52   ar
    91    51    53   ar
    92    52    53   ar
