@<TRIPOS>MOLECULE
tmp/5dwzG02.pdb
 93 92 0 0 0
SMALL
GASTEIGER

@<TRIPOS>ATOM
      1  N        -32.7030   46.4000  -35.6440 N.3    20  ASN20      -0.1225
      2  CA       -31.5000   45.8610  -34.9560 C.3    20  ASN20       0.1785
      3  C        -31.6630   45.7300  -33.4270 C.2    20  ASN20       0.2597
      4  O        -31.1410   44.7920  -32.8150 O.2    20  ASN20      -0.2718
      5  CB       -30.2560   46.7030  -35.2530 C.3    20  ASN20       0.1169
      6  CG       -29.7600   46.5270  -36.6850 C.2    20  ASN20       0.2627
      7  OD1      -30.2030   45.6240  -37.3870 O.2    20  ASN20      -0.2716
      8  ND2      -28.8310   47.3830  -37.1130 N.am   20  ASN20      -0.0877
      9  N        -32.4300   46.6530  -32.8460 N.am   21  ASP21      -0.1974
     10  CA       -32.7510   46.6640  -31.3910 C.3    21  ASP21       0.1709
     11  C        -34.0420   45.9010  -31.0360 C.2    21  ASP21       0.2293
     12  O        -34.5240   45.9720  -29.9140 O.2    21  ASP21      -0.2864
     13  CB       -32.8180   48.1020  -30.8380 C.3    21  ASP21       0.1436
     14  CG       -34.0170   48.9240  -31.3860 C.2    21  ASP21       0.3671
     15  OD1      -34.8560   48.4230  -32.1750 O.co2  21  ASP21      -0.2456
     16  OD2      -34.1280   50.1020  -31.0090 O.co2  21  ASP21      -0.2456
     17  N        -34.2380   39.5650  -30.8470 N.3    25  PHE25      -0.1241
     18  CA       -32.7830   39.3840  -30.5480 C.3    25  PHE25       0.1605
     19  C        -32.3540   39.4640  -29.0520 C.2    25  PHE25       0.2264
     20  O        -31.1850   39.6700  -28.7370 O.2    25  PHE25      -0.2867
     21  CB       -31.9770   40.4320  -31.3390 C.3    25  PHE25       0.0534
     22  CG       -32.1880   40.3830  -32.8260 C.ar   25  PHE25      -0.0203
     23  CD1      -32.0910   39.1740  -33.5390 C.ar   25  PHE25      -0.0042
     24  CD2      -32.4590   41.5600  -33.5350 C.ar   25  PHE25      -0.0042
     25  CE1      -32.2790   39.1420  -34.9150 C.ar   25  PHE25      -0.0003
     26  CE2      -32.6480   41.5290  -34.9220 C.ar   25  PHE25      -0.0003
     27  CZ       -32.5590   40.3150  -35.6070 C.ar   25  PHE25      -0.0000
     28  N        -29.6990   37.2040  -27.9450 N.3    28  VAL28      -0.1231
     29  CA       -28.4380   37.3520  -28.7130 C.3    28  VAL28       0.1678
     30  C        -27.4640   38.2040  -27.9150 C.2    28  VAL28       0.2434
     31  O        -27.8740   39.1810  -27.3090 O.2    28  VAL28      -0.2733
     32  CB       -28.6800   38.0150  -30.0800 C.3    28  VAL28       0.0265
     33  CG1      -27.3700   38.2330  -30.8450 C.3    28  VAL28       0.0020
     34  CG2      -29.6550   37.2150  -30.9420 C.3    28  VAL28       0.0020
     35  N        -26.1630   37.8520  -27.8850 N.am   29  PRO29      -0.2718
     36  CA       -25.2660   38.7500  -27.1950 C.3    29  PRO29       0.1535
     37  C        -25.3520   40.1980  -27.6990 C.2    29  PRO29       0.2599
     38  O        -25.5370   40.4230  -28.8920 O.2    29  PRO29      -0.2715
     39  CB       -23.8850   38.1760  -27.5300 C.3    29  PRO29       0.0310
     40  CG       -24.1230   36.7050  -27.7460 C.3    29  PRO29       0.0237
     41  CD       -25.4730   36.6330  -28.3790 C.3    29  PRO29       0.0939
     42  N        -25.1800   41.1460  -26.7940 N.am   30  ASP30      -0.1958
     43  CA       -25.2250   42.5660  -27.1430 C.3    30  ASP30       0.1840
     44  C        -24.2170   42.8440  -28.2630 C.2    30  ASP30       0.2622
     45  O        -23.0930   42.3660  -28.2270 O.2    30  ASP30      -0.2715
     46  CB       -24.9060   43.4640  -25.9550 C.3    30  ASP30       0.1450
     47  CG       -26.0260   43.4950  -24.8980 C.2    30  ASP30       0.3671
     48  OD1      -27.1680   43.0560  -25.1300 O.co2  30  ASP30      -0.2456
     49  OD2      -25.7150   43.9340  -23.7820 O.co2  30  ASP30      -0.2456
     50  N        -24.6210   43.6880  -29.1980 N.am   31  LEU31      -0.1963
     51  CA       -23.7970   44.0430  -30.3710 C.3    31  LEU31       0.1728
     52  C        -23.6770   45.5390  -30.4260 C.2    31  LEU31       0.2617
     53  O        -24.6190   46.2570  -30.0830 O.2    31  LEU31      -0.2715
     54  CB       -24.4440   43.4970  -31.6250 C.3    31  LEU31       0.0311
     55  CG       -24.4340   41.9580  -31.7690 C.3    31  LEU31       0.0022
     56  CD1      -25.4650   41.3850  -32.7240 C.3    31  LEU31       0.0001
     57  CD2      -23.0230   41.4850  -32.1150 C.3    31  LEU31       0.0001
     58  N        -22.5240   46.0100  -30.8480 N.am   32  SER32      -0.1936
     59  CA       -22.2680   47.4230  -30.9080 C.3    32  SER32       0.2055
     60  C        -22.6390   47.9510  -32.3090 C.2    32  SER32       0.2642
     61  O        -22.9510   47.2130  -33.2450 O.2    32  SER32      -0.2714
     62  CB       -20.7960   47.7250  -30.6400 C.3    32  SER32       0.2130
     63  OG       -20.0510   47.2030  -31.7260 O.3    32  SER32      -0.2179
     64  N        -22.5620   49.2580  -32.4250 N.am   33  GLU33      -0.1976
     65  CA       -22.7100   49.9050  -33.7190 C.3    33  GLU33       0.1602
     66  C        -21.6240   49.4760  -34.7210 C.2    33  GLU33       0.2287
     67  O        -21.8690   49.4500  -35.8980 O.2    33  GLU33      -0.2864
     68  CB       -22.7840   51.4310  -33.5670 C.3    33  GLU33       0.0415
     69  CG       -24.1990   51.9250  -33.2380 C.3    33  GLU33       0.1163
     70  CD       -25.2300   51.6070  -34.3300 C.2    33  GLU33       0.3649
     71  OE1      -24.8860   51.7370  -35.5290 O.co2  33  GLU33      -0.2457
     72  OE2      -26.3800   51.2320  -33.9920 O.co2  33  GLU33      -0.2457
     73  N        -22.9940   46.4830  -36.6030 N.3    36  TRP36      -0.1241
     74  CA       -24.0620   46.9080  -37.5570 C.3    36  TRP36       0.1605
     75  C        -23.5060   47.6380  -38.8070 C.2    36  TRP36       0.2264
     76  O        -23.9500   47.3760  -39.9150 O.2    36  TRP36      -0.2867
     77  CB       -25.1270   47.7700  -36.8660 C.3    36  TRP36       0.0550
     78  CG       -25.7900   47.0830  -35.7400 C.ar   36  TRP36       0.0003
     79  CD1      -25.7980   47.4910  -34.4480 C.ar   36  TRP36       0.0946
     80  CD2      -26.4990   45.8320  -35.7770 C.ar   36  TRP36       0.0152
     81  NE1      -26.4710   46.5960  -33.6860 N.ar   36  TRP36      -0.2442
     82  CE2      -26.9030   45.5550  -34.4600 C.ar   36  TRP36       0.0810
     83  CE3      -26.7970   44.9100  -36.7790 C.ar   36  TRP36       0.0012
     84  CZ2      -27.5960   44.4100  -34.1090 C.ar   36  TRP36       0.0191
     85  CZ3      -27.5210   43.7620  -36.4370 C.ar   36  TRP36       0.0001
     86  CH2      -27.9150   43.5260  -35.1010 C.ar   36  TRP36       0.0015
     87  N        -28.6880   37.6440  -36.6640 N.3   171  THR171     -0.1218
     88  CA       -28.8720   39.0670  -37.0020 C.3   171  THR171      0.1862
     89  C        -28.6030   39.4420  -38.4710 C.2   171  THR171      0.2287
     90  O        -28.9030   40.5490  -38.9340 O.2   171  THR171     -0.2866
     91  CB       -28.0330   40.0060  -36.1000 C.3   171  THR171      0.1770
     92  OG1      -26.6270   39.8540  -36.3200 O.3   171  THR171     -0.2211
     93  CG2      -28.3730   39.7940  -34.6340 C.3   171  THR171      0.0375
@<TRIPOS>BOND
     1    76    75    2
     2    90    89    2
     3    75    74    1
     4    89    88    1
     5    74    77    1
     6    74    73    1
     7     7     6    2
     8     8     6   am
     9    88    87    1
    10    88    91    1
    11    77    78    1
    12    83    85   ar
    13    83    80   ar
    14     6     5    1
    15    85    86   ar
    16    92    91    1
    17    91    93    1
    18    67    66    2
    19    80    78   ar
    20    80    82   ar
    21    78    79   ar
    22     1     2    1
    23    27    26   ar
    24    27    25   ar
    25    71    70   ar
    26     5     2    1
    27    86    84   ar
    28     2     3    1
    29    26    24   ar
    30    25    23   ar
    31    66    65    1
    32    82    84   ar
    33    82    81   ar
    34    79    81   ar
    35    70    72   ar
    36    70    69    1
    37    65    68    1
    38    65    64    1
    39    68    69    1
    40    23    22   ar
    41    24    22   ar
    42     3     9   am
    43     3     4    2
    44    61    60    2
    45     9    10    1
    46    22    21    1
    47    56    55    1
    48    64    60   am
    49    60    59    1
    50    15    14   ar
    51    57    55    1
    52    55    54    1
    53    63    62    1
    54    54    51    1
    55    10    11    1
    56    10    13    1
    57    14    16   ar
    58    14    13    1
    59    21    18    1
    60    11    12    2
    61    34    32    1
    62    59    58    1
    63    59    62    1
    64    58    52   am
    65    17    18    1
    66    33    32    1
    67    18    19    1
    68    52    51    1
    69    52    53    2
    70    51    50    1
    71    32    29    1
    72    50    44   am
    73    19    20    2
    74    38    37    2
    75    29    28    1
    76    29    30    1
    77    41    35    1
    78    41    40    1
    79    44    45    2
    80    44    43    1
    81    30    35   am
    82    30    31    2
    83    35    36    1
    84    40    39    1
    85    37    36    1
    86    37    42   am
    87    39    36    1
    88    43    42    1
    89    43    46    1
    90    46    47    1
    91    48    47   ar
    92    47    49   ar
