@<TRIPOS>MOLECULE
tmp/5dx5A00.pdb
 132 122 0 0 0
SMALL
GASTEIGER

@<TRIPOS>ATOM
      1  N         -4.6230    5.6630   15.3650 N.3    86  SER86      -0.1202
      2  CA        -4.7710    7.1040   15.1920 C.3    86  SER86       0.2020
      3  C         -3.9320    7.8130   16.2520 C.2    86  SER86       0.2619
      4  O         -3.5350    7.2100   17.2580 O.2    86  SER86      -0.2717
      5  CB        -6.2300    7.5500   15.2790 C.3    86  SER86       0.2103
      6  OG        -6.7070    7.4930   16.6060 O.3    86  SER86      -0.2182
      7  N         -3.6540    9.1000   16.0040 N.am   87  GLY87      -0.1942
      8  CA        -3.0040    9.9130   17.0230 C.3    87  GLY87       0.2014
      9  C         -3.7820    9.9240   18.3260 C.2    87  GLY87       0.2638
     10  O         -3.2300    9.6580   19.3970 O.2    87  GLY87      -0.2714
     11  N         -5.0870   10.2080   18.2480 N.am   88  MET88      -0.1976
     12  CA        -5.9270   10.1760   19.4400 C.3    88  MET88       0.1605
     13  C         -5.9110    8.8060   20.1090 C.2    88  MET88       0.2287
     14  O         -6.0120    8.7240   21.3380 O.2    88  MET88      -0.2864
     15  CB        -7.3580   10.5860   19.0850 C.3    88  MET88       0.0413
     16  CG        -7.4990   12.0640   18.7330 C.3    88  MET88       0.0598
     17  SD        -6.6530   13.1920   19.8890 S.3    88  MET88      -0.1393
     18  CE        -7.6810   12.9800   21.3330 C.3    88  MET88       0.0692
     19  N         -2.6780    8.6940   22.1080 N.3    91  ILE91      -0.1245
     20  CA        -2.8070    9.6050   23.2400 C.3    91  ILE91       0.1561
     21  C         -3.7370    9.0160   24.2990 C.2    91  ILE91       0.2260
     22  O         -3.3990    8.9640   25.4880 O.2    91  ILE91      -0.2867
     23  CB        -3.2990   10.9800   22.7480 C.3    91  ILE91       0.0252
     24  CG1       -2.2490   11.6080   21.8210 C.3    91  ILE91       0.0019
     25  CG2       -3.6730   11.8760   23.9210 C.3    91  ILE91       0.0019
     26  CD1       -2.6790   12.8980   21.1350 C.3    91  ILE91       0.0001
     27  N         -3.9980   20.7650   20.6380 N.3   112  TYR112     -0.1241
     28  CA        -4.8320   20.2670   19.5550 C.3   112  TYR112      0.1605
     29  C         -6.2630   20.0610   20.0400 C.2   112  TYR112      0.2264
     30  O         -6.4910   19.4970   21.1120 O.2   112  TYR112     -0.2867
     31  CB        -4.2470   18.9530   19.0350 C.3   112  TYR112      0.0534
     32  CG        -5.1250   18.2600   18.0390 C.ar  112  TYR112     -0.0201
     33  CD1       -5.4340   18.8680   16.8290 C.ar  112  TYR112     -0.0009
     34  CD2       -5.6420   16.9850   18.2970 C.ar  112  TYR112     -0.0009
     35  CE1       -6.2360   18.2360   15.8960 C.ar  112  TYR112      0.0417
     36  CE2       -6.4530   16.3440   17.3740 C.ar  112  TYR112      0.0417
     37  CZ        -6.7420   16.9790   16.1670 C.ar  112  TYR112      0.1957
     38  OH        -7.5390   16.3700   15.2240 O.3   112  TYR112     -0.2866
     39  N         -7.4250   16.6460   21.3870 N.3   115  THR115     -0.1218
     40  CA        -6.7410   16.3840   22.6540 C.3   115  THR115      0.1862
     41  C         -7.3810   17.1740   23.7820 C.2   115  THR115      0.2287
     42  O         -7.6210   16.6450   24.8720 O.2   115  THR115     -0.2866
     43  CB        -5.2580   16.7510   22.5650 C.3   115  THR115      0.1770
     44  OG1       -4.6460   16.0670   21.4670 O.3   115  THR115     -0.2211
     45  CG2       -4.5240   16.3860   23.8800 C.3   115  THR115      0.0375
     46  N          2.5410   19.9960   24.4910 N.3   155  GLU155     -0.1245
     47  CA         2.5000   19.9210   23.0330 C.3   155  GLU155      0.1567
     48  C          3.3080   21.1050   22.5120 C.2   155  GLU155      0.2260
     49  O          2.9220   22.2570   22.7290 O.2   155  GLU155     -0.2867
     50  CB         1.0470   19.9670   22.5520 C.3   155  GLU155      0.0388
     51  CG         0.8080   19.8140   21.0750 C.3   155  GLU155      0.1160
     52  CD        -0.6410   20.0760   20.7230 C.2   155  GLU155      0.3649
     53  OE1       -0.9080   21.0480   19.9870 O.co2 155  GLU155     -0.2457
     54  OE2       -1.5210   19.3190   21.1890 O.co2 155  GLU155     -0.2457
     55  N         -0.8100   23.9930   18.4420 N.3   159  ASN159     -0.1240
     56  CA        -1.8710   24.6900   17.7270 C.3   159  ASN159      0.1653
     57  C         -2.3700   25.8850   18.5460 C.2   159  ASN159      0.2266
     58  O         -2.2370   25.8910   19.7750 O.2   159  ASN159     -0.2867
     59  CB        -3.0190   23.7290   17.4440 C.3   159  ASN159      0.1155
     60  CG        -2.6360   22.6440   16.4550 C.2   159  ASN159      0.2627
     61  OD1       -2.7320   22.8440   15.2420 O.2   159  ASN159     -0.2716
     62  ND2       -2.1960   21.4940   16.9660 N.am  159  ASN159     -0.0877
     63  N          3.6370   15.8750   23.1650 N.3   186  ASP186     -0.1239
     64  CA         3.2110   15.6390   21.7970 C.3   186  ASP186      0.1674
     65  C          4.2460   16.2270   20.8440 C.2   186  ASP186      0.2266
     66  O          4.4800   17.4410   20.8340 O.2   186  ASP186     -0.2867
     67  CB         1.8350   16.2500   21.5610 C.3   186  ASP186      0.1410
     68  CG         1.2560   15.8960   20.1850 C.2   186  ASP186      0.3668
     69  OD1        0.0170   15.9410   20.0270 O.co2 186  ASP186     -0.2456
     70  OD2        2.0290   15.5570   19.2750 O.co2 186  ASP186     -0.2456
     71  N          4.3130   15.7500   17.3710 N.3   188  THR188     -0.1203
     72  CA         3.8340   15.5690   16.0060 C.3   188  THR188      0.1994
     73  C          4.4920   16.5590   15.0430 C.2   188  THR188      0.2617
     74  O          5.0970   16.1560   14.0370 O.2   188  THR188     -0.2717
     75  CB         2.3120   15.7210   15.9960 C.3   188  THR188      0.1784
     76  OG1        1.7330   14.7150   16.8330 O.3   188  THR188     -0.2211
     77  CG2        1.7410   15.6060   14.5850 C.3   188  THR188      0.0376
     78  N          4.4130   17.8590   15.3590 N.am  189  PHE189     -0.1975
     79  CA         4.8740   18.9060   14.4500 C.3   189  PHE189      0.1639
     80  C          6.3640   18.7950   14.1370 C.2   189  PHE189      0.2290
     81  O          6.7960   19.1980   13.0470 O.2   189  PHE189     -0.2864
     82  CB         4.5740   20.2870   15.0290 C.3   189  PHE189      0.0560
     83  CG         3.1190   20.7020   14.9560 C.ar  189  PHE189     -0.0200
     84  CD1        2.1210   19.7980   14.6230 C.ar  189  PHE189     -0.0042
     85  CD2        2.7580   22.0260   15.1980 C.ar  189  PHE189     -0.0042
     86  CE1        0.7760   20.1980   14.5590 C.ar  189  PHE189     -0.0003
     87  CE2        1.4240   22.4410   15.1290 C.ar  189  PHE189     -0.0003
     88  CZ         0.4270   21.5200   14.8170 C.ar  189  PHE189     -0.0000
     89  N          1.0300   11.8680   16.2670 N.3   208  SER208     -0.1217
     90  CA         0.0840   11.5420   15.2090 C.3   208  SER208      0.1889
     91  C          0.9250   11.1980   13.9890 C.2   208  SER208      0.2288
     92  O          1.4880   12.0870   13.3480 O.2   208  SER208     -0.2866
     93  CB        -0.8800   12.6880   14.9280 C.3   208  SER208      0.2089
     94  OG        -1.6980   12.3570   13.8140 O.3   208  SER208     -0.2183
     95  N         -0.2250   10.1360   11.2900 N.3   210  THR210     -0.1203
     96  CA        -1.0200   10.6550   10.1900 C.3   210  THR210      0.1994
     97  C         -0.3640   11.8430    9.4850 C.2   210  THR210      0.2617
     98  O         -0.5410   12.0450    8.2810 O.2   210  THR210     -0.2717
     99  CB        -2.3810   11.0750   10.7230 C.3   210  THR210      0.1784
    100  OG1       -2.9640    9.9470   11.3860 O.3   210  THR210     -0.2211
    101  CG2       -3.2820   11.5670    9.6090 C.3   210  THR210      0.0376
    102  N          0.3980   12.6210   10.2480 N.am  211  LYS211     -0.1979
    103  CA         1.0660   13.8280    9.7420 C.3   211  LYS211      0.1596
    104  C          2.4170   13.5170    9.1560 C.2   211  LYS211      0.2287
    105  O          2.4750   12.7230    8.2310 O.2   211  LYS211     -0.2864
    106  CB         1.0570   14.8060   10.8890 C.3   211  LYS211      0.0298
    107  CG        -0.2940   14.6650   11.6390 C.3   211  LYS211      0.0038
    108  CD        -1.5260   15.2770   10.9200 C.3   211  LYS211      0.0206
    109  CE        -2.8230   15.0910   11.7670 C.3   211  LYS211      0.1093
    110  NZ        -2.6370   15.7080   13.1020 N.3   211  LYS211     -0.1314
    111  N         -4.1370    6.9710    8.8070 N.3   220  ILE220     -0.1245
    112  CA        -4.4660    7.4970   10.1270 C.3   220  ILE220      0.1561
    113  C         -3.8030    6.5740   11.1450 C.2   220  ILE220      0.2260
    114  O         -4.1240    5.3790   11.1940 O.2   220  ILE220     -0.2867
    115  CB        -5.9890    7.5540   10.3480 C.3   220  ILE220      0.0252
    116  CG1       -6.6770    8.3960    9.2640 C.3   220  ILE220      0.0019
    117  CG2       -6.3400    8.0680   11.7680 C.3   220  ILE220      0.0019
    118  CD1       -6.6000    9.9150    9.4650 C.3   220  ILE220      0.0001
    119  N         -5.5740   18.7310    8.5940 N.3   340  SER340     -0.1202
    120  CA        -4.4120   17.8370    8.6700 C.3   340  SER340      0.2020
    121  C         -3.1650   18.5770    8.1980 C.2   340  SER340      0.2618
    122  O         -3.2460   19.7370    7.7840 O.2   340  SER340     -0.2717
    123  CB        -4.6070   16.5390    7.8750 C.3   340  SER340      0.2103
    124  OG        -3.5400   15.6350    8.0950 O.3   340  SER340     -0.2182
    125  N         -2.0040   17.9360    8.2900 N.am  341  LEU341     -0.1979
    126  CA        -0.7490   18.5760    7.9140 C.3   341  LEU341      0.1596
    127  C          0.2940   17.4930    7.7010 C.2   341  LEU341      0.2287
    128  O          0.0090   16.2980    7.8180 O.2   341  LEU341     -0.2864
    129  CB        -0.2970   19.6020    8.9620 C.3   341  LEU341      0.0297
    130  CG        -0.0210   19.3190   10.4590 C.3   341  LEU341      0.0022
    131  CD1       -1.2750   18.9620   11.2520 C.3   341  LEU341      0.0001
    132  CD2        1.0990   18.3100   10.7040 C.3   341  LEU341      0.0001
@<TRIPOS>BOND
     1   127   128    2
     2   127   126    1
     3   122   121    2
     4   123   124    1
     5   123   120    1
     6   126   125    1
     7   126   129    1
     8   121   125   am
     9   121   120    1
    10   105   104    2
    11    98    97    2
    12   119   120    1
    13   111   112    1
    14   129   130    1
    15   104   103    1
    16   116   118    1
    17   116   115    1
    18    97    96    1
    19    97   102   am
    20   101    99    1
    21   103   102    1
    22   103   106    1
    23   112   115    1
    24   112   113    1
    25    96    99    1
    26    96    95    1
    27   115   117    1
    28   130   132    1
    29   130   131    1
    30    99   100    1
    31   106   107    1
    32   108   107    1
    33   108   109    1
    34   113   114    2
    35   109   110    1
    36    81    80    2
    37    92    91    2
    38    94    93    1
    39    91    90    1
    40    74    73    2
    41    80    79    1
    42    79    82    1
    43    79    78    1
    44    86    84   ar
    45    86    88   ar
    46    77    75    1
    47    84    83   ar
    48    88    87   ar
    49    93    90    1
    50    83    82    1
    51    83    85   ar
    52    73    78   am
    53    73    72    1
    54    87    85   ar
    55     2     5    1
    56     2     1    1
    57     2     3    1
    58    90    89    1
    59    38    37    1
    60    61    60    2
    61     5     6    1
    62    35    37   ar
    63    35    33   ar
    64    75    72    1
    65    75    76    1
    66     7     3   am
    67     7     8    1
    68    72    71    1
    69    37    36   ar
    70     3     4    2
    71    60    62   am
    72    60    59    1
    73    33    32   ar
    74     8     9    1
    75    36    34   ar
    76    59    56    1
    77    56    55    1
    78    56    57    1
    79    32    34   ar
    80    32    31    1
    81    11     9   am
    82    11    12    1
    83     9    10    2
    84    57    58    2
    85    16    15    1
    86    16    17    1
    87    31    28    1
    88    15    12    1
    89    70    68   ar
    90    12    13    1
    91    28    29    1
    92    28    27    1
    93    17    18    1
    94    53    52   ar
    95    69    68   ar
    96    29    30    2
    97    13    14    2
    98    68    67    1
    99    52    51    1
   100    52    54   ar
   101    66    65    2
   102    65    64    1
   103    51    50    1
   104    26    24    1
   105    39    40    1
   106    44    43    1
   107    67    64    1
   108    64    63    1
   109    24    23    1
   110    19    20    1
   111    48    49    2
   112    48    47    1
   113    50    47    1
   114    43    40    1
   115    43    45    1
   116    40    41    1
   117    23    20    1
   118    23    25    1
   119    47    46    1
   120    20    21    1
   121    41    42    2
   122    21    22    2
