@<TRIPOS>MOLECULE
tmp/5dx6A00.pdb
 180 175 0 0 0
SMALL
GASTEIGER

@<TRIPOS>ATOM
      1  N         81.5750  -68.1570   51.3660 N.3    85  THR85      -0.1218
      2  CA        81.1780  -67.6140   50.0650 C.3    85  THR85       0.1862
      3  C         82.3950  -67.2210   49.2320 C.2    85  THR85       0.2287
      4  O         82.4570  -67.5150   48.0330 O.2    85  THR85      -0.2866
      5  CB        80.2470  -66.4120   50.2560 C.3    85  THR85       0.1770
      6  OG1       79.0590  -66.8500   50.9110 O.3    85  THR85      -0.2211
      7  CG2       79.8560  -65.7730   48.9170 C.3    85  THR85       0.0375
      8  N         78.3620  -58.0860   40.2880 N.3   381  MET381     -0.1230
      9  CA        77.2070  -58.7530   39.6990 C.3   381  MET381      0.1702
     10  C         75.9460  -57.8980   39.8300 C.2   381  MET381      0.2593
     11  O         75.6700  -57.3340   40.8940 O.2   381  MET381     -0.2718
     12  CB        76.9810  -60.1210   40.3590 C.3   381  MET381      0.0401
     13  CG        75.8750  -60.9370   39.7300 C.3   381  MET381      0.0596
     14  SD        75.9870  -61.1740   37.9460 S.3   381  MET381     -0.1393
     15  CE        77.6030  -61.9050   37.8210 C.3   381  MET381      0.0692
     16  N         75.1790  -57.8360   38.7500 N.am  382  GLY382     -0.1942
     17  CA        74.0120  -56.9780   38.6450 C.3   382  GLY382      0.2014
     18  C         73.7580  -56.6550   37.1830 C.2   382  GLY382      0.2640
     19  O         74.4570  -57.1250   36.2930 O.2   382  GLY382     -0.2714
     20  N         72.7260  -55.8360   36.9460 N.am  383  SER383     -0.1935
     21  CA        72.3220  -55.5690   35.5670 C.3   383  SER383      0.2055
     22  C         73.4620  -54.9380   34.7750 C.2   383  SER383      0.2643
     23  O         73.6550  -55.2430   33.5930 O.2   383  SER383     -0.2714
     24  CB        71.0820  -54.6640   35.5400 C.3   383  SER383      0.2130
     25  OG        69.9120  -55.3750   35.9420 O.3   383  SER383     -0.2179
     26  N         74.2200  -54.0480   35.4090 N.am  384  PHE384     -0.1973
     27  CA        75.3990  -53.4680   34.7690 C.3   384  PHE384      0.1639
     28  C         76.3690  -54.5440   34.2930 C.2   384  PHE384      0.2290
     29  O         77.1170  -54.3390   33.3290 O.2   384  PHE384     -0.2864
     30  CB        76.1050  -52.5420   35.7580 C.3   384  PHE384      0.0560
     31  CG        76.5830  -53.2610   36.9740 C.ar  384  PHE384     -0.0200
     32  CD1       77.8670  -53.7920   37.0310 C.ar  384  PHE384     -0.0042
     33  CD2       75.7210  -53.4730   38.0330 C.ar  384  PHE384     -0.0042
     34  CE1       78.2910  -54.4960   38.1430 C.ar  384  PHE384     -0.0003
     35  CE2       76.1300  -54.1760   39.1490 C.ar  384  PHE384     -0.0003
     36  CZ        77.4140  -54.6940   39.2050 C.ar  384  PHE384     -0.0000
     37  N         79.0870  -68.3020   40.2110 N.3   406  GLN406     -0.1231
     38  CA        78.2250  -68.2710   41.3930 C.3   406  GLN406      0.1698
     39  C         77.3870  -67.0040   41.4530 C.2   406  GLN406      0.2592
     40  O         76.4350  -66.9400   42.2410 O.2   406  GLN406     -0.2718
     41  CB        79.0670  -68.3710   42.6560 C.3   406  GLN406      0.0381
     42  CG        79.7850  -69.7070   42.8230 C.3   406  GLN406      0.0905
     43  CD        78.8370  -70.8470   43.1400 C.2   406  GLN406      0.2608
     44  OE1       77.6990  -70.6320   43.5540 O.2   406  GLN406     -0.2717
     45  NE2       79.3030  -72.0660   42.9460 N.am  406  GLN406     -0.0878
     46  N         77.7320  -66.0030   40.6390 N.am  407  GLN407     -0.1966
     47  CA        77.0110  -64.7290   40.5660 C.3   407  GLN407      0.1733
     48  C         77.0510  -63.9980   41.9060 C.2   407  GLN407      0.2617
     49  O         76.0990  -63.3290   42.3070 O.2   407  GLN407     -0.2715
     50  CB        75.5780  -64.9430   40.0720 C.3   407  GLN407      0.0408
     51  CG        75.5470  -65.4150   38.6120 C.3   407  GLN407      0.0908
     52  CD        74.1450  -65.6030   38.0660 C.2   407  GLN407      0.2608
     53  OE1       73.2800  -66.1930   38.7180 O.2   407  GLN407     -0.2717
     54  NE2       73.9140  -65.1030   36.8580 N.am  407  GLN407     -0.0878
     55  N         78.1900  -64.1010   42.5800 N.am  408  THR408     -0.1937
     56  CA        78.3780  -63.5070   43.8950 C.3   408  THR408      0.2028
     57  C         78.4650  -61.9910   43.8250 C.2   408  THR408      0.2642
     58  O         79.3100  -61.4450   43.1130 O.2   408  THR408     -0.2714
     59  CB        79.6640  -64.0310   44.5090 C.3   408  THR408      0.1808
     60  OG1       79.6640  -65.4570   44.4680 O.3   408  THR408     -0.2208
     61  CG2       79.7890  -63.5530   45.9310 C.3   408  THR408      0.0379
     62  N         77.6340  -61.3190   44.6180 N.am  409  MET409     -0.1976
     63  CA        77.7250  -59.8820   44.7980 C.3   409  MET409      0.1605
     64  C         78.8720  -59.5130   45.7180 C.2   409  MET409      0.2287
     65  O         79.2560  -60.2710   46.6120 O.2   409  MET409     -0.2864
     66  CB        76.4670  -59.3070   45.4330 C.3   409  MET409      0.0413
     67  CG        75.2380  -59.4960   44.6970 C.3   409  MET409      0.0598
     68  SD        73.8990  -59.1750   45.8810 S.3   409  MET409     -0.1393
     69  CE        74.3420  -57.5880   46.5730 C.3   409  MET409      0.0692
     70  N         76.9260  -52.3580   41.3720 N.3   433  GLY433     -0.1210
     71  CA        75.6890  -51.6820   41.6950 C.3   433  GLY433      0.1956
     72  C         75.6970  -51.2470   43.1440 C.2   433  GLY433      0.2612
     73  O         76.6560  -51.4750   43.8800 O.2   433  GLY433     -0.2717
     74  N         74.5940  -50.6080   43.5590 N.am  434  ASP434     -0.1959
     75  CA        74.5020  -50.1700   44.9500 C.3   434  ASP434      0.1840
     76  C         74.2840  -51.3440   45.9040 C.2   434  ASP434      0.2623
     77  O         74.7240  -51.2880   47.0550 O.2   434  ASP434     -0.2715
     78  CB        73.3980  -49.1150   45.1340 C.3   434  ASP434      0.1450
     79  CG        72.1990  -49.3220   44.2340 C.2   434  ASP434      0.3671
     80  OD1       71.9430  -50.4530   43.7730 O.co2 434  ASP434     -0.2456
     81  OD2       71.4870  -48.3190   44.0070 O.co2 434  ASP434     -0.2456
     82  N         73.6350  -52.4150   45.4470 N.am  435  GLY435     -0.1940
     83  CA        73.5080  -53.6020   46.2850 C.3   435  GLY435      0.2014
     84  C         74.8450  -54.2730   46.5420 C.2   435  GLY435      0.2639
     85  O         75.2300  -54.5020   47.6900 O.2   435  GLY435     -0.2714
     86  N         75.5780  -54.5910   45.4730 N.am  436  GLY436     -0.1954
     87  CA        76.8760  -55.2230   45.6450 C.3   436  GLY436      0.1869
     88  C         77.8470  -54.3400   46.4010 C.2   436  GLY436      0.2309
     89  O         78.6530  -54.8250   47.1980 O.2   436  GLY436     -0.2863
     90  N         77.8610  -54.6770   50.1850 N.3   439  GLN439     -0.1245
     91  CA        78.2390  -55.9540   50.7750 C.3   439  GLN439      0.1566
     92  C         79.7380  -56.0400   51.0420 C.2   439  GLN439      0.2260
     93  O         80.1590  -56.8230   51.9000 O.2   439  GLN439     -0.2867
     94  CB        77.7750  -57.1160   49.8860 C.3   439  GLN439      0.0367
     95  CG        76.2380  -57.3040   49.8500 C.3   439  GLN439      0.0905
     96  CD        75.8020  -58.7650   49.7190 C.2   439  GLN439      0.2608
     97  OE1       76.6180  -59.6440   49.4460 O.2   439  GLN439     -0.2717
     98  NE2       74.5120  -59.0260   49.9300 N.am  439  GLN439     -0.0878
     99  N         76.8480  -47.8860   39.7930 N.3   459  TRP459     -0.1241
    100  CA        75.6170  -47.6210   39.0610 C.3   459  TRP459      0.1605
    101  C         74.4910  -47.5850   40.0880 C.2   459  TRP459      0.2264
    102  O         74.1640  -48.6190   40.6780 O.2   459  TRP459     -0.2867
    103  CB        75.3630  -48.6910   38.0070 C.3   459  TRP459      0.0550
    104  CG        76.3530  -48.7440   36.8720 C.ar  459  TRP459      0.0003
    105  CD1       77.6940  -48.5100   36.9350 C.ar  459  TRP459      0.0946
    106  CD2       76.0700  -49.0920   35.5160 C.ar  459  TRP459      0.0152
    107  NE1       78.2690  -48.6890   35.6930 N.ar  459  TRP459     -0.2442
    108  CE2       77.2900  -49.0470   34.8070 C.ar  459  TRP459      0.0810
    109  CE3       74.9030  -49.4390   34.8310 C.ar  459  TRP459      0.0012
    110  CZ2       77.3740  -49.3320   33.4600 C.ar  459  TRP459      0.0191
    111  CZ3       74.9900  -49.7220   33.4850 C.ar  459  TRP459      0.0001
    112  CH2       76.2230  -49.6680   32.8120 C.ar  459  TRP459      0.0015
    113  N         70.7410  -47.1390   41.4250 N.3   461  ASP461     -0.1239
    114  CA        69.3240  -47.2190   41.1040 C.3   461  ASP461      0.1674
    115  C         68.4490  -47.3600   42.3430 C.2   461  ASP461      0.2266
    116  O         67.2210  -47.3800   42.2100 O.2   461  ASP461     -0.2867
    117  CB        69.0420  -48.4050   40.1740 C.3   461  ASP461      0.1410
    118  CG        69.1310  -49.7400   40.8990 C.2   461  ASP461      0.3668
    119  OD1       68.2590  -50.6040   40.6710 O.co2 461  ASP461     -0.2456
    120  OD2       70.0720  -49.9200   41.7030 O.co2 461  ASP461     -0.2456
    121  N         68.0350  -50.0110   44.1480 N.3   463  GLY463     -0.1210
    122  CA        67.3390  -51.2850   44.1390 C.3   463  GLY463      0.1956
    123  C         68.2500  -52.4160   43.7180 C.2   463  GLY463      0.2612
    124  O         69.4450  -52.2260   43.4740 O.2   463  GLY463     -0.2717
    125  N         67.6570  -53.6100   43.6420 N.am  464  TYR464     -0.1962
    126  CA        68.3250  -54.8010   43.1160 C.3   464  TYR464      0.1771
    127  C         67.7930  -55.0220   41.7020 C.2   464  TYR464      0.2620
    128  O         66.9080  -55.8430   41.4600 O.2   464  TYR464     -0.2715
    129  CB        68.0550  -56.0180   44.0080 C.3   464  TYR464      0.0574
    130  CG        68.6380  -55.9820   45.4090 C.ar  464  TYR464     -0.0198
    131  CD1       69.9930  -55.8110   45.6190 C.ar  464  TYR464     -0.0009
    132  CD2       67.8300  -56.1820   46.5210 C.ar  464  TYR464     -0.0009
    133  CE1       70.5250  -55.8000   46.8920 C.ar  464  TYR464      0.0417
    134  CE2       68.3540  -56.1790   47.7980 C.ar  464  TYR464      0.0417
    135  CZ        69.6980  -55.9910   47.9790 C.ar  464  TYR464      0.1957
    136  OH        70.2230  -55.9830   49.2490 O.3   464  TYR464     -0.2866
    137  N         68.3370  -54.2700   40.7440 N.am  465  ASN465     -0.1958
    138  CA        67.6560  -54.1910   39.4570 C.3   465  ASN465      0.1819
    139  C         67.6600  -55.5270   38.7300 C.2   465  ASN465      0.2621
    140  O         66.6490  -55.9100   38.1370 O.2   465  ASN465     -0.2715
    141  CB        68.2700  -53.1230   38.5600 C.3   465  ASN465      0.1195
    142  CG        67.5450  -53.0230   37.2480 C.2   465  ASN465      0.2630
    143  OD1       67.9570  -53.6070   36.2420 O.2   465  ASN465     -0.2716
    144  ND2       66.4170  -52.3080   37.2590 N.am  465  ASN465     -0.0877
    145  N         68.7800  -56.2510   38.7400 N.am  466  MET466     -0.1963
    146  CA        68.8140  -57.4750   37.9520 C.3   466  MET466      0.1736
    147  C         67.7000  -58.4270   38.3910 C.2   466  MET466      0.2616
    148  O         67.0910  -59.1110   37.5600 O.2   466  MET466     -0.2715
    149  CB        70.1870  -58.1340   38.0590 C.3   466  MET466      0.0427
    150  CG        70.4400  -59.1780   36.9800 C.3   466  MET466      0.0599
    151  SD        72.1350  -59.8000   36.9590 S.3   466  MET466     -0.1393
    152  CE        72.0070  -61.0770   35.7190 C.3   466  MET466      0.0692
    153  N         67.3930  -58.4550   39.6900 N.am  467  VAL467     -0.1977
    154  CA        66.2910  -59.2870   40.1720 C.3   467  VAL467      0.1596
    155  C         64.9570  -58.6720   39.7770 C.2   467  VAL467      0.2287
    156  O         64.0510  -59.3720   39.3170 O.2   467  VAL467     -0.2864
    157  CB        66.3910  -59.4900   41.6970 C.3   467  VAL467      0.0276
    158  CG1       65.2190  -60.3630   42.2200 C.3   467  VAL467      0.0022
    159  CG2       67.6930  -60.1240   42.0480 C.3   467  VAL467      0.0022
    160  N         63.7260  -59.3810   36.2180 N.3   470  GLN470     -0.1245
    161  CA        63.1580  -60.7150   36.0640 C.3   470  GLN470      0.1566
    162  C         61.7850  -60.8130   36.7180 C.2   470  GLN470      0.2260
    163  O         60.8720  -61.4320   36.1620 O.2   470  GLN470     -0.2867
    164  CB        64.1040  -61.7530   36.6560 C.3   470  GLN470      0.0367
    165  CG        65.3280  -62.0160   35.8210 C.3   470  GLN470      0.0905
    166  CD        65.5350  -63.4980   35.5850 C.2   470  GLN470      0.2608
    167  OE1       64.6030  -64.2100   35.1970 O.2   470  GLN470     -0.2717
    168  NE2       66.7510  -63.9780   35.8390 N.am  470  GLN470     -0.0878
    169  N         67.5700  -47.6070   34.1000 N.3   530  TYR530     -0.1241
    170  CA        67.5000  -48.9730   33.6210 C.3   530  TYR530      0.1605
    171  C         66.2330  -49.2570   32.8230 C.2   530  TYR530      0.2264
    172  O         65.9530  -50.4230   32.5400 O.2   530  TYR530     -0.2867
    173  CB        67.5920  -49.9380   34.8120 C.3   530  TYR530      0.0534
    174  CG        68.9850  -50.2680   35.3230 C.ar  530  TYR530     -0.0201
    175  CD1       70.0880  -50.3630   34.4690 C.ar  530  TYR530     -0.0009
    176  CD2       69.1920  -50.5230   36.6720 C.ar  530  TYR530     -0.0009
    177  CE1       71.3480  -50.7140   34.9650 C.ar  530  TYR530      0.0417
    178  CE2       70.4320  -50.8570   37.1650 C.ar  530  TYR530      0.0417
    179  CZ        71.5080  -50.9550   36.3170 C.ar  530  TYR530      0.1957
    180  OH        72.7290  -51.2980   36.8560 O.3   530  TYR530     -0.2866
@<TRIPOS>BOND
     1   172   171    2
     2   112   110   ar
     3   112   111   ar
     4   171   170    1
     5    29    28    2
     6   110   108   ar
     7   111   109   ar
     8    23    22    2
     9   170   169    1
    10   170   173    1
    11    28    27    1
    12   175   177   ar
    13   175   174   ar
    14    27    26    1
    15    27    30    1
    16    22    26   am
    17    22    21    1
    18   108   106   ar
    19   108   107   ar
    20   173   174    1
    21   109   106   ar
    22   177   179   ar
    23   167   166    2
    24   174   176   ar
    25   106   104   ar
    26    24    21    1
    27    24    25    1
    28    21    20    1
    29   166   165    1
    30   166   168   am
    31   107   105   ar
    32   152   151    1
    33    30    31    1
    34   165   164    1
    35   161   160    1
    36   161   164    1
    37   161   162    1
    38   163   162    2
    39   143   142    2
    40    19    18    2
    41   179   180    1
    42   179   178   ar
    43   176   178   ar
    44    54    52   am
    45   104   105   ar
    46   104   103    1
    47    20    18   am
    48   151   150    1
    49    31    32   ar
    50    31    33   ar
    51   150   149    1
    52    32    34   ar
    53    18    17    1
    54   142   144   am
    55   142   141    1
    56   148   147    2
    57    15    14    1
    58    14    13    1
    59   146   149    1
    60   146   147    1
    61   146   145    1
    62   103   100    1
    63    33    35   ar
    64    52    51    1
    65    52    53    2
    66   140   139    2
    67    34    36   ar
    68   147   153   am
    69   141   138    1
    70    51    50    1
    71    17    16    1
    72   139   145   am
    73   139   138    1
    74    16    10   am
    75   100    99    1
    76   100   101    1
    77    35    36   ar
    78   156   155    2
    79   138   137    1
    80   153   154    1
    81     9    10    1
    82     9     8    1
    83     9    12    1
    84    13    12    1
    85   155   154    1
    86    10    11    2
    87    50    47    1
    88   101   102    2
    89   154   157    1
    90   117   118    1
    91   117   114    1
    92    37    38    1
    93    47    46    1
    94    47    48    1
    95    46    39   am
    96   119   118   ar
    97   137   127   am
    98   118   120   ar
    99   114   113    1
   100   114   115    1
   101    70    71    1
   102    38    39    1
   103    38    41    1
   104    39    40    2
   105   128   127    2
   106    71    72    1
   107   157   159    1
   108   157   158    1
   109   127   126    1
   110    48    49    2
   111    48    55   am
   112   116   115    2
   113    55    56    1
   114    41    42    1
   115    42    43    1
   116    45    43   am
   117    58    57    2
   118   126   125    1
   119   126   129    1
   120    43    44    2
   121    72    74   am
   122    72    73    2
   123   124   123    2
   124    74    75    1
   125   125   123   am
   126   123   122    1
   127    80    79   ar
   128    57    56    1
   129    57    62   am
   130    56    59    1
   131    81    79   ar
   132   129   130    1
   133   122   121    1
   134    79    78    1
   135    60    59    1
   136    59    61    1
   137    62    63    1
   138    67    66    1
   139    67    68    1
   140    63    66    1
   141    63    64    1
   142    75    78    1
   143    75    76    1
   144   130   131   ar
   145   130   132   ar
   146    82    76   am
   147    82    83    1
   148    86    87    1
   149    86    84   am
   150   131   133   ar
   151    87    88    1
   152    64    65    2
   153    68    69    1
   154    76    77    2
   155    83    84    1
   156    88    89    2
   157   132   134   ar
   158    84    85    2
   159   133   135   ar
   160   134   135   ar
   161   135   136    1
   162     4     3    2
   163     7     5    1
   164     3     2    1
   165    97    96    2
   166    96    95    1
   167    96    98   am
   168    95    94    1
   169    94    91    1
   170     2     5    1
   171     2     1    1
   172    90    91    1
   173     5     6    1
   174    91    92    1
   175    92    93    2
