@<TRIPOS>MOLECULE
tmp/5dx6B00.pdb
 187 182 0 0 0
SMALL
GASTEIGER

@<TRIPOS>ATOM
      1  N         76.0860 -103.4210   57.6950 N.3    96  THR96      -0.1218
      2  CA        74.7340 -103.9470   57.5160 C.3    96  THR96       0.1862
      3  C         74.0980 -104.2870   58.8560 C.2    96  THR96       0.2287
      4  O         72.9300 -103.9660   59.0940 O.2    96  THR96      -0.2866
      5  CB        74.7630 -105.1700   56.6070 C.3    96  THR96       0.1770
      6  OG1       75.1760 -104.7550   55.3030 O.3    96  THR96      -0.2211
      7  CG2       73.3870 -105.8280   56.4920 C.3    96  THR96       0.0375
      8  N         64.7390 -113.5980   56.3720 N.3   392  MET392     -0.1230
      9  CA        63.9980 -112.9440   55.3000 C.3   392  MET392      0.1702
     10  C         63.9810 -113.7880   54.0320 C.2   392  MET392      0.2593
     11  O         65.0140 -114.3130   53.6100 O.2   392  MET392     -0.2718
     12  CB        64.6100 -111.5840   54.9890 C.3   392  MET392      0.0401
     13  CG        63.8420 -110.7950   53.9690 C.3   392  MET392      0.0596
     14  SD        62.1010 -110.5650   54.3970 S.3   392  MET392     -0.1393
     15  CE        62.1620 -109.9050   56.0440 C.3   392  MET392      0.0692
     16  N         62.8130 -113.8310   53.3990 N.am  393  GLY393     -0.1942
     17  CA        62.5390 -114.6450   52.2290 C.3   393  GLY393      0.2014
     18  C         61.0580 -114.9860   52.2150 C.2   393  GLY393      0.2640
     19  O         60.2890 -114.5330   53.0580 O.2   393  GLY393     -0.2714
     20  N         60.6630 -115.8040   51.2400 N.am  394  SER394     -0.1935
     21  CA        59.2360 -116.0840   51.0890 C.3   394  SER394      0.2055
     22  C         58.6600 -116.7810   52.3230 C.2   394  SER394      0.2643
     23  O         57.5030 -116.5470   52.6920 O.2   394  SER394     -0.2714
     24  CB        58.9970 -116.9250   49.8410 C.3   394  SER394      0.2130
     25  OG        59.2290 -116.1430   48.6860 O.3   394  SER394     -0.2179
     26  N         59.4350 -117.6690   52.9480 N.am  395  PHE395     -0.1973
     27  CA        58.9840 -118.3620   54.1560 C.3   395  PHE395      0.1639
     28  C         58.5830 -117.3780   55.2490 C.2   395  PHE395      0.2290
     29  O         57.7080 -117.6810   56.0680 O.2   395  PHE395     -0.2864
     30  CB        60.1030 -119.2640   54.6770 C.3   395  PHE395      0.0560
     31  CG        61.3140 -118.4910   55.0000 C.ar  395  PHE395     -0.0200
     32  CD1       61.5070 -117.9850   56.2700 C.ar  395  PHE395     -0.0042
     33  CD2       62.1910 -118.1440   53.9970 C.ar  395  PHE395     -0.0042
     34  CE1       62.5850 -117.1980   56.5390 C.ar  395  PHE395     -0.0003
     35  CE2       63.2750 -117.3560   54.2580 C.ar  395  PHE395     -0.0003
     36  CZ        63.4710 -116.8710   55.5290 C.ar  395  PHE395     -0.0000
     37  N         64.4220 -103.5450   57.1220 N.3   417  GLN417     -0.1231
     38  CA        65.4660 -103.4750   56.1030 C.3   417  GLN417      0.1698
     39  C         65.5710 -104.7620   55.3010 C.2   417  GLN417      0.2592
     40  O         66.2780 -104.7900   54.2880 O.2   417  GLN417     -0.2718
     41  CB        66.8170 -103.1750   56.7580 C.3   417  GLN417      0.0381
     42  CG        66.9560 -101.7510   57.2360 C.3   417  GLN417      0.0905
     43  CD        66.9540 -100.7710   56.0880 C.2   417  GLN417      0.2608
     44  OE1       67.9040 -100.7170   55.3000 O.2   417  GLN417     -0.2717
     45  NE2       65.8760 -100.0110   55.9660 N.am  417  GLN417     -0.0878
     46  N         64.8880 -105.8150   55.7520 N.am  418  GLN418     -0.1966
     47  CA        64.7840 -107.0910   55.0420 C.3   418  GLN418      0.1733
     48  C         66.1480 -107.7630   54.8960 C.2   418  GLN418      0.2617
     49  O         66.4420 -108.4340   53.9050 O.2   418  GLN418     -0.2715
     50  CB        64.0940 -106.9000   53.6990 C.3   418  GLN418      0.0408
     51  CG        62.6390 -106.5590   53.8970 C.3   418  GLN418      0.0908
     52  CD        62.0330 -105.9130   52.6810 C.2   418  GLN418      0.2608
     53  OE1       62.2270 -106.3710   51.5620 O.2   418  GLN418     -0.2717
     54  NE2       61.3140 -104.8240   52.8900 N.am  418  GLN418     -0.0878
     55  N         66.9660 -107.6240   55.9330 N.am  419  THR419     -0.1937
     56  CA        68.3110 -108.1890   55.9280 C.3   419  THR419      0.2028
     57  C         68.2830 -109.7140   56.0160 C.2   419  THR419      0.2642
     58  O         67.7140 -110.2900   56.9460 O.2   419  THR419     -0.2714
     59  CB        69.0960 -107.6160   57.0940 C.3   419  THR419      0.1808
     60  OG1       69.0470 -106.1850   57.0210 O.3   419  THR419     -0.2208
     61  CG2       70.5480 -108.1040   57.0570 C.3   419  THR419      0.0379
     62  N         68.9160 -110.3630   55.0440 N.am  420  MET420     -0.1976
     63  CA        69.1240 -111.8040   55.0650 C.3   420  MET420      0.1605
     64  C         70.2150 -112.1840   56.0540 C.2   420  MET420      0.2287
     65  O         71.1580 -111.4240   56.2900 O.2   420  MET420     -0.2864
     66  CB        69.5400 -112.3020   53.6880 C.3   420  MET420      0.0413
     67  CG        68.4930 -112.1380   52.6540 C.3   420  MET420      0.0598
     68  SD        69.2210 -112.2960   51.0210 S.3   420  MET420     -0.1393
     69  CE        69.9550 -113.9030   51.1550 C.3   420  MET420      0.0692
     70  N         65.5830 -119.3330   54.7500 N.3   444  GLY444     -0.1210
     71  CA        65.7170 -119.9810   53.4630 C.3   444  GLY444      0.1956
     72  C         67.1550 -120.4110   53.2270 C.2   444  GLY444      0.2612
     73  O         68.0420 -120.1990   54.0560 O.2   444  GLY444     -0.2717
     74  N         67.3880 -121.0380   52.0690 N.am  445  ASP445     -0.1959
     75  CA        68.7540 -121.4620   51.7690 C.3   445  ASP445      0.1840
     76  C         69.6560 -120.2780   51.4050 C.2   445  ASP445      0.2623
     77  O         70.8690 -120.3140   51.6650 O.2   445  ASP445     -0.2715
     78  CB        68.7950 -122.5300   50.6620 C.3   445  ASP445      0.1450
     79  CG        67.7580 -122.3380   49.5620 C.2   445  ASP445      0.3671
     80  OD1       67.2130 -121.2310   49.3650 O.co2 445  ASP445     -0.2456
     81  OD2       67.5210 -123.3390   48.8530 O.co2 445  ASP445     -0.2456
     82  N         69.0930 -119.2130   50.8400 N.am  446  GLY446     -0.1940
     83  CA        69.8840 -118.0180   50.5990 C.3   446  GLY446      0.2014
     84  C         70.3500 -117.3640   51.8880 C.2   446  GLY446      0.2639
     85  O         71.5460 -117.1050   52.0730 O.2   446  GLY446     -0.2714
     86  N         69.4110 -117.0830   52.8000 N.am  447  GLY447     -0.1954
     87  CA        69.7830 -116.4640   54.0620 C.3   447  GLY447      0.1869
     88  C         70.6590 -117.3610   54.9130 C.2   447  GLY447      0.2309
     89  O         71.5700 -116.8810   55.6030 O.2   447  GLY447     -0.2863
     90  N         74.3350 -117.0010   54.2460 N.3   450  GLN450     -0.1245
     91  CA        74.9650 -115.7180   54.5530 C.3   450  GLN450      0.1566
     92  C         75.4720 -115.6410   55.9830 C.2   450  GLN450      0.2260
     93  O         76.3650 -114.8330   56.2520 O.2   450  GLN450     -0.2867
     94  CB        74.0230 -114.5450   54.2560 C.3   450  GLN450      0.0367
     95  CG        73.8100 -114.3930   52.7530 C.3   450  GLN450      0.0905
     96  CD        73.4770 -112.9980   52.2820 C.2   450  GLN450      0.2608
     97  OE1       73.1800 -112.1030   53.0690 O.2   450  GLN450     -0.2717
     98  NE2       73.5360 -112.8070   50.9640 N.am  450  GLN450     -0.0878
     99  N         64.1240 -123.7490   54.8260 N.3   470  TRP470     -0.1241
    100  CA        63.2160 -124.0160   53.7190 C.3   470  TRP470      0.1605
    101  C         64.0230 -124.0250   52.4190 C.2   470  TRP470      0.2264
    102  O         64.5670 -122.9890   52.0240 O.2   470  TRP470     -0.2867
    103  CB        62.1190 -122.9560   53.6520 C.3   470  TRP470      0.0550
    104  CG        61.1270 -122.9360   54.7980 C.ar  470  TRP470      0.0003
    105  CD1       61.3740 -123.1880   56.1230 C.ar  470  TRP470      0.0946
    106  CD2       59.7350 -122.6230   54.7070 C.ar  470  TRP470      0.0152
    107  NE1       60.2160 -123.0510   56.8520 N.ar  470  TRP470     -0.2442
    108  CE2       59.2000 -122.7000   56.0070 C.ar  470  TRP470      0.0810
    109  CE3       58.8880 -122.2760   53.6540 C.ar  470  TRP470      0.0012
    110  CZ2       57.8510 -122.4640   56.2770 C.ar  470  TRP470      0.0191
    111  CZ3       57.5550 -122.0300   53.9250 C.ar  470  TRP470      0.0001
    112  CH2       57.0510 -122.1240   55.2290 C.ar  470  TRP470      0.0015
    113  N         64.5560 -124.3770   48.4420 N.3   472  ASP472     -0.1239
    114  CA        64.0280 -124.3180   47.0880 C.3   472  ASP472      0.1674
    115  C         65.1250 -124.1830   46.0420 C.2   472  ASP472      0.2266
    116  O         64.8180 -124.1640   44.8450 O.2   472  ASP472     -0.2867
    117  CB        63.0590 -123.1400   46.9500 C.3   472  ASP472      0.1410
    118  CG        63.7730 -121.8120   46.9010 C.2   472  ASP472      0.3668
    119  OD1       64.7140 -121.6270   47.6810 O.co2 472  ASP472     -0.2456
    120  OD2       63.4060 -120.9580   46.0620 O.co2 472  ASP472     -0.2456
    121  N         66.9600 -121.5170   45.4380 N.3   474  GLY474     -0.1210
    122  CA        66.8780 -120.2380   44.7680 C.3   474  GLY474      0.1956
    123  C         66.5380 -119.1310   45.7380 C.2   474  GLY474      0.2612
    124  O         66.3880 -119.3420   46.9430 O.2   474  GLY474     -0.2717
    125  N         66.4630 -117.9300   45.1820 N.am  475  TYR475     -0.1962
    126  CA        66.0220 -116.7440   45.9060 C.3   475  TYR475      0.1771
    127  C         64.5550 -116.5180   45.5450 C.2   475  TYR475      0.2620
    128  O         64.2250 -115.7240   44.6630 O.2   475  TYR475     -0.2715
    129  CB        66.8800 -115.5450   45.5160 C.3   475  TYR475      0.0574
    130  CG        68.3480 -115.6130   45.8890 C.ar  475  TYR475     -0.0198
    131  CD1       68.7370 -115.8040   47.2060 C.ar  475  TYR475     -0.0009
    132  CD2       69.3480 -115.4160   44.9330 C.ar  475  TYR475     -0.0009
    133  CE1       70.0800 -115.8350   47.5600 C.ar  475  TYR475      0.0417
    134  CE2       70.6950 -115.4550   45.2730 C.ar  475  TYR475      0.0417
    135  CZ        71.0550 -115.6640   46.5790 C.ar  475  TYR475      0.1957
    136  OH        72.3940 -115.6880   46.9080 O.3   475  TYR475     -0.2866
    137  N         63.6510 -117.2350   46.2290 N.am  476  ASN476     -0.1958
    138  CA        62.2750 -117.2890   45.7350 C.3   476  ASN476      0.1819
    139  C         61.5560 -115.9520   45.8570 C.2   476  ASN476      0.2621
    140  O         60.8060 -115.5700   44.9540 O.2   476  ASN476     -0.2715
    141  CB        61.4640 -118.3540   46.4510 C.3   476  ASN476      0.1195
    142  CG        60.0400 -118.4250   45.9320 C.2   476  ASN476      0.2630
    143  OD1       59.1210 -117.8420   46.5230 O.2   476  ASN476     -0.2716
    144  ND2       59.8440 -119.1290   44.8200 N.am  476  ASN476     -0.0877
    145  N         61.7400 -115.2330   46.9670 N.am  477  MET477     -0.1963
    146  CA        60.9860 -113.9960   47.1400 C.3   477  MET477      0.1736
    147  C         61.2450 -113.0370   45.9830 C.2   477  MET477      0.2616
    148  O         60.3300 -112.3150   45.5520 O.2   477  MET477     -0.2715
    149  CB        61.3240 -113.3490   48.4850 C.3   477  MET477      0.0427
    150  CG        60.2770 -112.3560   48.9890 C.3   477  MET477      0.0599
    151  SD        60.7050 -111.7160   50.6240 S.3   477  MET477     -0.1393
    152  CE        59.3100 -110.6460   50.9240 C.3   477  MET477      0.0692
    153  N         62.4630 -113.0560   45.4310 N.am  478  VAL478     -0.1977
    154  CA        62.7790 -112.2300   44.2710 C.3   478  VAL478      0.1596
    155  C         62.1520 -112.8170   43.0210 C.2   478  VAL478      0.2287
    156  O         61.6170 -112.0870   42.1770 O.2   478  VAL478     -0.2864
    157  CB        64.3050 -112.0850   44.1160 C.3   478  VAL478      0.0276
    158  CG1       64.6410 -111.2210   42.9300 C.3   478  VAL478      0.0022
    159  CG2       64.8970 -111.4850   45.3660 C.3   478  VAL478      0.0022
    160  N         57.0730 -124.0700   46.3170 N.3   541  TYR541     -0.1241
    161  CA        56.6190 -122.6930   46.4020 C.3   541  TYR541      0.1605
    162  C         55.5940 -122.3270   45.3150 C.2   541  TYR541      0.2264
    163  O         55.3630 -121.1390   45.0630 O.2   541  TYR541     -0.2867
    164  CB        57.8350 -121.7650   46.3310 C.3   541  TYR541      0.0534
    165  CG        58.5310 -121.4470   47.6450 C.ar  541  TYR541     -0.0201
    166  CD1       57.8440 -121.4190   48.8530 C.ar  541  TYR541     -0.0009
    167  CD2       59.8830 -121.0960   47.6590 C.ar  541  TYR541     -0.0009
    168  CE1       58.5020 -121.0540   50.0530 C.ar  541  TYR541      0.0417
    169  CE2       60.5330 -120.7410   48.8390 C.ar  541  TYR541      0.0417
    170  CZ        59.8370 -120.7200   50.0290 C.ar  541  TYR541      0.1957
    171  OH        60.4880 -120.3650   51.1950 O.3   541  TYR541     -0.2866
    172  N         58.8510 -104.2560   49.5220 N.3   556  ILE556     -0.1231
    173  CA        59.9300 -105.2200   49.3170 C.3   556  ILE556      0.1692
    174  C         61.1050 -104.5540   48.6110 C.2   556  ILE556      0.2591
    175  O         60.9510 -103.9710   47.5280 O.2   556  ILE556     -0.2718
    176  CB        59.4170 -106.4170   48.5060 C.3   556  ILE556      0.0266
    177  CG1       58.2290 -107.0700   49.2210 C.3   556  ILE556      0.0019
    178  CG2       60.5430 -107.4280   48.2750 C.3   556  ILE556      0.0020
    179  CD1       57.4520 -108.0520   48.3390 C.3   556  ILE556      0.0001
    180  N         62.2920 -104.6790   49.2020 N.am  557  LEU557     -0.1980
    181  CA        63.5190 -104.1220   48.6530 C.3   557  LEU557      0.1596
    182  C         64.1210 -105.0440   47.5790 C.2   557  LEU557      0.2287
    183  O         64.9610 -104.5960   46.7730 O.2   557  LEU557     -0.2864
    184  CB        64.5470 -103.8850   49.7670 C.3   557  LEU557      0.0297
    185  CG        64.1410 -102.9140   50.8990 C.3   557  LEU557      0.0022
    186  CD1       65.3150 -102.6620   51.8520 C.3   557  LEU557      0.0001
    187  CD2       63.5960 -101.5690   50.3500 C.3   557  LEU557      0.0001
@<TRIPOS>BOND
     1   156   155    2
     2   158   157    1
     3   155   154    1
     4   157   154    1
     5   157   159    1
     6   154   153    1
     7   128   127    2
     8   122   121    1
     9   122   123    1
    10   144   142   am
    11   116   115    2
    12   132   134   ar
    13   132   130   ar
    14   140   139    2
    15   163   162    2
    16   125   123   am
    17   125   126    1
    18   134   135   ar
    19   162   161    1
    20   153   147   am
    21   129   130    1
    22   129   126    1
    23   127   126    1
    24   127   137   am
    25   148   147    2
    26   138   139    1
    27   138   137    1
    28   138   141    1
    29   123   124    2
    30   139   145   am
    31   130   131   ar
    32   142   141    1
    33   142   143    2
    34   147   146    1
    35   115   114    1
    36   120   118   ar
    37   160   161    1
    38   164   161    1
    39   164   165    1
    40   135   136    1
    41   135   133   ar
    42   183   182    2
    43   118   117    1
    44   118   119   ar
    45   117   114    1
    46   145   146    1
    47   114   113    1
    48   146   149    1
    49   131   133   ar
    50   175   174    2
    51   182   181    1
    52   165   167   ar
    53   165   166   ar
    54   167   169   ar
    55   178   176    1
    56   179   177    1
    57   149   150    1
    58   176   177    1
    59   176   173    1
    60   174   180   am
    61   174   173    1
    62   181   180    1
    63   181   184    1
    64    25    24    1
    65   169   170   ar
    66    81    79   ar
    67   166   168   ar
    68   150   151    1
    69   173   172    1
    70    80    79   ar
    71    79    78    1
    72   184   185    1
    73    24    21    1
    74   170   168   ar
    75   170   171    1
    76   187   185    1
    77    83    82    1
    78    83    84    1
    79   151   152    1
    80    78    75    1
    81    82    76   am
    82   185   186    1
    83    98    96   am
    84    68    69    1
    85    68    67    1
    86    21    20    1
    87    21    22    1
    88    20    18   am
    89    76    77    2
    90    76    75    1
    91    53    52    2
    92    75    74    1
    93    84    85    2
    94    84    86   am
    95   102   101    2
    96    74    72   am
    97    18    17    1
    98    18    19    2
    99    17    16    1
   100    96    95    1
   101    96    97    2
   102    22    23    2
   103    22    26   am
   104   101   100    1
   105    67    66    1
   106    52    54   am
   107    52    51    1
   108    95    94    1
   109    86    87    1
   110    26    27    1
   111    72    71    1
   112    72    73    2
   113    16    10   am
   114    71    70    1
   115    11    10    2
   116   103   100    1
   117   103   104    1
   118   109   111   ar
   119   109   106   ar
   120    66    63    1
   121    50    51    1
   122    50    47    1
   123   100    99    1
   124    49    48    2
   125   111   112   ar
   126    13    14    1
   127    13    12    1
   128    33    35   ar
   129    33    31   ar
   130    10     9    1
   131    87    88    1
   132    27    30    1
   133    27    28    1
   134    90    91    1
   135    94    91    1
   136    35    36   ar
   137    40    39    2
   138    14    15    1
   139    91    92    1
   140    30    31    1
   141   106   104   ar
   142   106   108   ar
   143   104   105   ar
   144    48    47    1
   145    48    55   am
   146    88    89    2
   147    12     9    1
   148    31    32   ar
   149    47    46    1
   150    62    63    1
   151    62    57   am
   152    63    64    1
   153   112   110   ar
   154    28    29    2
   155     9     8    1
   156    44    43    2
   157    39    46   am
   158    39    38    1
   159     6     5    1
   160    36    34   ar
   161    56    55    1
   162    56    57    1
   163    56    59    1
   164    45    43   am
   165    92    93    2
   166   108   110   ar
   167   108   107   ar
   168    57    58    2
   169    64    65    2
   170    43    42    1
   171    38    41    1
   172    38    37    1
   173   105   107   ar
   174    32    34   ar
   175     7     5    1
   176     5     2    1
   177    41    42    1
   178    60    59    1
   179    61    59    1
   180     2     1    1
   181     2     3    1
   182     3     4    2
