@<TRIPOS>MOLECULE
tmp/5dx6B01.pdb
 99 95 0 0 0
SMALL
GASTEIGER

@<TRIPOS>ATOM
      1  N         55.1810 -104.9060   63.7710 N.3   248  TYR248     -0.1241
      2  CA        56.0700 -105.9990   64.1390 C.3   248  TYR248      0.1605
      3  C         57.1070 -105.5470   65.1660 C.2   248  TYR248      0.2264
      4  O         57.5350 -106.3520   65.9990 O.2   248  TYR248     -0.2867
      5  CB        56.7170 -106.6150   62.8870 C.3   248  TYR248      0.0534
      6  CG        55.6890 -107.3670   62.0600 C.ar  248  TYR248     -0.0201
      7  CD1       55.2750 -108.6420   62.4200 C.ar  248  TYR248     -0.0009
      8  CD2       55.0820 -106.7730   60.9600 C.ar  248  TYR248     -0.0009
      9  CE1       54.3010 -109.3170   61.6880 C.ar  248  TYR248      0.0417
     10  CE2       54.1090 -107.4400   60.2250 C.ar  248  TYR248      0.0417
     11  CZ        53.7210 -108.7000   60.5950 C.ar  248  TYR248      0.1957
     12  OH        52.7560 -109.3520   59.8590 O.3   248  TYR248     -0.2866
     13  N         43.9010 -107.4050   67.4910 N.3   263  ALA263     -0.1231
     14  CA        43.6220 -107.7090   66.0980 C.3   263  ALA263      0.1694
     15  C         44.8110 -108.3140   65.3710 C.2   263  ALA263      0.2593
     16  O         44.6990 -108.6170   64.1830 O.2   263  ALA263     -0.2718
     17  CB        43.1770 -106.4380   65.3700 C.3   263  ALA263      0.0304
     18  N         45.9330 -108.5080   66.0450 N.am  264  GLY264     -0.1942
     19  CA        47.1230 -108.9990   65.3960 C.3   264  GLY264      0.2014
     20  C         48.0400 -107.8800   64.9520 C.2   264  GLY264      0.2638
     21  O         47.9520 -106.7300   65.3930 O.2   264  GLY264     -0.2714
     22  N         48.9290 -108.2340   64.0370 N.am  265  ARG265     -0.1977
     23  CA        50.0050 -107.3650   63.5970 C.3   265  ARG265      0.1597
     24  C         49.6480 -106.6890   62.2820 C.2   265  ARG265      0.2287
     25  O         48.7800 -107.1430   61.5300 O.2   265  ARG265     -0.2864
     26  CB        51.3070 -108.1550   63.4290 C.3   265  ARG265      0.0334
     27  CG        52.2980 -108.1040   64.6120 C.3   265  ARG265      0.0492
     28  CD        51.9820 -108.9930   65.8130 C.3   265  ARG265      0.2205
     29  NE        51.0400 -110.0710   65.5290 N.pl3 265  ARG265     -0.0865
     30  CZ        50.8300 -111.1280   66.3160 C.cat 265  ARG265      0.5346
     31  NH1       49.9260 -112.0410   65.9600 N.pl3 265  ARG265      0.1354
     32  NH2       51.5240 -111.2850   67.4460 N.pl3 265  ARG265      0.1354
     33  N         50.8370 -107.2800   55.3960 N.3   269  PHE269     -0.1241
     34  CA        49.6480 -107.6400   54.6380 C.3   269  PHE269      0.1605
     35  C         48.7370 -106.4320   54.4840 C.2   269  PHE269      0.2264
     36  O         48.8970 -105.4150   55.1660 O.2   269  PHE269     -0.2867
     37  CB        48.9270 -108.8070   55.3230 C.3   269  PHE269      0.0534
     38  CG        49.7920 -110.0140   55.4580 C.ar  269  PHE269     -0.0203
     39  CD1       50.0940 -110.7890   54.3540 C.ar  269  PHE269     -0.0042
     40  CD2       50.3710 -110.3390   56.6720 C.ar  269  PHE269     -0.0042
     41  CE1       50.9410 -111.8900   54.4640 C.ar  269  PHE269     -0.0003
     42  CE2       51.2100 -111.4290   56.7830 C.ar  269  PHE269     -0.0003
     43  CZ        51.4990 -112.2040   55.6700 C.ar  269  PHE269     -0.0000
     44  N         44.4250 -108.1220   56.6210 N.3   272  GLN272     -0.1245
     45  CA        44.1920 -108.7890   57.8950 C.3   272  GLN272      0.1566
     46  C         43.3670 -107.8970   58.8260 C.2   272  GLN272      0.2260
     47  O         43.0680 -106.7400   58.5270 O.2   272  GLN272     -0.2867
     48  CB        45.5210 -109.1860   58.5490 C.3   272  GLN272      0.0367
     49  CG        46.3390 -110.1720   57.7250 C.3   272  GLN272      0.0905
     50  CD        45.5710 -111.4370   57.3650 C.2   272  GLN272      0.2608
     51  OE1       45.2750 -112.2660   58.2270 O.2   272  GLN272     -0.2717
     52  NE2       45.2460 -111.5900   56.0800 N.am  272  GLN272     -0.0878
     53  N         38.7210 -112.9660   62.6770 N.3   358  ARG358     -0.1245
     54  CA        40.0710 -113.3250   63.0930 C.3   358  ARG358      0.1563
     55  C         40.0670 -114.4890   64.0710 C.2   358  ARG358      0.2260
     56  O         41.0190 -115.2730   64.0900 O.2   358  ARG358     -0.2867
     57  CB        40.7810 -112.1330   63.7330 C.3   358  ARG358      0.0307
     58  CG        42.1730 -112.4890   64.2530 C.3   358  ARG358      0.0489
     59  CD        42.8800 -111.3300   64.9200 C.3   358  ARG358      0.2205
     60  NE        44.3220 -111.5880   65.0370 N.pl3 358  ARG358     -0.0865
     61  CZ        44.9310 -112.0960   66.1110 C.cat 358  ARG358      0.5346
     62  NH1       44.2450 -112.4080   67.2100 N.pl3 358  ARG358      0.1354
     63  NH2       46.2440 -112.2880   66.0830 N.pl3 358  ARG358      0.1354
     64  N         54.6660 -115.1020   58.9380 N.3   400  ALA400     -0.1231
     65  CA        53.9530 -113.9120   59.3780 C.3   400  ALA400      0.1694
     66  C         52.4520 -114.0660   59.1690 C.2   400  ALA400      0.2591
     67  O         51.6520 -113.6430   60.0100 O.2   400  ALA400     -0.2718
     68  CB        54.4780 -112.6920   58.6300 C.3   400  ALA400      0.0304
     69  N         52.0490 -114.6790   58.0580 N.am  401  ARG401     -0.1980
     70  CA        50.6280 -114.7930   57.7540 C.3   401  ARG401      0.1597
     71  C         49.8890 -115.6010   58.8130 C.2   401  ARG401      0.2287
     72  O         48.7000 -115.3620   59.0560 O.2   401  ARG401     -0.2864
     73  CB        50.4340 -115.4250   56.3740 C.3   401  ARG401      0.0334
     74  CG        48.9830 -115.6600   55.9870 C.3   401  ARG401      0.0492
     75  CD        48.2080 -114.3650   55.9320 C.3   401  ARG401      0.2205
     76  NE        46.8400 -114.5780   55.4570 N.pl3 401  ARG401     -0.0865
     77  CZ        45.8660 -115.0930   56.2000 C.cat 401  ARG401      0.5346
     78  NH1       46.1080 -115.4520   57.4520 N.pl3 401  ARG401      0.1354
     79  NH2       44.6490 -115.2580   55.6910 N.pl3 401  ARG401      0.1354
     80  N         51.1230 -116.0110   62.0680 N.3   403  LEU403     -0.1231
     81  CA        51.7940 -115.7370   63.3300 C.3   403  LEU403      0.1693
     82  C         50.8300 -115.8470   64.4950 C.2   403  LEU403      0.2592
     83  O         51.2400 -116.1610   65.6170 O.2   403  LEU403     -0.2718
     84  CB        52.4240 -114.3460   63.2830 C.3   403  LEU403      0.0284
     85  CG        53.3880 -113.9740   64.4030 C.3   403  LEU403      0.0019
     86  CD1       54.5970 -114.9200   64.4290 C.3   403  LEU403      0.0001
     87  CD2       53.8310 -112.5120   64.2360 C.3   403  LEU403      0.0001
     88  N         49.5440 -115.6150   64.2400 N.am  404  TYR404     -0.1976
     89  CA        48.5450 -115.6940   65.2980 C.3   404  TYR404      0.1639
     90  C         48.4050 -117.0890   65.8840 C.2   404  TYR404      0.2290
     91  O         47.8670 -117.2250   66.9880 O.2   404  TYR404     -0.2864
     92  CB        47.1880 -115.2280   64.7830 C.3   404  TYR404      0.0560
     93  CG        46.7070 -115.8870   63.5030 C.ar  404  TYR404     -0.0198
     94  CD1       46.4400 -117.2500   63.4440 C.ar  404  TYR404     -0.0009
     95  CD2       46.4750 -115.1290   62.3670 C.ar  404  TYR404     -0.0009
     96  CE1       45.9800 -117.8370   62.2830 C.ar  404  TYR404      0.0417
     97  CE2       46.0150 -115.7020   61.2060 C.ar  404  TYR404      0.0417
     98  CZ        45.7670 -117.0560   61.1640 C.ar  404  TYR404      0.1957
     99  OH        45.3020 -117.6150   59.9890 O.3   404  TYR404     -0.2866
@<TRIPOS>BOND
     1    39    41   ar
     2    39    38   ar
     3    41    43   ar
     4    35    34    1
     5    35    36    2
     6    34    37    1
     7    34    33    1
     8    37    38    1
     9    76    75    1
    10    76    77    2
    11    38    40   ar
    12    43    42   ar
    13    79    77    1
    14    75    74    1
    15    74    73    1
    16    52    50   am
    17    77    78    1
    18    73    70    1
    19    44    45    1
    20    40    42   ar
    21    50    49    1
    22    50    51    2
    23    49    48    1
    24    70    69    1
    25    70    71    1
    26    45    48    1
    27    45    46    1
    28    69    66   am
    29    47    46    2
    30    68    65    1
    31    71    72    2
    32    64    65    1
    33    66    65    1
    34    66    67    2
    35    12    11    1
    36    99    98    1
    37    10    11   ar
    38    10     8   ar
    39    11     9   ar
    40     8     6   ar
    41    98    97   ar
    42    98    96   ar
    43    97    95   ar
    44    25    24    2
    45     9     7   ar
    46     6     7   ar
    47     6     5    1
    48    80    81    1
    49    24    23    1
    50    96    94   ar
    51    95    93   ar
    52    53    54    1
    53     5     2    1
    54    54    57    1
    55    54    55    1
    56    84    81    1
    57    84    85    1
    58    81    82    1
    59    26    23    1
    60    26    27    1
    61    94    93   ar
    62    93    92    1
    63    23    22    1
    64    57    58    1
    65     1     2    1
    66    22    20   am
    67    55    56    2
    68     2     3    1
    69    16    15    2
    70    87    85    1
    71    88    82   am
    72    88    89    1
    73    58    59    1
    74    85    86    1
    75    82    83    2
    76    27    28    1
    77    92    89    1
    78    59    60    1
    79    20    21    2
    80    20    19    1
    81    60    61    2
    82     3     4    2
    83    89    90    1
    84    17    14    1
    85    15    18   am
    86    15    14    1
    87    19    18    1
    88    29    28    1
    89    29    30    2
    90    90    91    2
    91    31    30    1
    92    63    61    1
    93    14    13    1
    94    61    62    1
    95    30    32    1
