@<TRIPOS>MOLECULE
tmp/5dx7A00.pdb
 128 121 0 0 0
SMALL
GASTEIGER

@<TRIPOS>ATOM
      1  N         26.9230   80.5080   61.1060 N.3   117  VAL117     -0.1231
      2  CA        27.9160   80.3910   60.0480 C.3   117  VAL117      0.1692
      3  C         27.6280   79.0940   59.3160 C.2   117  VAL117      0.2592
      4  O         27.4730   78.0550   59.9470 O.2   117  VAL117     -0.2718
      5  CB        29.3620   80.2970   60.5910 C.3   117  VAL117      0.0266
      6  CG1       30.3440   80.2780   59.4310 C.3   117  VAL117      0.0020
      7  CG2       29.6750   81.4550   61.5190 C.3   117  VAL117      0.0020
      8  N         27.5820   79.1360   57.9910 N.am  118  VAL118     -0.1966
      9  CA        27.1320   77.9670   57.2520 C.3   118  VAL118      0.1712
     10  C         27.9200   77.8150   55.9410 C.2   118  VAL118      0.2458
     11  O         28.3170   78.8180   55.3430 O.2   118  VAL118     -0.2730
     12  CB        25.6120   78.0870   57.0380 C.3   118  VAL118      0.0289
     13  CG1       25.2970   79.0800   55.9430 C.3   118  VAL118      0.0023
     14  CG2       24.9710   76.7530   56.7920 C.3   118  VAL118      0.0023
     15  N         28.1920   76.5630   55.5130 N.am  119  PRO119     -0.2727
     16  CA        28.9480   76.3630   54.2670 C.3   119  PRO119      0.1402
     17  C         28.1160   76.7690   53.0540 C.2   119  PRO119      0.2269
     18  O         27.0160   76.2460   52.8560 O.2   119  PRO119     -0.2865
     19  CB        29.2160   74.8520   54.2570 C.3   119  PRO119      0.0296
     20  CG        28.1440   74.2730   55.0840 C.3   119  PRO119      0.0237
     21  CD        27.9210   75.2810   56.1810 C.3   119  PRO119      0.0939
     22  N         21.5980   73.7230   53.7960 N.3   125  PHE125     -0.1241
     23  CA        22.1050   74.4140   54.9770 C.3   125  PHE125      0.1605
     24  C         21.9310   75.9400   54.8540 C.2   125  PHE125      0.2264
     25  O         21.4470   76.5920   55.7750 O.2   125  PHE125     -0.2867
     26  CB        23.5920   74.0800   55.1690 C.3   125  PHE125      0.0534
     27  CG        23.8620   72.9100   56.0910 C.ar  125  PHE125     -0.0203
     28  CD1       23.1840   72.7770   57.2920 C.ar  125  PHE125     -0.0042
     29  CD2       24.8200   71.9640   55.7630 C.ar  125  PHE125     -0.0042
     30  CE1       23.4440   71.7100   58.1480 C.ar  125  PHE125     -0.0003
     31  CE2       25.0840   70.8960   56.6030 C.ar  125  PHE125     -0.0003
     32  CZ        24.3970   70.7660   57.7970 C.ar  125  PHE125     -0.0000
     33  N         34.6080   76.3530   56.3630 N.3   274  SER274     -0.1217
     34  CA        33.5710   75.3190   56.3730 C.3   274  SER274      0.1889
     35  C         33.2720   74.6300   55.0170 C.2   274  SER274      0.2288
     36  O         32.4250   73.7300   54.9590 O.2   274  SER274     -0.2866
     37  CB        32.2690   75.8430   56.9840 C.3   274  SER274      0.2089
     38  OG        31.5970   76.7230   56.1040 O.3   274  SER274     -0.2183
     39  N         31.7310   85.1880   53.9190 N.3   328  ARG328     -0.1245
     40  CA        33.1350   85.1150   54.3030 C.3   328  ARG328      0.1563
     41  C         33.9560   84.6790   53.0900 C.2   328  ARG328      0.2260
     42  O         33.7820   83.5690   52.5900 O.2   328  ARG328     -0.2867
     43  CB        33.3780   84.1840   55.5220 C.3   328  ARG328      0.0307
     44  CG        34.8210   84.1720   56.0100 C.3   328  ARG328      0.0489
     45  CD        35.0140   83.5840   57.4390 C.3   328  ARG328      0.2205
     46  NE        34.7880   82.1360   57.4940 N.pl3 328  ARG328     -0.0865
     47  CZ        35.0910   81.3600   58.5320 C.cat 328  ARG328      0.5346
     48  NH1       35.6520   81.8830   59.6090 N.pl3 328  ARG328      0.1354
     49  NH2       34.8510   80.0560   58.4830 N.pl3 328  ARG328      0.1354
     50  N         40.0290   77.9710   67.5570 N.3   448  LEU448     -0.1245
     51  CA        40.8600   77.0600   66.7890 C.3   448  LEU448      0.1561
     52  C         41.9790   77.7230   65.9760 C.2   448  LEU448      0.2260
     53  O         43.1490   77.3860   66.1680 O.2   448  LEU448     -0.2867
     54  CB        39.9910   76.1480   65.9170 C.3   448  LEU448      0.0270
     55  CG        39.0480   75.1790   66.6430 C.3   448  LEU448      0.0019
     56  CD1       38.0880   74.5070   65.6590 C.3   448  LEU448      0.0001
     57  CD2       39.8390   74.1360   67.4170 C.3   448  LEU448      0.0001
     58  N         32.5360   79.9290   68.0650 N.3   502  MET502     -0.1245
     59  CA        31.5470   78.8840   67.8270 C.3   502  MET502      0.1570
     60  C         31.3840   77.8900   68.9760 C.2   502  MET502      0.2261
     61  O         32.3720   77.4510   69.5770 O.2   502  MET502     -0.2867
     62  CB        31.9420   78.1110   66.5590 C.3   502  MET502      0.0387
     63  CG        31.0320   76.9370   66.2320 C.3   502  MET502      0.0595
     64  SD        29.4130   77.4860   65.6770 S.3   502  MET502     -0.1393
     65  CE        29.8100   78.1370   64.0390 C.3   502  MET502      0.0692
     66  N         30.7890   74.2130   69.3700 N.3   504  THR504     -0.1218
     67  CA        31.0010   73.1060   68.4400 C.3   504  THR504      0.1862
     68  C         30.2320   71.8200   68.8000 C.2   504  THR504      0.2287
     69  O         30.0700   70.9410   67.9540 O.2   504  THR504     -0.2866
     70  CB        32.4940   72.7560   68.3840 C.3   504  THR504      0.1770
     71  OG1       32.9130   72.3200   69.6790 O.3   504  THR504     -0.2211
     72  CG2       33.3220   73.9770   67.9970 C.3   504  THR504      0.0375
     73  N         28.9360   82.9130   67.6750 N.3   528  TRP528     -0.1241
     74  CA        28.6440   81.9120   66.6410 C.3   528  TRP528      0.1605
     75  C         27.9730   80.6400   67.1440 C.2   528  TRP528      0.2264
     76  O         28.3870   80.0710   68.1470 O.2   528  TRP528     -0.2867
     77  CB        29.9200   81.5410   65.8790 C.3   528  TRP528      0.0550
     78  CG        30.4030   82.6120   64.9530 C.ar  528  TRP528      0.0003
     79  CD1       29.8530   83.8420   64.7620 C.ar  528  TRP528      0.0946
     80  CD2       31.5370   82.5370   64.0800 C.ar  528  TRP528      0.0152
     81  NE1       30.5810   84.5470   63.8270 N.ar  528  TRP528     -0.2442
     82  CE2       31.6190   83.7640   63.3930 C.ar  528  TRP528      0.0810
     83  CE3       32.4920   81.5490   63.8140 C.ar  528  TRP528      0.0012
     84  CZ2       32.6170   84.0300   62.4560 C.ar  528  TRP528      0.0191
     85  CZ3       33.4880   81.8230   62.8840 C.ar  528  TRP528      0.0001
     86  CH2       33.5400   83.0490   62.2190 C.ar  528  TRP528      0.0015
     87  N         26.0740   76.7360   65.7090 N.3   530  PRO530     -0.2116
     88  CA        26.2510   75.8060   64.5880 C.3   530  PRO530      0.1372
     89  C         24.9810   75.4790   63.8070 C.2   530  PRO530      0.2244
     90  O         25.0820   74.8800   62.7450 O.2   530  PRO530     -0.2868
     91  CB        26.7620   74.5370   65.2770 C.3   530  PRO530      0.0268
     92  CG        26.1320   74.5830   66.6290 C.3   530  PRO530      0.0207
     93  CD        26.0950   76.0410   67.0120 C.3   530  PRO530      0.0892
     94  N         32.2570   70.7260   56.4780 N.3   606  ALA606     -0.1245
     95  CA        31.5790   70.8830   57.7600 C.3   606  ALA606      0.1562
     96  C         30.4660   69.8530   57.8970 C.2   606  ALA606      0.2260
     97  O         29.6470   69.6870   56.9970 O.2   606  ALA606     -0.2867
     98  CB        31.0120   72.2920   57.9150 C.3   606  ALA606      0.0290
     99  N         30.8450   69.9370   65.5130 N.3   618  MET618     -0.1230
    100  CA        30.8210   70.5800   64.2050 C.3   618  MET618      0.1702
    101  C         31.9090   71.6430   64.1420 C.2   618  MET618      0.2592
    102  O         31.6830   72.8030   64.4960 O.2   618  MET618     -0.2718
    103  CB        29.4420   71.1750   63.8950 C.3   618  MET618      0.0401
    104  CG        29.3260   71.7490   62.4920 C.3   618  MET618      0.0596
    105  SD        27.8530   71.2190   61.5890 S.3   618  MET618     -0.1393
    106  CE        26.6120   71.3100   62.8810 C.3   618  MET618      0.0692
    107  N         33.0980   71.2290   63.7190 N.am  619  GLU619     -0.1966
    108  CA        34.2270   72.1460   63.5860 C.3   619  GLU619      0.1733
    109  C         34.5620   72.3850   62.1130 C.2   619  GLU619      0.2616
    110  O         34.2740   71.5410   61.2490 O.2   619  GLU619     -0.2715
    111  CB        35.4610   71.5760   64.2950 C.3   619  GLU619      0.0429
    112  CG        35.2020   71.0820   65.7110 C.3   619  GLU619      0.1163
    113  CD        36.3710   70.2930   66.2780 C.2   619  GLU619      0.3649
    114  OE1       36.8810   70.7010   67.3430 O.co2 619  GLU619     -0.2457
    115  OE2       36.7750   69.2650   65.6650 O.co2 619  GLU619     -0.2457
    116  N         35.1790   73.5270   61.8220 N.am  620  ASP620     -0.1971
    117  CA        35.6840   73.7750   60.4740 C.3   620  ASP620      0.1709
    118  C         37.1370   73.3360   60.3500 C.2   620  ASP620      0.2293
    119  O         37.6850   72.7250   61.2730 O.2   620  ASP620     -0.2864
    120  CB        35.5220   75.2440   60.0790 C.3   620  ASP620      0.1436
    121  CG        36.3880   76.1870   60.9120 C.2   620  ASP620      0.3671
    122  OD1       37.2220   75.7220   61.7260 O.co2 620  ASP620     -0.2456
    123  OD2       36.2350   77.4200   60.7380 O.co2 620  ASP620     -0.2456
    124  N         39.9340   74.7410   60.7140 N.3   622  ALA622     -0.1245
    125  CA        40.8480   75.1640   61.7670 C.3   622  ALA622      0.1562
    126  C         41.0960   74.0930   62.8510 C.2   622  ALA622      0.2260
    127  O         42.1040   74.1480   63.5500 O.2   622  ALA622     -0.2867
    128  CB        40.3720   76.4740   62.3940 C.3   622  ALA622      0.0290
@<TRIPOS>BOND
     1    42    41    2
     2    18    17    2
     3    17    16    1
     4    41    40    1
     5    22    23    1
     6    39    40    1
     7    19    16    1
     8    19    20    1
     9    16    15    1
    10    40    43    1
    11    24    23    1
    12    24    25    2
    13    36    35    2
    14    23    26    1
    15    35    34    1
    16    20    21    1
    17    26    27    1
    18    11    10    2
    19    15    10   am
    20    15    21    1
    21    43    44    1
    22    29    27   ar
    23    29    31   ar
    24    10     9    1
    25    13    12    1
    26    44    45    1
    27    27    28   ar
    28    38    37    1
    29    33    34    1
    30    34    37    1
    31    94    95    1
    32    31    32   ar
    33    14    12    1
    34    97    96    2
    35    12     9    1
    36     9     8    1
    37    28    30   ar
    38    45    46    1
    39    46    47    2
    40    95    96    1
    41    95    98    1
    42    32    30   ar
    43     8     3   am
    44    49    47    1
    45    47    48    1
    46     3     4    2
    47     3     2    1
    48     6     5    1
    49     2     5    1
    50     2     1    1
    51   120   117    1
    52   120   121    1
    53   118   117    1
    54   118   119    2
    55   117   116    1
    56     5     7    1
    57   124   125    1
    58   123   121   ar
    59   121   122   ar
    60   110   109    2
    61   105   104    1
    62   105   106    1
    63   125   128    1
    64   125   126    1
    65   116   109   am
    66   109   108    1
    67    86    84   ar
    68    86    85   ar
    69    84    82   ar
    70   104   103    1
    71    90    89    2
    72   126   127    2
    73    85    83   ar
    74    82    81   ar
    75    82    80   ar
    76   108   107    1
    77   108   111    1
    78   107   101   am
    79    89    88    1
    80    83    80   ar
    81    81    79   ar
    82   103   100    1
    83    65    64    1
    84    80    78   ar
    85   101   100    1
    86   101   102    2
    87   100    99    1
    88   111   112    1
    89    88    91    1
    90    88    87    1
    91    79    78   ar
    92    78    77    1
    93    91    92    1
    94    56    55    1
    95   115   113   ar
    96    64    63    1
    97    87    93    1
    98   112   113    1
    99    77    74    1
   100    54    55    1
   101    54    51    1
   102    52    53    2
   103    52    51    1
   104    63    62    1
   105   113   114   ar
   106    62    59    1
   107    92    93    1
   108    74    75    1
   109    74    73    1
   110    55    57    1
   111    51    50    1
   112    75    76    2
   113    59    58    1
   114    59    60    1
   115    69    68    2
   116    72    70    1
   117    70    67    1
   118    70    71    1
   119    67    68    1
   120    67    66    1
   121    60    61    2
