@<TRIPOS>MOLECULE
tmp/5dx8C00.pdb
 232 231 0 0 0
SMALL
GASTEIGER

@<TRIPOS>ATOM
      1  N          5.0100   29.8300   88.4580 N.3    15  GLN15      -0.1231
      2  CA         4.6060   28.6840   87.6330 C.3    15  GLN15       0.1698
      3  C          5.6620   27.6020   87.6400 C.2    15  GLN15       0.2592
      4  O          5.3740   26.4140   87.7770 O.2    15  GLN15      -0.2718
      5  CB         4.4450   29.0930   86.1670 C.3    15  GLN15       0.0381
      6  CG         3.1330   29.7560   85.8060 C.3    15  GLN15       0.0905
      7  CD         3.0250   29.9520   84.3010 C.2    15  GLN15       0.2608
      8  OE1        3.0120   28.9770   83.5360 O.2    15  GLN15      -0.2717
      9  NE2        2.9840   31.2120   83.8620 N.am   15  GLN15      -0.0878
     10  N          6.9030   28.0230   87.4390 N.am   16  TYR16      -0.1976
     11  CA         7.9850   27.0840   87.3590 C.3    16  TYR16       0.1639
     12  C          7.9810   26.1650   88.5850 C.2    16  TYR16       0.2290
     13  O          7.9490   24.9470   88.4470 O.2    16  TYR16      -0.2864
     14  CB         9.3100   27.8430   87.2390 C.3    16  TYR16       0.0560
     15  CG        10.5130   26.9740   87.0040 C.ar   16  TYR16      -0.0198
     16  CD1       10.7580   26.4200   85.7580 C.ar   16  TYR16      -0.0009
     17  CD2       11.4410   26.7510   88.0070 C.ar   16  TYR16      -0.0009
     18  CE1       11.8730   25.6360   85.5320 C.ar   16  TYR16       0.0417
     19  CE2       12.5530   25.9660   87.7890 C.ar   16  TYR16       0.0417
     20  CZ        12.7630   25.4120   86.5370 C.ar   16  TYR16       0.1957
     21  OH        13.8790   24.6110   86.3170 O.3    16  TYR16      -0.2866
     22  N          4.9230   23.8380   89.0280 N.3    19  PHE19      -0.1227
     23  CA         4.9840   22.6760   88.1520 C.3    19  PHE19       0.1736
     24  C          5.7080   21.5490   88.8800 C.2    19  PHE19       0.2595
     25  O          5.2110   20.4350   88.9920 O.2    19  PHE19      -0.2718
     26  CB         5.7570   23.0760   86.8820 C.3    19  PHE19       0.0547
     27  CG         5.9150   21.9750   85.8720 C.ar   19  PHE19      -0.0202
     28  CD1        4.9260   21.7400   84.9370 C.ar   19  PHE19      -0.0042
     29  CD2        7.0850   21.2110   85.8330 C.ar   19  PHE19      -0.0042
     30  CE1        5.0540   20.7240   83.9970 C.ar   19  PHE19      -0.0003
     31  CE2        7.2350   20.1990   84.8940 C.ar   19  PHE19      -0.0003
     32  CZ         6.2160   19.9470   83.9730 C.ar   19  PHE19      -0.0000
     33  N          6.8950   21.8650   89.3810 N.am   20  TYR20      -0.1976
     34  CA         7.7520   20.8830   89.9930 C.3    20  TYR20       0.1639
     35  C          7.2700   20.4590   91.4010 C.2    20  TYR20       0.2290
     36  O          7.7950   19.5070   91.9930 O.2    20  TYR20      -0.2864
     37  CB         9.1790   21.4390   90.0660 C.3    20  TYR20       0.0560
     38  CG         9.9470   21.3280   88.7630 C.ar   20  TYR20      -0.0198
     39  CD1       10.1360   20.0910   88.1600 C.ar   20  TYR20      -0.0009
     40  CD2       10.5100   22.4510   88.1430 C.ar   20  TYR20      -0.0009
     41  CE1       10.8470   19.9640   86.9960 C.ar   20  TYR20       0.0417
     42  CE2       11.2100   22.3280   86.9600 C.ar   20  TYR20       0.0417
     43  CZ        11.3840   21.0810   86.3990 C.ar   20  TYR20       0.1957
     44  OH        12.1020   20.9060   85.2350 O.3    20  TYR20      -0.2866
     45  N          4.5050   15.4880   88.1080 N.3    25  GLN25      -0.1245
     46  CA         5.6080   15.9780   87.2950 C.3    25  GLN25       0.1566
     47  C          6.9530   15.3740   87.6920 C.2    25  GLN25       0.2260
     48  O          7.7990   15.0760   86.8200 O.2    25  GLN25      -0.2867
     49  CB         5.6420   17.5140   87.3300 C.3    25  GLN25       0.0367
     50  CG         4.4030   18.1340   86.7000 C.3    25  GLN25       0.0905
     51  CD         4.1340   17.6670   85.2630 C.2    25  GLN25       0.2608
     52  OE1        3.0000   17.7470   84.7970 O.2    25  GLN25      -0.2717
     53  NE2        5.1620   17.2000   84.5600 N.am   25  GLN25      -0.0878
     54  N          6.8070   11.9870   86.2190 N.3    28  ASN28      -0.1225
     55  CA         7.0700   12.0410   84.7800 C.3    28  ASN28       0.1785
     56  C          8.5680   11.8980   84.4640 C.2    28  ASN28       0.2597
     57  O          8.9560   11.1030   83.6180 O.2    28  ASN28      -0.2718
     58  CB         6.5300   13.3270   84.1920 C.3    28  ASN28       0.1169
     59  CG         6.7890   13.4410   82.7000 C.2    28  ASN28       0.2627
     60  OD1        6.3520   12.5930   81.9290 O.2    28  ASN28      -0.2716
     61  ND2        7.5000   14.4960   82.2870 N.am   28  ASN28      -0.0877
     62  N          9.3960   12.6570   85.1770 N.am   29  MET29      -0.1979
     63  CA        10.8320   12.5710   85.0030 C.3    29  MET29       0.1605
     64  C         11.3840   11.2710   85.5410 C.2    29  MET29       0.2287
     65  O         12.2230   10.6520   84.9000 O.2    29  MET29      -0.2864
     66  CB        11.5250   13.7240   85.7050 C.3    29  MET29       0.0413
     67  CG        11.2450   15.0830   85.1070 C.3    29  MET29       0.0598
     68  SD        12.0860   16.4000   86.0370 S.3    29  MET29      -0.1393
     69  CE        11.1360   16.3090   87.5610 C.3    29  MET29       0.0692
     70  N         10.0180    8.4420   85.7230 N.3    31  GLN31      -0.1231
     71  CA         9.5940    7.3330   84.8710 C.3    31  GLN31       0.1698
     72  C         10.3040    7.2640   83.5380 C.2    31  GLN31       0.2592
     73  O         10.1460    6.2740   82.8410 O.2    31  GLN31      -0.2718
     74  CB         8.1020    7.3980   84.6110 C.3    31  GLN31       0.0381
     75  CG         7.2820    6.7830   85.7050 C.3    31  GLN31       0.0905
     76  CD         5.8290    6.7660   85.3090 C.2    31  GLN31       0.2608
     77  OE1        5.3320    7.7370   84.7320 O.2    31  GLN31      -0.2717
     78  NE2        5.1450    5.6590   85.5810 N.am   31  GLN31      -0.0878
     79  N         11.0310    8.3200   83.1630 N.am   32  ASP32      -0.1974
     80  CA        11.9710    8.2620   82.0490 C.3    32  ASP32       0.1709
     81  C         13.1270    7.3710   82.4820 C.2    32  ASP32       0.2293
     82  O         14.0150    7.8200   83.1930 O.2    32  ASP32      -0.2864
     83  CB        12.4670    9.6690   81.6930 C.3    32  ASP32       0.1436
     84  CG        13.3350    9.7040   80.4410 C.2    32  ASP32       0.3671
     85  OD1       14.0170    8.7060   80.1050 O.co2  32  ASP32      -0.2456
     86  OD2       13.3840   10.7800   79.8220 O.co2  32  ASP32      -0.2456
     87  N         20.2500   17.1970   87.8580 N.3   124  GLU124     -0.1231
     88  CA        19.6780   17.0410   86.5430 C.3   124  GLU124      0.1684
     89  C         18.9460   18.3420   86.1940 C.2   124  GLU124      0.2434
     90  O         17.7670   18.5220   86.5340 O.2   124  GLU124     -0.2733
     91  CB        18.8060   15.7960   86.4610 C.3   124  GLU124      0.0402
     92  CG        18.3810   15.4720   85.0280 C.3   124  GLU124      0.1161
     93  CD        17.1700   16.2720   84.6330 C.2   124  GLU124      0.3649
     94  OE1       16.0470   15.8110   84.9360 O.co2 124  GLU124     -0.2457
     95  OE2       17.3350   17.3810   84.0390 O.co2 124  GLU124     -0.2457
     96  N         19.6660   19.2630   85.5170 N.am  125  PRO125     -0.2718
     97  CA        19.1970   20.5880   85.1490 C.3   125  PRO125      0.1535
     98  C         18.9540   20.8100   83.6550 C.2   125  PRO125      0.2598
     99  O         18.7660   21.9440   83.2490 O.2   125  PRO125     -0.2715
    100  CB        20.3780   21.4570   85.5600 C.3   125  PRO125      0.0310
    101  CG        21.5410   20.6110   85.1700 C.3   125  PRO125      0.0237
    102  CD        21.1320   19.1790   85.3590 C.3   125  PRO125      0.0939
    103  N         18.9900   19.7600   82.8420 N.am  126  MET126     -0.1964
    104  CA        18.8730   19.9460   81.4060 C.3   126  MET126      0.1736
    105  C         17.4150   20.1560   81.0270 C.2   126  MET126      0.2617
    106  O         16.5680   19.2860   81.2870 O.2   126  MET126     -0.2715
    107  CB        19.4270   18.7320   80.6820 C.3   126  MET126      0.0427
    108  CG        20.8810   18.4080   80.9800 C.3   126  MET126      0.0599
    109  SD        21.1790   17.2970   82.3840 S.3   126  MET126     -0.1393
    110  CE        20.9060   15.6790   81.6730 C.3   126  MET126      0.0692
    111  N         17.0970   21.3020   80.4320 N.am  127  GLY127     -0.1940
    112  CA        15.7360   21.5030   79.8830 C.3   127  GLY127      0.2014
    113  C         15.7140   20.9810   78.4460 C.2   127  GLY127      0.2638
    114  O         16.7330   20.4550   77.9770 O.2   127  GLY127     -0.2714
    115  N         14.5950   21.1060   77.7400 N.am  128  TYR128     -0.1973
    116  CA        14.5910   20.7520   76.3040 C.3   128  TYR128      0.1639
    117  C         15.5060   21.7200   75.5390 C.2   128  TYR128      0.2290
    118  O         15.6470   22.8720   75.9180 O.2   128  TYR128     -0.2864
    119  CB        13.1800   20.6530   75.6710 C.3   128  TYR128      0.0560
    120  CG        12.2940   21.8860   75.7630 C.ar  128  TYR128     -0.0198
    121  CD1       12.5280   23.0080   74.9680 C.ar  128  TYR128     -0.0009
    122  CD2       11.2080   21.9150   76.6340 C.ar  128  TYR128     -0.0009
    123  CE1       11.7020   24.1360   75.0440 C.ar  128  TYR128      0.0417
    124  CE2       10.3880   23.0230   76.7330 C.ar  128  TYR128      0.0417
    125  CZ        10.6370   24.1430   75.9420 C.ar  128  TYR128      0.1957
    126  OH         9.8080   25.2360   76.0520 O.3   128  TYR128     -0.2866
    127  N         16.8050   25.3430   77.8740 N.3   132  ASN132     -0.1225
    128  CA        15.5280   25.8450   78.4100 C.3   132  ASN132      0.1785
    129  C         15.4430   25.6850   79.9560 C.2   132  ASN132      0.2597
    130  O         16.0480   24.7800   80.5360 O.2   132  ASN132     -0.2718
    131  CB        14.3400   25.1540   77.7320 C.3   132  ASN132      0.1169
    132  CG        12.9980   25.7000   78.1870 C.2   132  ASN132      0.2627
    133  OD1       12.6740   26.8750   77.9490 O.2   132  ASN132     -0.2716
    134  ND2       12.2190   24.8760   78.8540 N.am  132  ASN132     -0.0877
    135  N         14.7080   26.5920   80.5910 N.am  133  GLU133     -0.1979
    136  CA        14.5890   26.6570   82.0610 C.3   133  GLU133      0.1602
    137  C         15.7030   27.4400   82.7540 C.2   133  GLU133      0.2287
    138  O         15.5060   27.9020   83.8690 O.2   133  GLU133     -0.2864
    139  CB        14.4740   25.2560   82.7040 C.3   133  GLU133      0.0415
    140  CG        13.3190   24.4200   82.1620 C.3   133  GLU133      0.1163
    141  CD        13.1580   23.0690   82.8600 C.2   133  GLU133      0.3649
    142  OE1       13.1870   23.0130   84.1220 O.co2 133  GLU133     -0.2457
    143  OE2       12.9820   22.0630   82.1400 O.co2 133  GLU133     -0.2457
    144  N         18.2470   26.3580   84.2370 N.3   135  MET135     -0.1245
    145  CA        18.6610   25.7200   85.4480 C.3   135  MET135      0.1570
    146  C         20.1560   25.4010   85.3650 C.2   135  MET135      0.2261
    147  O         20.8090   25.2420   86.4100 O.2   135  MET135     -0.2867
    148  CB        17.8300   24.4560   85.7130 C.3   135  MET135      0.0387
    149  CG        18.1180   23.8400   87.0730 C.3   135  MET135      0.0595
    150  SD        17.0840   22.4400   87.5530 S.3   135  MET135     -0.1393
    151  CE        18.1980   21.7020   88.7390 C.3   135  MET135      0.0692
    152  N          8.8940   20.0920   69.3960 N.3   207  VAL207     -0.1245
    153  CA         9.4310   19.0550   70.2820 C.3   207  VAL207      0.1561
    154  C          8.7860   17.7160   69.9080 C.2   207  VAL207      0.2260
    155  O          7.5800   17.5580   70.0500 O.2   207  VAL207     -0.2867
    156  CB         9.1670   19.3880   71.7660 C.3   207  VAL207      0.0252
    157  CG1        9.6060   18.2520   72.6650 C.3   207  VAL207      0.0019
    158  CG2        9.8910   20.6570   72.1630 C.3   207  VAL207      0.0019
    159  N         14.4810    6.8970   73.0560 N.3   279  LEU279     -0.1231
    160  CA        13.8120    8.1550   73.2030 C.3   279  LEU279      0.1693
    161  C         13.7680    8.5060   74.6870 C.2   279  LEU279      0.2593
    162  O         13.6560    7.6180   75.5230 O.2   279  LEU279     -0.2718
    163  CB        12.4110    8.0530   72.5900 C.3   279  LEU279      0.0284
    164  CG        11.6240    9.3480   72.3160 C.3   279  LEU279      0.0019
    165  CD1       12.3710   10.3220   71.4300 C.3   279  LEU279      0.0001
    166  CD2       10.2770    9.0120   71.6910 C.3   279  LEU279      0.0001
    167  N         13.9250    9.7940   75.0080 N.am  280  THR280     -0.1939
    168  CA        13.7910   10.2860   76.3800 C.3   280  THR280      0.2028
    169  C         12.6440   11.2960   76.4240 C.2   280  THR280      0.2642
    170  O         12.1140   11.6590   75.3840 O.2   280  THR280     -0.2714
    171  CB        15.0360   11.0320   76.8480 C.3   280  THR280      0.1808
    172  OG1       15.0300   12.3400   76.2780 O.3   280  THR280     -0.2208
    173  CG2       16.3230   10.3090   76.4590 C.3   280  THR280      0.0379
    174  N         12.2980   11.7830   77.6220 N.am  281  HIS281     -0.1959
    175  CA        11.2440   12.8070   77.7900 C.3   281  HIS281      0.1787
    176  C         11.6470   14.2030   77.2280 C.2   281  HIS281      0.2620
    177  O         10.8190   15.1000   77.1300 O.2   281  HIS281     -0.2715
    178  CB        10.8030   12.9100   79.2700 C.3   281  HIS281      0.0785
    179  CG        11.6530   13.8150   80.1090 C.ar  281  HIS281      0.0821
    180  ND1       12.9530   13.5100   80.4600 N.ar  281  HIS281     -0.2267
    181  CD2       11.3890   15.0210   80.6590 C.ar  281  HIS281      0.1154
    182  CE1       13.4490   14.4860   81.1940 C.ar  281  HIS281      0.1986
    183  NE2       12.5300   15.4240   81.3100 N.ar  281  HIS281     -0.2212
    184  N         12.9180   14.3660   76.8720 N.am  282  TRP282     -0.1960
    185  CA        13.3890   15.5560   76.1660 C.3   282  TRP282      0.1771
    186  C         13.1060   15.5400   74.6580 C.2   282  TRP282      0.2619
    187  O         13.0960   16.5850   74.0100 O.2   282  TRP282     -0.2715
    188  CB        14.8890   15.7020   76.3940 C.3   282  TRP282      0.0590
    189  CG        15.2270   16.1750   77.7870 C.ar  282  TRP282      0.0006
    190  CD1       14.9810   17.4100   78.3070 C.ar  282  TRP282      0.0946
    191  CD2       15.8890   15.4360   78.8170 C.ar  282  TRP282      0.0152
    192  NE1       15.4350   17.4880   79.6000 N.ar  282  TRP282     -0.2442
    193  CE2       16.0250   16.2970   79.9270 C.ar  282  TRP282      0.0810
    194  CE3       16.4080   14.1500   78.9010 C.ar  282  TRP282      0.0012
    195  CZ2       16.6430   15.8980   81.1180 C.ar  282  TRP282      0.0191
    196  CZ3       17.0240   13.7510   80.0810 C.ar  282  TRP282      0.0001
    197  CH2       17.1450   14.6260   81.1730 C.ar  282  TRP282      0.0015
    198  N         12.8960   14.3400   74.1180 N.am  283  TYR283     -0.1974
    199  CA        12.7450   14.1060   72.6740 C.3   283  TYR283      0.1639
    200  C         13.8810   14.7810   71.9470 C.2   283  TYR283      0.2290
    201  O         15.0620   14.6190   72.3270 O.2   283  TYR283     -0.2864
    202  CB        11.3580   14.5460   72.1650 C.3   283  TYR283      0.0560
    203  CG        10.2180   13.8000   72.8530 C.ar  283  TYR283     -0.0198
    204  CD1        9.7220   14.2200   74.0830 C.ar  283  TYR283     -0.0009
    205  CD2        9.6450   12.6720   72.2660 C.ar  283  TYR283     -0.0009
    206  CE1        8.6970   13.5360   74.7130 C.ar  283  TYR283      0.0417
    207  CE2        8.6200   11.9730   72.8920 C.ar  283  TYR283      0.0417
    208  CZ         8.1570   12.4080   74.1140 C.ar  283  TYR283      0.1957
    209  OH         7.1540   11.7220   74.7170 O.3   283  TYR283     -0.2866
    210  N          4.5230   20.8340   71.2040 N.3   341  PHE341     -0.1241
    211  CA         4.7350   19.4460   71.6060 C.3   341  PHE341      0.1605
    212  C          3.9880   18.5540   70.6340 C.2   341  PHE341      0.2264
    213  O          2.8000   18.2690   70.8210 O.2   341  PHE341     -0.2867
    214  CB         4.2420   19.2070   73.0400 C.3   341  PHE341      0.0534
    215  CG         5.0740   19.8750   74.0960 C.ar  341  PHE341     -0.0203
    216  CD1        6.4580   19.8280   74.0510 C.ar  341  PHE341     -0.0042
    217  CD2        4.4760   20.5190   75.1570 C.ar  341  PHE341     -0.0042
    218  CE1        7.2280   20.4320   75.0240 C.ar  341  PHE341     -0.0003
    219  CE2        5.2340   21.1230   76.1430 C.ar  341  PHE341     -0.0003
    220  CZ         6.6150   21.0780   76.0770 C.ar  341  PHE341     -0.0000
    221  N          4.7330   15.4280   69.5800 N.3   343  TYR343     -0.1241
    222  CA         4.5940   14.0280   69.9700 C.3   343  TYR343      0.1605
    223  C          3.1860   13.7820   70.5090 C.2   343  TYR343      0.2264
    224  O          2.7460   12.6400   70.5530 O.2   343  TYR343     -0.2867
    225  CB         5.6370   13.6400   71.0200 C.3   343  TYR343      0.0534
    226  CG         5.3940   14.2990   72.3640 C.ar  343  TYR343     -0.0201
    227  CD1        4.5340   13.7260   73.3010 C.ar  343  TYR343     -0.0009
    228  CD2        6.0200   15.5000   72.6920 C.ar  343  TYR343     -0.0009
    229  CE1        4.2990   14.3400   74.5210 C.ar  343  TYR343      0.0417
    230  CE2        5.7990   16.1170   73.9100 C.ar  343  TYR343      0.0417
    231  CZ         4.9380   15.5380   74.8180 C.ar  343  TYR343      0.1957
    232  OH         4.7230   16.1610   76.0130 O.3   343  TYR343     -0.2866
@<TRIPOS>BOND
     1   152   153    1
     2   221   222    1
     3   154   155    2
     4   154   153    1
     5   222   223    1
     6   222   225    1
     7   153   156    1
     8   223   224    2
     9   212   213    2
    10   212   211    1
    11   225   226    1
    12   210   211    1
    13   165   164    1
    14   211   214    1
    15   166   164    1
    16   156   158    1
    17   156   157    1
    18   200   201    2
    19   200   199    1
    20   202   199    1
    21   202   203    1
    22   205   203   ar
    23   205   207   ar
    24   164   163    1
    25   226   228   ar
    26   226   227   ar
    27   163   160    1
    28   199   198    1
    29   228   230   ar
    30   203   204   ar
    31   207   208   ar
    32   214   215    1
    33   159   160    1
    34   160   161    1
    35   227   229   ar
    36   230   231   ar
    37   187   186    2
    38   216   215   ar
    39   216   218   ar
    40   204   206   ar
    41   215   217   ar
    42   208   206   ar
    43   208   209    1
    44   198   186   am
    45   229   231   ar
    46   186   185    1
    47   161   167   am
    48   161   162    2
    49   231   232    1
    50   121   123   ar
    51   121   120   ar
    52   167   168    1
    53   218   220   ar
    54   123   125   ar
    55   217   219   ar
    56   170   169    2
    57   117   118    2
    58   117   116    1
    59   119   120    1
    60   119   116    1
    61   120   122   ar
    62   125   126    1
    63   125   124   ar
    64   220   219   ar
    65   185   188    1
    66   185   184    1
    67   172   171    1
    68   116   115    1
    69   168   169    1
    70   168   171    1
    71   188   189    1
    72   169   174   am
    73   173   171    1
    74   122   124   ar
    75   184   176   am
    76   177   176    2
    77   176   175    1
    78   174   175    1
    79   131   132    1
    80   131   128    1
    81   115   113   am
    82   189   190   ar
    83   189   191   ar
    84   175   178    1
    85   127   128    1
    86   133   132    2
    87   114   113    2
    88   132   134   am
    89   190   192   ar
    90   128   129    1
    91   113   112    1
    92   191   194   ar
    93   191   193   ar
    94   194   196   ar
    95   178   179    1
    96   192   193   ar
    97    86    84   ar
    98   112   111    1
    99   193   195   ar
   100   129   130    2
   101   129   135   am
   102   196   197   ar
   103    85    84   ar
   104   179   180   ar
   105   179   181   ar
   106   111   105   am
   107    84    83    1
   108   180   182   ar
   109   135   136    1
   110   181   183   ar
   111   107   108    1
   112   107   104    1
   113   108   109    1
   114   105   106    2
   115   105   104    1
   116   195   197   ar
   117   182   183   ar
   118   104   103    1
   119   110   109    1
   120    83    80    1
   121    60    59    2
   122    80    81    1
   123    80    79    1
   124   136   139    1
   125   136   137    1
   126   143   141   ar
   127   140   139    1
   128   140   141    1
   129    61    59   am
   130    81    82    2
   131    59    58    1
   132   137   138    2
   133    73    72    2
   134   103    98   am
   135   141   142   ar
   136    79    72   am
   137    99    98    2
   138     8     7    2
   139    72    71    1
   140    57    56    2
   141    98    97    1
   142     9     7   am
   143    32    30   ar
   144    32    31   ar
   145    30    28   ar
   146    95    93   ar
   147    58    55    1
   148   144   145    1
   149     7     6    1
   150    56    55    1
   151    56    62   am
   152    53    51   am
   153    74    71    1
   154    74    75    1
   155    93    94   ar
   156    93    92    1
   157    77    76    2
   158    55    54    1
   159    52    51    2
   160    71    70    1
   161    31    29   ar
   162    65    64    2
   163    28    27   ar
   164    63    62    1
   165    63    64    1
   166    63    66    1
   167    92    91    1
   168    67    66    1
   169    67    68    1
   170    97    96    1
   171    97   100    1
   172   101   102    1
   173   101   100    1
   174    44    43    1
   175    51    50    1
   176    76    78   am
   177    76    75    1
   178   102    96    1
   179   146   145    1
   180   146   147    2
   181   145   148    1
   182    96    89   am
   183    18    16   ar
   184    18    20   ar
   185   148   149    1
   186    16    15   ar
   187     6     5    1
   188    29    27   ar
   189    27    26    1
   190    68    69    1
   191     5     2    1
   192    89    90    2
   193    89    88    1
   194    21    20    1
   195    43    42   ar
   196    43    41   ar
   197    91    88    1
   198    20    19   ar
   199    88    87    1
   200    50    49    1
   201    48    47    2
   202    26    23    1
   203    42    40   ar
   204    41    39   ar
   205    15    14    1
   206    15    17   ar
   207   149   150    1
   208    14    11    1
   209    46    49    1
   210    46    47    1
   211    46    45    1
   212    11    10    1
   213    11    12    1
   214    10     3   am
   215   150   151    1
   216     2     3    1
   217     2     1    1
   218     3     4    2
   219    19    17   ar
   220    40    38   ar
   221    23    24    1
   222    23    22    1
   223    39    38   ar
   224    13    12    2
   225    38    37    1
   226    24    25    2
   227    24    33   am
   228    33    34    1
   229    34    37    1
   230    34    35    1
   231    35    36    2
