@<TRIPOS>MOLECULE
tmp/5dx8B00.pdb
 256 255 0 0 0
SMALL
GASTEIGER

@<TRIPOS>ATOM
      1  N          2.0350   35.2180   20.8750 N.3    15  GLN15      -0.1231
      2  CA         2.0280   34.0030   21.6480 C.3    15  GLN15       0.1698
      3  C          3.3290   33.8450   22.4370 C.2    15  GLN15       0.2592
      4  O          3.3460   33.4070   23.6030 O.2    15  GLN15      -0.2718
      5  CB         1.8120   32.8180   20.7010 C.3    15  GLN15       0.0381
      6  CG         1.6380   31.5020   21.4170 C.3    15  GLN15       0.0905
      7  CD         2.9090   30.6590   21.4200 C.2    15  GLN15       0.2608
      8  OE1        3.4890   30.3870   20.3600 O.2    15  GLN15      -0.2717
      9  NE2        3.3360   30.2120   22.6120 N.am   15  GLN15      -0.0878
     10  N          4.4180   34.2210   21.7880 N.am   16  TYR16      -0.1976
     11  CA         5.7210   34.0970   22.3780 C.3    16  TYR16       0.1639
     12  C          5.8050   34.9050   23.6910 C.2    16  TYR16       0.2290
     13  O          6.2550   34.4050   24.7100 O.2    16  TYR16      -0.2864
     14  CB         6.7540   34.5770   21.3630 C.3    16  TYR16       0.0560
     15  CG         8.1990   34.4860   21.8000 C.ar   16  TYR16      -0.0198
     16  CD1        8.8970   33.3070   21.6900 C.ar   16  TYR16      -0.0009
     17  CD2        8.8750   35.6090   22.2830 C.ar   16  TYR16      -0.0009
     18  CE1       10.2300   33.2360   22.0520 C.ar   16  TYR16       0.0417
     19  CE2       10.2060   35.5440   22.6600 C.ar   16  TYR16       0.0417
     20  CZ        10.8850   34.3660   22.5360 C.ar   16  TYR16       0.1957
     21  OH        12.2160   34.2970   22.9330 O.3    16  TYR16      -0.2866
     22  N          3.6560   33.6980   26.6110 N.3    19  PHE19      -0.1227
     23  CA         4.3000   32.6320   27.3600 C.3    19  PHE19       0.1736
     24  C          5.2040   33.1760   28.4540 C.2    19  PHE19       0.2595
     25  O          5.1310   32.7670   29.6060 O.2    19  PHE19      -0.2718
     26  CB         5.0970   31.7670   26.3920 C.3    19  PHE19       0.0547
     27  CG         5.8240   30.6300   27.0180 C.ar   19  PHE19      -0.0202
     28  CD1        5.2180   29.4030   27.1650 C.ar   19  PHE19      -0.0042
     29  CD2        7.1590   30.7520   27.3690 C.ar   19  PHE19      -0.0042
     30  CE1        5.9060   28.3310   27.7020 C.ar   19  PHE19      -0.0003
     31  CE2        7.8510   29.6890   27.9070 C.ar   19  PHE19      -0.0003
     32  CZ         7.2250   28.4650   28.0570 C.ar   19  PHE19      -0.0000
     33  N          6.0550   34.1180   28.1010 N.am   20  TYR20      -0.1976
     34  CA         7.0330   34.6180   29.0800 C.3    20  TYR20       0.1639
     35  C          6.4420   35.5650   30.1210 C.2    20  TYR20       0.2290
     36  O          7.0770   35.8420   31.1610 O.2    20  TYR20      -0.2864
     37  CB         8.1940   35.2860   28.3590 C.3    20  TYR20       0.0560
     38  CG         9.1480   34.2970   27.7870 C.ar   20  TYR20      -0.0198
     39  CD1        9.8530   33.4290   28.6220 C.ar   20  TYR20      -0.0009
     40  CD2        9.3810   34.2380   26.4030 C.ar   20  TYR20      -0.0009
     41  CE1       10.7520   32.5300   28.1000 C.ar   20  TYR20       0.0417
     42  CE2       10.2670   33.3300   25.8790 C.ar   20  TYR20       0.0417
     43  CZ        10.9610   32.4850   26.7320 C.ar   20  TYR20       0.1957
     44  OH        11.8870   31.5920   26.2380 O.3    20  TYR20      -0.2866
     45  N          6.1630   30.3870   33.9650 N.3    25  GLN25      -0.1245
     46  CA         7.1690   30.1160   32.9530 C.3    25  GLN25       0.1566
     47  C          8.5350   30.7060   33.3130 C.2    25  GLN25       0.2260
     48  O          9.5620   30.1040   33.0280 O.2    25  GLN25      -0.2867
     49  CB         6.7130   30.5640   31.5890 C.3    25  GLN25       0.0367
     50  CG         5.5070   29.7990   31.0430 C.3    25  GLN25       0.0905
     51  CD         5.7330   28.3160   30.9430 C.2    25  GLN25       0.2608
     52  OE1        6.8770   27.8140   30.9200 O.2    25  GLN25      -0.2717
     53  NE2        4.6380   27.5870   30.8720 N.am   25  GLN25      -0.0878
     54  N          9.8390   28.3040   35.7900 N.3    28  ASN28      -0.1225
     55  CA        10.3720   27.0850   35.1710 C.3    28  ASN28       0.1785
     56  C         11.8760   27.2350   34.8840 C.2    28  ASN28       0.2597
     57  O         12.6790   26.3910   35.2510 O.2    28  ASN28      -0.2718
     58  CB         9.5890   26.7670   33.9110 C.3    28  ASN28       0.1169
     59  CG        10.0800   25.4960   33.2260 C.2    28  ASN28       0.2627
     60  OD1       10.1360   24.4260   33.8280 O.2    28  ASN28      -0.2716
     61  ND2       10.4700   25.6210   31.9770 N.am   28  ASN28      -0.0877
     62  N         12.2540   28.3440   34.2660 N.am   29  MET29      -0.1979
     63  CA        13.6760   28.6200   33.9660 C.3    29  MET29       0.1605
     64  C         14.5410   28.8350   35.2280 C.2    29  MET29       0.2287
     65  O         15.6180   28.2450   35.3860 O.2    29  MET29      -0.2864
     66  CB        13.7890   29.8340   33.0350 C.3    29  MET29       0.0413
     67  CG        13.2830   29.5680   31.6230 C.3    29  MET29       0.0598
     68  SD        13.2840   31.0010   30.5620 S.3    29  MET29      -0.1393
     69  CE        12.0070   32.0300   31.2560 C.3    29  MET29       0.0692
     70  N         14.0340   27.7200   38.1400 N.3    31  GLN31      -0.1231
     71  CA        14.1880   26.4450   38.8430 C.3    31  GLN31       0.1698
     72  C         15.1550   25.4660   38.2320 C.2    31  GLN31       0.2592
     73  O         15.4960   24.5030   38.8990 O.2    31  GLN31      -0.2718
     74  CB        12.8430   25.7440   39.0000 C.3    31  GLN31       0.0381
     75  CG        11.9860   26.4430   40.0180 C.3    31  GLN31       0.0905
     76  CD        10.6800   25.7190   40.3060 C.2    31  GLN31       0.2608
     77  OE1       10.2690   25.6420   41.4530 O.2    31  GLN31      -0.2717
     78  NE2       10.0310   25.1920   39.2730 N.am   31  GLN31      -0.0878
     79  N         15.5880   25.6890   36.9810 N.am   32  ASP32      -0.1974
     80  CA        16.6870   24.9450   36.4100 C.3    32  ASP32       0.1709
     81  C         17.9580   25.4440   37.1200 C.2    32  ASP32       0.2293
     82  O         18.4880   26.4900   36.8210 O.2    32  ASP32      -0.2864
     83  CB        16.7180   25.1080   34.8810 C.3    32  ASP32       0.1436
     84  CG        17.8840   24.4180   34.2240 C.2    32  ASP32       0.3671
     85  OD1       18.8520   24.0500   34.8850 O.co2  32  ASP32      -0.2456
     86  OD2       17.8540   24.2560   32.9900 O.co2  32  ASP32      -0.2456
     87  N         20.1520   35.4060   28.6180 N.3   124  GLU124     -0.1231
     88  CA        19.9430   33.9840   28.4070 C.3   124  GLU124      0.1684
     89  C         18.9330   33.8430   27.2740 C.2   124  GLU124      0.2434
     90  O         17.7100   33.8750   27.4750 O.2   124  GLU124     -0.2733
     91  CB        19.5650   33.2740   29.7020 C.3   124  GLU124      0.0402
     92  CG        19.5860   31.7620   29.6060 C.3   124  GLU124      0.1161
     93  CD        18.3060   31.2050   29.0080 C.2   124  GLU124      0.3649
     94  OE1       17.3350   30.9850   29.7800 O.co2 124  GLU124     -0.2457
     95  OE2       18.2630   31.0260   27.7500 O.co2 124  GLU124     -0.2457
     96  N         19.4610   33.7460   26.0510 N.am  125  PRO125     -0.2718
     97  CA        18.6520   33.6900   24.8640 C.3   125  PRO125      0.1535
     98  C         18.6620   32.3550   24.1130 C.2   125  PRO125      0.2598
     99  O         18.2810   32.3220   22.9230 O.2   125  PRO125     -0.2715
    100  CB        19.3090   34.7530   23.9970 C.3   125  PRO125      0.0310
    101  CG        20.7330   34.5270   24.2740 C.3   125  PRO125      0.0237
    102  CD        20.8490   34.0610   25.7090 C.3   125  PRO125      0.0939
    103  N         19.1190   31.2950   24.7690 N.am  126  MET126     -0.1964
    104  CA        19.2630   29.9660   24.1600 C.3   126  MET126      0.1736
    105  C         17.9540   29.2050   24.1660 C.2   126  MET126      0.2617
    106  O         17.4120   28.9420   25.2310 O.2   126  MET126     -0.2715
    107  CB        20.3010   29.1550   24.9200 C.3   126  MET126      0.0427
    108  CG        21.7070   29.7790   24.8950 C.3   126  MET126      0.0599
    109  SD        22.1710   30.8060   26.2950 S.3   126  MET126     -0.1393
    110  CE        22.2990   29.7130   27.7030 C.3   126  MET126      0.0692
    111  N         17.4610   28.8610   22.9800 N.am  127  GLY127     -0.1940
    112  CA        16.2880   27.9930   22.8250 C.3   127  GLY127      0.2014
    113  C         16.7540   26.5610   22.8520 C.2   127  GLY127      0.2638
    114  O         17.9580   26.2960   22.8990 O.2   127  GLY127     -0.2714
    115  N         15.8270   25.6160   22.8430 N.am  128  TYR128     -0.1973
    116  CA        16.2580   24.2370   22.6040 C.3   128  TYR128      0.1639
    117  C         16.8960   24.1820   21.2210 C.2   128  TYR128      0.2290
    118  O         16.5510   24.9530   20.3410 O.2   128  TYR128     -0.2864
    119  CB        15.1090   23.2110   22.7900 C.3   128  TYR128      0.0560
    120  CG        13.8900   23.4420   21.9590 C.ar  128  TYR128     -0.0198
    121  CD1       13.8610   23.0640   20.6180 C.ar  128  TYR128     -0.0009
    122  CD2       12.7480   24.0220   22.4900 C.ar  128  TYR128     -0.0009
    123  CE1       12.7450   23.2680   19.8320 C.ar  128  TYR128      0.0417
    124  CE2       11.6200   24.2270   21.6990 C.ar  128  TYR128      0.0417
    125  CZ        11.6350   23.8510   20.3790 C.ar  128  TYR128      0.1957
    126  OH        10.5500   24.0500   19.5740 O.3   128  TYR128     -0.2866
    127  N         16.4410   27.7370   18.4690 N.3   132  ASN132     -0.1225
    128  CA        14.9690   27.9710   18.5510 C.3   132  ASN132      0.1785
    129  C         14.6480   29.2360   19.3210 C.2   132  ASN132      0.2597
    130  O         15.3040   29.5220   20.3180 O.2   132  ASN132     -0.2718
    131  CB        14.2270   26.8130   19.2070 C.3   132  ASN132      0.1169
    132  CG        12.6980   26.9690   19.1100 C.2   132  ASN132      0.2627
    133  OD1       12.1280   27.0320   18.0100 O.2   132  ASN132     -0.2716
    134  ND2       12.0400   26.9880   20.2340 N.am  132  ASN132     -0.0877
    135  N         13.6410   29.9770   18.8340 N.am  133  GLU133     -0.1979
    136  CA        13.1830   31.2840   19.3370 C.3   133  GLU133      0.1602
    137  C         13.7990   32.4670   18.5930 C.2   133  GLU133      0.2287
    138  O         13.2240   33.5350   18.5920 O.2   133  GLU133     -0.2864
    139  CB        13.3580   31.4810   20.8530 C.3   133  GLU133      0.0415
    140  CG        12.6470   30.4400   21.6920 C.3   133  GLU133      0.1163
    141  CD        12.7850   30.6650   23.1810 C.2   133  GLU133      0.3649
    142  OE1       12.5560   31.7990   23.6980 O.co2 133  GLU133     -0.2457
    143  OE2       13.1750   29.6900   23.8430 O.co2 133  GLU133     -0.2457
    144  N         16.1010   34.2490   19.5240 N.3   135  MET135     -0.1245
    145  CA        16.4840   35.2650   20.4830 C.3   135  MET135      0.1570
    146  C         18.0000   35.5470   20.4500 C.2   135  MET135      0.2261
    147  O         18.4310   36.6480   20.7910 O.2   135  MET135     -0.2867
    148  CB        16.0060   34.9000   21.9030 C.3   135  MET135      0.0387
    149  CG        16.0230   36.0710   22.8720 C.3   135  MET135      0.0595
    150  SD        15.6840   35.6530   24.5790 S.3   135  MET135     -0.1393
    151  CE        16.4490   37.0820   25.3690 C.3   135  MET135      0.0692
    152  N         12.6120   16.1490   21.7260 N.3   207  VAL207     -0.1245
    153  CA        13.2060   16.6930   22.9310 C.3   207  VAL207      0.1561
    154  C         13.0970   15.7370   24.1110 C.2   207  VAL207      0.2260
    155  O         12.0070   15.4570   24.5930 O.2   207  VAL207     -0.2867
    156  CB        12.5890   18.0570   23.2570 C.3   207  VAL207      0.0252
    157  CG1       13.2380   18.6880   24.4740 C.3   207  VAL207      0.0019
    158  CG2       12.7380   18.9950   22.0730 C.3   207  VAL207      0.0019
    159  N         21.2340   17.1210   33.7590 N.3   279  LEU279     -0.1231
    160  CA        20.1590   17.4400   32.8580 C.3   279  LEU279      0.1693
    161  C         19.7030   18.8810   33.0870 C.2   279  LEU279      0.2593
    162  O         19.6950   19.3320   34.2270 O.2   279  LEU279     -0.2718
    163  CB        18.9890   16.4830   33.0660 C.3   279  LEU279      0.0284
    164  CG        17.9940   16.3300   31.9100 C.3   279  LEU279      0.0019
    165  CD1       18.6800   16.0360   30.5840 C.3   279  LEU279      0.0001
    166  CD2       16.9940   15.2230   32.2310 C.3   279  LEU279      0.0001
    167  N         19.3760   19.5890   32.0020 N.am  280  THR280     -0.1939
    168  CA        18.8080   20.9700   32.0400 C.3   280  THR280      0.2028
    169  C         17.4340   20.9700   31.4460 C.2   280  THR280      0.2642
    170  O         17.0280   19.9620   30.8570 O.2   280  THR280     -0.2714
    171  CB        19.6620   21.9550   31.2210 C.3   280  THR280      0.1808
    172  OG1       19.5160   21.6960   29.8100 O.3   280  THR280     -0.2208
    173  CG2       21.1160   21.7990   31.6200 C.3   280  THR280      0.0379
    174  N         16.7160   22.0890   31.5470 N.am  281  HIS281     -0.1959
    175  CA        15.4040   22.1850   30.9650 C.3   281  HIS281      0.1787
    176  C         15.4560   22.2140   29.4420 C.2   281  HIS281      0.2620
    177  O         14.4360   22.1730   28.8030 O.2   281  HIS281     -0.2715
    178  CB        14.6010   23.3800   31.5110 C.3   281  HIS281      0.0785
    179  CG        14.9490   24.7050   30.9040 C.ar  281  HIS281      0.0821
    180  ND1       16.1810   25.3100   31.0680 N.ar  281  HIS281     -0.2267
    181  CD2       14.2300   25.5350   30.1170 C.ar  281  HIS281      0.1154
    182  CE1       16.1950   26.4580   30.4230 C.ar  281  HIS281      0.1986
    183  NE2       15.0190   26.6290   29.8560 N.ar  281  HIS281     -0.2212
    184  N         16.6520   22.2640   28.8770 N.am  282  TRP282     -0.1960
    185  CA        16.8190   22.1020   27.4310 C.3   282  TRP282      0.1771
    186  C         16.8980   20.6290   26.9420 C.2   282  TRP282      0.2619
    187  O         16.7940   20.3630   25.7510 O.2   282  TRP282     -0.2715
    188  CB        18.0740   22.8590   26.9920 C.3   282  TRP282      0.0590
    189  CG        17.9190   24.3410   27.0120 C.ar  282  TRP282      0.0006
    190  CD1       17.1510   25.0850   26.1870 C.ar  282  TRP282      0.0946
    191  CD2       18.5830   25.2680   27.8820 C.ar  282  TRP282      0.0152
    192  NE1       17.2890   26.4080   26.4790 N.ar  282  TRP282     -0.2442
    193  CE2       18.1330   26.5450   27.5370 C.ar  282  TRP282      0.0810
    194  CE3       19.4590   25.1280   28.9560 C.ar  282  TRP282      0.0012
    195  CZ2       18.5920   27.6890   28.1700 C.ar  282  TRP282      0.0191
    196  CZ3       19.8910   26.2410   29.5990 C.ar  282  TRP282      0.0001
    197  CH2       19.4750   27.5190   29.1940 C.ar  282  TRP282      0.0015
    198  N         17.0890   19.6900   27.8500 N.am  283  TYR283     -0.1974
    199  CA        17.3270   18.2920   27.4500 C.3   283  TYR283      0.1639
    200  C         18.3250   18.2200   26.3210 C.2   283  TYR283      0.2290
    201  O         19.3620   18.8950   26.3470 O.2   283  TYR283     -0.2864
    202  CB        15.9670   17.6290   27.0880 C.3   283  TYR283      0.0560
    203  CG        15.0610   17.7190   28.2610 C.ar  283  TYR283     -0.0198
    204  CD1       14.3060   18.8380   28.4750 C.ar  283  TYR283     -0.0009
    205  CD2       15.0340   16.7040   29.2070 C.ar  283  TYR283     -0.0009
    206  CE1       13.5110   18.9470   29.5890 C.ar  283  TYR283      0.0417
    207  CE2       14.2440   16.7950   30.3370 C.ar  283  TYR283      0.0417
    208  CZ        13.4710   17.9220   30.5170 C.ar  283  TYR283      0.1957
    209  OH        12.6750   18.0350   31.6290 O.3   283  TYR283     -0.2866
    210  N         10.2330   24.5600   15.2880 N.3   337  LYS337     -0.1231
    211  CA         9.1450   25.1330   16.0560 C.3   337  LYS337      0.1693
    212  C          8.1880   24.1110   16.6830 C.2   337  LYS337      0.2592
    213  O          7.5930   24.4290   17.7080 O.2   337  LYS337     -0.2718
    214  CB         8.3470   26.0530   15.1270 C.3   337  LYS337      0.0285
    215  CG         7.2610   26.8950   15.7710 C.3   337  LYS337      0.0035
    216  CD         7.8280   27.9430   16.7110 C.3   337  LYS337      0.0206
    217  CE         6.6970   28.8040   17.2650 C.3   337  LYS337      0.1093
    218  NZ         7.1200   30.1650   17.6520 N.3   337  LYS337     -0.1314
    219  N          8.0010   22.9210   16.0980 N.am  338  ASN338     -0.1961
    220  CA         6.9980   21.9910   16.6330 C.3   338  ASN338      0.1804
    221  C          7.5260   20.5930   17.0200 C.2   338  ASN338      0.2463
    222  O          7.2810   19.5750   16.3600 O.2   338  ASN338     -0.2730
    223  CB         5.7850   22.0010   15.7240 C.3   338  ASN338      0.1195
    224  CG         5.1880   23.3970   15.6210 C.2   338  ASN338      0.2630
    225  OD1        4.8810   24.0230   16.6420 O.2   338  ASN338     -0.2716
    226  ND2        5.0760   23.9130   14.4050 N.am  338  ASN338     -0.0877
    227  N          8.2320   20.5470   18.1600 N.am  339  PRO339     -0.2727
    228  CA         8.8350   19.3400   18.6810 C.3   339  PRO339      0.1402
    229  C          7.8800   18.3960   19.3880 C.2   339  PRO339      0.2269
    230  O          6.7670   18.7640   19.7280 O.2   339  PRO339     -0.2865
    231  CB         9.8140   19.8920   19.7020 C.3   339  PRO339      0.0296
    232  CG         9.1020   21.0740   20.2510 C.3   339  PRO339      0.0237
    233  CD         8.5100   21.7010   19.0340 C.3   339  PRO339      0.0939
    234  N          7.8630   16.6030   22.8920 N.3   341  PHE341     -0.1241
    235  CA         8.4300   16.5350   24.2370 C.3   341  PHE341      0.1605
    236  C          8.2210   15.1370   24.7930 C.2   341  PHE341      0.2264
    237  O          7.1450   14.8140   25.2710 O.2   341  PHE341     -0.2867
    238  CB         7.7920   17.5650   25.1600 C.3   341  PHE341      0.0534
    239  CG         8.1600   18.9990   24.8480 C.ar  341  PHE341     -0.0203
    240  CD1        9.3410   19.3260   24.2160 C.ar  341  PHE341     -0.0042
    241  CD2        7.3320   20.0300   25.2570 C.ar  341  PHE341     -0.0042
    242  CE1        9.6860   20.6400   23.9620 C.ar  341  PHE341     -0.0003
    243  CE2        7.6710   21.3490   25.0130 C.ar  341  PHE341     -0.0003
    244  CZ         8.8550   21.6580   24.3560 C.ar  341  PHE341     -0.0000
    245  N         10.3310   13.4180   27.0800 N.3   343  TYR343     -0.1241
    246  CA        10.6190   13.3090   28.5140 C.3   343  TYR343      0.1605
    247  C          9.3220   13.2750   29.3260 C.2   343  TYR343      0.2264
    248  O          9.2790   12.6930   30.4090 O.2   343  TYR343     -0.2867
    249  CB        11.4800   14.4850   28.9810 C.3   343  TYR343      0.0534
    250  CG        10.7620   15.8340   28.9270 C.ar  343  TYR343     -0.0201
    251  CD1        9.9810   16.2800   30.0060 C.ar  343  TYR343     -0.0009
    252  CD2       10.8420   16.6540   27.7890 C.ar  343  TYR343     -0.0009
    253  CE1        9.3210   17.4990   29.9650 C.ar  343  TYR343      0.0417
    254  CE2       10.1820   17.8850   27.7440 C.ar  343  TYR343      0.0417
    255  CZ         9.4190   18.3000   28.8350 C.ar  343  TYR343      0.1957
    256  OH         8.7620   19.5170   28.8030 O.3   343  TYR343     -0.2866
@<TRIPOS>BOND
     1   226   224   am
     2   214   215    1
     3   214   211    1
     4   210   211    1
     5   224   223    1
     6   224   225    2
     7   223   220    1
     8   215   216    1
     9   211   212    1
    10   219   220    1
    11   219   212   am
    12   222   221    2
    13   220   221    1
    14   212   213    2
    15   216   217    1
    16   221   227   am
    17   217   218    1
    18   133   132    2
    19   227   228    1
    20   227   233    1
    21   127   128    1
    22   128   131    1
    23   128   129    1
    24   138   137    2
    25   137   136    1
    26   228   229    1
    27   228   231    1
    28   135   129   am
    29   135   136    1
    30   233   232    1
    31   132   131    1
    32   132   134   am
    33   129   130    2
    34   136   139    1
    35   229   230    2
    36   144   145    1
    37   126   125    1
    38   231   232    1
    39   123   125   ar
    40   123   121   ar
    41   118   117    2
    42     8     7    2
    43   125   124   ar
    44   146   145    1
    45   146   147    2
    46   145   148    1
    47   121   120   ar
    48     5     6    1
    49     5     2    1
    50   139   140    1
    51     1     2    1
    52   117   116    1
    53    14    15    1
    54    14    11    1
    55     6     7    1
    56     7     9   am
    57     2     3    1
    58    16    15   ar
    59    16    18   ar
    60   140   141    1
    61   124   122   ar
    62   152   153    1
    63    10    11    1
    64    10     3   am
    65    15    17   ar
    66   148   149    1
    67   120   122   ar
    68   120   119    1
    69    18    20   ar
    70   158   156    1
    71    17    19   ar
    72    11    12    1
    73     3     4    2
    74    20    19   ar
    75    20    21    1
    76   116   119    1
    77   116   115    1
    78   112   113    1
    79   112   111    1
    80   115   113   am
    81   113   114    2
    82   149   150    1
    83   234   235    1
    84    99    98    2
    85   153   156    1
    86   153   154    1
    87   111   105   am
    88   141   142   ar
    89   141   143   ar
    90   156   157    1
    91    12    13    2
    92   242   240   ar
    93   242   244   ar
    94   100   101    1
    95   100    97    1
    96   154   155    2
    97    98   103   am
    98    98    97    1
    99   104   105    1
   100   104   103    1
   101   104   107    1
   102   105   106    2
   103   240   239   ar
   104   235   236    1
   105   235   238    1
   106   101   102    1
   107   244   243   ar
   108   150   151    1
   109   236   237    2
   110   239   238    1
   111   239   241   ar
   112    97    96    1
   113   108   107    1
   114   108   109    1
   115   243   241   ar
   116   102    96    1
   117   187   186    2
   118    42    40   ar
   119    42    43   ar
   120    96    89   am
   121   190   192   ar
   122   190   189   ar
   123    44    43    1
   124   109   110    1
   125   200   201    2
   126   200   199    1
   127    26    27    1
   128    26    23    1
   129    40    38   ar
   130   192   193   ar
   131    22    23    1
   132    43    41   ar
   133   186   185    1
   134   186   198   am
   135   188   189    1
   136   188   185    1
   137   189   191   ar
   138    27    28   ar
   139    27    29   ar
   140   245   246    1
   141   202   199    1
   142   202   203    1
   143    28    30   ar
   144    89    90    2
   145    89    88    1
   146    23    24    1
   147    29    31   ar
   148   185   184    1
   149   199   198    1
   150   193   191   ar
   151   193   195   ar
   152    30    32   ar
   153   254   252   ar
   154   254   255   ar
   155    95    93   ar
   156    38    37    1
   157    38    39   ar
   158   252   250   ar
   159   191   194   ar
   160    31    32   ar
   161    41    39   ar
   162    33    24   am
   163    33    34    1
   164   195   197   ar
   165   203   204   ar
   166   203   205   ar
   167    37    34    1
   168    88    87    1
   169    88    91    1
   170    24    25    2
   171   204   206   ar
   172   246   249    1
   173   246   247    1
   174   177   176    2
   175   256   255    1
   176   255   253   ar
   177   184   176   am
   178   250   249    1
   179   250   251   ar
   180   194   196   ar
   181    93    92    1
   182    93    94   ar
   183    34    35    1
   184   197   196   ar
   185   205   207   ar
   186   247   248    2
   187   176   175    1
   188   206   208   ar
   189    92    91    1
   190   172   171    1
   191   183   181   ar
   192   183   182   ar
   193   253   251   ar
   194   181   179   ar
   195    35    36    2
   196   207   208   ar
   197   182   180   ar
   198   208   209    1
   199    68    69    1
   200    68    67    1
   201   165   164    1
   202   170   169    2
   203    53    51   am
   204   179   180   ar
   205   179   178    1
   206    52    51    2
   207    51    50    1
   208   175   178    1
   209   175   174    1
   210    50    49    1
   211   171   173    1
   212   171   168    1
   213   169   174   am
   214   169   168    1
   215    49    46    1
   216    67    66    1
   217   164   166    1
   218   164   163    1
   219    61    59   am
   220   167   168    1
   221   167   161   am
   222   160   163    1
   223   160   161    1
   224   160   159    1
   225    46    47    1
   226    46    45    1
   227    86    84   ar
   228    48    47    2
   229    66    63    1
   230   161   162    2
   231    59    60    2
   232    59    58    1
   233    58    55    1
   234    63    62    1
   235    63    64    1
   236    84    83    1
   237    84    85   ar
   238    62    56   am
   239    83    80    1
   240    56    55    1
   241    56    57    2
   242    55    54    1
   243    64    65    2
   244    80    79    1
   245    80    81    1
   246    82    81    2
   247    79    72   am
   248    70    71    1
   249    72    71    1
   250    72    73    2
   251    71    74    1
   252    74    75    1
   253    78    76   am
   254    75    76    1
   255    76    77    2
