@<TRIPOS>MOLECULE
tmp/5dx9A00.pdb
 223 212 0 0 0
SMALL
GASTEIGER

@<TRIPOS>ATOM
      1  N         -3.8240   20.2680    9.5630 N.3    25  ASN25      -0.1225
      2  CA        -3.1230   20.4350   10.8310 C.3    25  ASN25       0.1785
      3  C         -4.0920   20.0460   11.9350 C.2    25  ASN25       0.2597
      4  O         -5.2980   19.9650   11.6930 O.2    25  ASN25      -0.2718
      5  CB        -2.6270   21.8730   11.0060 C.3    25  ASN25       0.1169
      6  CG        -1.8890   22.0860   12.3190 C.2    25  ASN25       0.2627
      7  OD1       -2.3650   22.7900   13.2030 O.2    25  ASN25      -0.2716
      8  ND2       -0.7220   21.4820   12.4420 N.am   25  ASN25      -0.0877
      9  N         -3.5940   19.7860   13.1400 N.am   26  TYR26      -0.1962
     10  CA        -4.5130   19.4130   14.2080 C.3    26  TYR26       0.1771
     11  C         -4.7990   20.5420   15.1840 C.2    26  TYR26       0.2619
     12  O         -5.8700   21.1390   15.1440 O.2    26  TYR26      -0.2715
     13  CB        -4.0120   18.2050   14.9950 C.3    26  TYR26       0.0574
     14  CG        -5.0610   17.7660   15.9910 C.ar   26  TYR26      -0.0198
     15  CD1       -6.2910   17.2900   15.5520 C.ar   26  TYR26      -0.0009
     16  CD2       -4.8460   17.8630   17.3610 C.ar   26  TYR26      -0.0009
     17  CE1       -7.2680   16.9030   16.4410 C.ar   26  TYR26       0.0417
     18  CE2       -5.8210   17.4720   18.2650 C.ar   26  TYR26       0.0417
     19  CZ        -7.0320   16.9920   17.7950 C.ar   26  TYR26       0.1957
     20  OH        -8.0200   16.6040   18.6640 O.3    26  TYR26      -0.2866
     21  N         -3.8550   20.8150   16.0780 N.am   27  ASP27      -0.1971
     22  CA        -4.0710   21.8200   17.1120 C.3    27  ASP27       0.1709
     23  C         -4.3180   23.1860   16.4890 C.2    27  ASP27       0.2293
     24  O         -3.5880   23.6040   15.5930 O.2    27  ASP27      -0.2864
     25  CB        -2.8780   21.8760   18.0700 C.3    27  ASP27       0.1436
     26  CG        -2.6420   20.5580   18.7750 C.2    27  ASP27       0.3671
     27  OD1       -3.5170   20.1490   19.5660 O.co2  27  ASP27      -0.2456
     28  OD2       -1.5850   19.9340   18.5380 O.co2  27  ASP27      -0.2456
     29  N         -9.6780   23.4690   19.0030 N.3    32  PRO32      -0.2102
     30  CA        -9.2090   24.7090   19.6290 C.3    32  PRO32       0.1504
     31  C         -7.9080   24.5360   20.4120 C.2    32  PRO32       0.2576
     32  O         -7.5840   23.4330   20.8530 O.2    32  PRO32      -0.2718
     33  CB       -10.3570   25.0830   20.5740 C.3    32  PRO32       0.0282
     34  CG       -11.5540   24.3650   20.0360 C.3    32  PRO32       0.0208
     35  CD       -11.0300   23.0940   19.4540 C.3    32  PRO32       0.0893
     36  N         -7.1640   25.6270   20.5550 N.am   33  ILE33      -0.1966
     37  CA        -6.0620   25.6890   21.5050 C.3    33  ILE33       0.1727
     38  C         -6.6590   25.6860   22.9050 C.2    33  ILE33       0.2616
     39  O         -7.5830   26.4450   23.1790 O.2    33  ILE33      -0.2715
     40  CB        -5.1980   26.9530   21.3030 C.3    33  ILE33       0.0290
     41  CG1       -4.6950   27.0310   19.8600 C.3    33  ILE33       0.0022
     42  CG2       -4.0340   26.9870   22.2940 C.3    33  ILE33       0.0023
     43  CD1       -3.8120   25.8730   19.4610 C.3    33  ILE33       0.0001
     44  N         -6.1480   24.8250   23.7820 N.am   34  VAL34      -0.1963
     45  CA        -6.6460   24.7540   25.1550 C.3    34  VAL34       0.1727
     46  C         -5.5020   24.7380   26.1680 C.2    34  VAL34       0.2616
     47  O         -4.3270   24.7030   25.7980 O.2    34  VAL34      -0.2715
     48  CB        -7.5380   23.5110   25.3770 C.3    34  VAL34       0.0290
     49  CG1       -8.9010   23.7110   24.7360 C.3    34  VAL34       0.0023
     50  CG2       -6.8640   22.2630   24.8300 C.3    34  VAL34       0.0023
     51  N         -5.8600   24.7640   27.4490 N.am   35  LYS35      -0.1977
     52  CA        -4.8850   24.8290   28.5360 C.3    35  LYS35       0.1596
     53  C         -3.9010   23.6620   28.5410 C.2    35  LYS35       0.2287
     54  O         -2.6940   23.8610   28.6960 O.2    35  LYS35      -0.2864
     55  CB        -5.6030   24.8870   29.8870 C.3    35  LYS35       0.0298
     56  CG        -5.9620   26.2880   30.3550 C.3    35  LYS35       0.0038
     57  CD        -7.0100   26.9360   29.4690 C.3    35  LYS35       0.0206
     58  CE        -7.2830   28.3760   29.8980 C.3    35  LYS35       0.1093
     59  NZ        -6.0750   29.2410   29.7730 N.3    35  LYS35      -0.1314
     60  N         -2.2320   20.1750   26.8010 N.3    37  PRO37      -0.2116
     61  CA        -1.9020   19.4690   25.5530 C.3    37  PRO37       0.1372
     62  C         -2.6530   18.1510   25.3540 C.2    37  PRO37       0.2244
     63  O         -3.0850   17.8600   24.2360 O.2    37  PRO37      -0.2868
     64  CB        -0.3990   19.2120   25.6900 C.3    37  PRO37       0.0268
     65  CG         0.0890   20.3410   26.5260 C.3    37  PRO37       0.0207
     66  CD        -1.0230   20.6270   27.5120 C.3    37  PRO37       0.0892
     67  N         -6.6310   18.1000   24.2310 N.3    40  ALA40      -0.1245
     68  CA        -7.0570   18.5240   22.8990 C.3    40  ALA40       0.1562
     69  C         -7.6590   17.3620   22.1130 C.2    40  ALA40       0.2260
     70  O         -7.1400   16.9730   21.0660 O.2    40  ALA40      -0.2867
     71  CB        -5.8880   19.1270   22.1400 C.3    40  ALA40       0.0290
     72  N          1.1280   17.3310   11.7070 N.3    65  SER65      -0.1202
     73  CA         1.1420   17.9540   13.0220 C.3    65  SER65       0.2020
     74  C          2.5180   17.9360   13.6780 C.2    65  SER65       0.2619
     75  O          3.4040   17.1890   13.2680 O.2    65  SER65      -0.2717
     76  CB         0.1280   17.2550   13.9280 C.3    65  SER65       0.2103
     77  OG         0.1530   17.7940   15.2340 O.3    65  SER65      -0.2182
     78  N          2.6900   18.7710   14.6970 N.am   66  GLY66      -0.1942
     79  CA         3.9040   18.7570   15.4920 C.3    66  GLY66       0.2014
     80  C          3.7660   17.7520   16.6170 C.2    66  GLY66       0.2638
     81  O          4.7190   17.4730   17.3470 O.2    66  GLY66      -0.2714
     82  N          2.5600   17.2100   16.7530 N.am   67  ARG67      -0.1977
     83  CA         2.2630   16.2040   17.7600 C.3    67  ARG67       0.1597
     84  C          3.0990   14.9370   17.5940 C.2    67  ARG67       0.2287
     85  O          3.6460   14.6650   16.5190 O.2    67  ARG67      -0.2864
     86  CB         0.7780   15.8410   17.7200 C.3    67  ARG67       0.0334
     87  CG        -0.1430   16.9120   18.2680 C.3    67  ARG67       0.0492
     88  CD        -0.1580   16.9100   19.7880 C.3    67  ARG67       0.2205
     89  NE        -1.1240   17.8740   20.3080 N.pl3  67  ARG67      -0.0865
     90  CZ        -1.5970   17.8640   21.5480 C.cat  67  ARG67       0.5346
     91  NH1       -1.1950   16.9320   22.4040 N.pl3  67  ARG67       0.1354
     92  NH2       -2.4760   18.7800   21.9310 N.pl3  67  ARG67       0.1354
     93  N          6.2830   17.3180   13.0980 N.3    88  HIS88      -0.1241
     94  CA         6.7140   18.2340   12.0460 C.3    88  HIS88       0.1621
     95  C          7.3770   17.5320   10.8690 C.2    88  HIS88       0.2264
     96  O          8.3160   18.0560   10.2710 O.2    88  HIS88      -0.2867
     97  CB         7.6600   19.2870   12.6290 C.3    88  HIS88       0.0745
     98  CG         7.0370   20.1100   13.7110 C.ar   88  HIS88       0.0817
     99  ND1        6.2490   21.2090   13.4500 N.ar   88  HIS88      -0.2268
    100  CD2        7.0720   19.9840   15.0600 C.ar   88  HIS88       0.1154
    101  CE1        5.8290   21.7300   14.5910 C.ar   88  HIS88       0.1986
    102  NE2        6.3160   21.0040   15.5820 N.ar   88  HIS88      -0.2212
    103  N          7.6550   18.5250   27.1490 N.3   129  GLU129     -0.1245
    104  CA         7.1340   17.4340   26.3400 C.3   129  GLU129      0.1567
    105  C          8.2410   16.8270   25.4930 C.2   129  GLU129      0.2260
    106  O          8.4450   17.2210   24.3460 O.2   129  GLU129     -0.2867
    107  CB         5.9890   17.9170   25.4480 C.3   129  GLU129      0.0388
    108  CG         4.7110   17.1130   25.5960 C.3   129  GLU129      0.1160
    109  CD         3.6100   17.5840   24.6670 C.2   129  GLU129      0.3649
    110  OE1        3.3670   18.8050   24.5970 O.co2 129  GLU129     -0.2457
    111  OE2        2.9860   16.7300   24.0070 O.co2 129  GLU129     -0.2457
    112  N          9.4780   14.3610   23.0840 N.3   131  LYS131     -0.1245
    113  CA         8.9110   13.4640   22.0900 C.3   131  LYS131      0.1561
    114  C         10.0330   12.6520   21.4590 C.2   131  LYS131      0.2260
    115  O         11.1650   12.6810   21.9360 O.2   131  LYS131     -0.2867
    116  CB         8.1200   14.2520   21.0410 C.3   131  LYS131      0.0271
    117  CG         6.8230   14.8490   21.5840 C.3   131  LYS131      0.0035
    118  CD         6.1620   15.8120   20.6030 C.3   131  LYS131      0.0206
    119  CE         6.8760   17.1510   20.5910 C.3   131  LYS131      0.1093
    120  NZ         6.1490   18.1790   19.8000 N.3   131  LYS131     -0.1314
    121  N          9.2510   19.9160   23.3280 N.3   136  THR136     -0.1218
    122  CA         8.4600   21.1230   23.5100 C.3   136  THR136      0.1862
    123  C          8.4330   21.5580   24.9670 C.2   136  THR136      0.2287
    124  O          8.1870   20.7470   25.8570 O.2   136  THR136     -0.2866
    125  CB         7.0160   20.9250   23.0300 C.3   136  THR136      0.1770
    126  OG1        7.0200   20.5240   21.6550 O.3   136  THR136     -0.2211
    127  CG2        6.2220   22.2140   23.1850 C.3   136  THR136      0.0375
    128  N          6.3670   23.9820   27.4250 N.3   138  HIS138     -0.1241
    129  CA         5.1310   24.7430   27.5530 C.3   138  HIS138      0.1621
    130  C          5.1970   25.7280   28.7130 C.2   138  HIS138      0.2264
    131  O          5.7050   25.3960   29.7820 O.2   138  HIS138     -0.2867
    132  CB         3.9410   23.8060   27.7600 C.3   138  HIS138      0.0745
    133  CG         3.7060   22.8570   26.6300 C.ar  138  HIS138      0.0817
    134  ND1        3.0220   23.2120   25.4890 N.ar  138  HIS138     -0.2268
    135  CD2        4.0470   21.5520   26.4720 C.ar  138  HIS138      0.1154
    136  CE1        2.9600   22.1760   24.6720 C.ar  138  HIS138      0.1986
    137  NE2        3.5740   21.1580   25.2450 N.ar  138  HIS138     -0.2212
    138  N          2.2200   27.9560   28.9460 N.3   140  ARG140     -0.1245
    139  CA         0.8790   28.5310   28.8640 C.3   140  ARG140      0.1563
    140  C          0.2170   28.6460   30.2360 C.2   140  ARG140      0.2260
    141  O         -0.6340   29.5090   30.4520 O.2   140  ARG140     -0.2867
    142  CB        -0.0130   27.7060   27.9300 C.3   140  ARG140      0.0307
    143  CG        -1.4440   28.2310   27.8310 C.3   140  ARG140      0.0489
    144  CD        -2.2960   27.4180   26.8620 C.3   140  ARG140      0.2205
    145  NE        -1.7760   27.4950   25.5020 N.pl3 140  ARG140     -0.0865
    146  CZ        -1.9520   28.5300   24.6870 C.cat 140  ARG140      0.5346
    147  NH1       -2.6440   29.5850   25.0910 N.pl3 140  ARG140      0.1354
    148  NH2       -1.4300   28.5110   23.4690 N.pl3 140  ARG140      0.1354
    149  N          2.7260   28.6010   19.9970 N.3   174  LYS174     -0.1231
    150  CA         1.7140   29.2910   20.7850 C.3   174  LYS174      0.1693
    151  C          1.9040   28.9790   22.2600 C.2   174  LYS174      0.2592
    152  O          1.4870   27.9370   22.7470 O.2   174  LYS174     -0.2718
    153  CB         0.3080   28.9060   20.3210 C.3   174  LYS174      0.0285
    154  CG         0.0550   29.2090   18.8540 C.3   174  LYS174      0.0035
    155  CD        -1.4250   29.2160   18.5090 C.3   174  LYS174      0.0206
    156  CE        -1.6480   29.7770   17.1040 C.3   174  LYS174      0.1093
    157  NZ        -3.0650   29.6330   16.6490 N.3   174  LYS174     -0.1314
    158  N          2.5500   29.9030   22.9590 N.am  175  LYS175     -0.1966
    159  CA         2.8720   29.7290   24.3670 C.3   175  LYS175      0.1728
    160  C          3.7550   28.5050   24.5760 C.2   175  LYS175      0.2616
    161  O          3.5870   27.7710   25.5470 O.2   175  LYS175     -0.2715
    162  CB         1.5980   29.6110   25.2020 C.3   175  LYS175      0.0311
    163  CG         0.7050   30.8490   25.1820 C.3   175  LYS175      0.0038
    164  CD         1.4150   32.0630   25.7680 C.3   175  LYS175      0.0206
    165  CE         0.5830   33.3260   25.6070 C.3   175  LYS175      0.1093
    166  NZ         1.3950   34.5450   25.8730 N.3   175  LYS175     -0.1314
    167  N          4.6770   28.2740   23.6460 N.am  176  ASN176     -0.1972
    168  CA         5.6570   27.2100   23.8130 C.3   176  ASN176      0.1688
    169  C          6.9490   27.5000   23.0650 C.2   176  ASN176      0.2292
    170  O          6.9970   28.3740   22.1970 O.2   176  ASN176     -0.2864
    171  CB         5.0710   25.8550   23.3650 C.3   176  ASN176      0.1181
    172  CG         5.0910   25.6490   21.8420 C.2   176  ASN176      0.2629
    173  OD1        6.1140   25.8230   21.1790 O.2   176  ASN176     -0.2716
    174  ND2        3.9560   25.2380   21.2940 N.am  176  ASN176     -0.0877
    175  N          9.7670   24.9930   20.9040 N.3   178  GLU178     -0.1245
    176  CA        10.0170   23.6450   20.4150 C.3   178  GLU178      0.1567
    177  C         11.2970   23.5820   19.5950 C.2   178  GLU178      0.2260
    178  O         11.6260   24.5130   18.8630 O.2   178  GLU178     -0.2867
    179  CB         8.8380   23.1470   19.5820 C.3   178  GLU178      0.0388
    180  CG         8.8950   21.6600   19.2760 C.3   178  GLU178      0.1160
    181  CD         7.6380   21.1580   18.5960 C.2   178  GLU178      0.3649
    182  OE1        7.4740   19.9210   18.4820 O.co2 178  GLU178     -0.2457
    183  OE2        6.8140   22.0020   18.1780 O.co2 178  GLU178     -0.2457
    184  N          6.8880   20.4000    7.9630 N.3   186  LYS186     -0.1245
    185  CA         5.5940   20.0050    7.4310 C.3   186  LYS186      0.1561
    186  C          5.5220   20.2050    5.9210 C.2   186  LYS186      0.2260
    187  O          4.7370   19.5470    5.2380 O.2   186  LYS186     -0.2867
    188  CB         4.4820   20.7930    8.1160 C.3   186  LYS186      0.0271
    189  CG         4.3690   20.5420    9.6080 C.3   186  LYS186      0.0035
    190  CD         3.4330   21.5570   10.2230 C.3   186  LYS186      0.0206
    191  CE         3.1850   21.2770   11.6900 C.3   186  LYS186      0.1093
    192  NZ         2.4580   22.3960   12.3620 N.3   186  LYS186     -0.1314
    193  N         -2.7210   26.6690   11.4840 N.3   207  ASP207     -0.1225
    194  CA        -2.9180   27.8920   12.2550 C.3   207  ASP207      0.1805
    195  C         -1.6190   28.5510   12.7130 C.2   207  ASP207      0.2597
    196  O         -1.6230   29.7060   13.1330 O.2   207  ASP207     -0.2718
    197  CB        -3.7790   27.5940   13.4770 C.3   207  ASP207      0.1424
    198  CG        -3.0550   26.7350   14.4890 C.2   207  ASP207      0.3668
    199  OD1       -2.4430   25.7220   14.0800 O.co2 207  ASP207     -0.2456
    200  OD2       -3.0760   27.0860   15.6880 O.co2 207  ASP207     -0.2456
    201  N         -0.5120   27.8210   12.6420 N.am  208  ASP208     -0.1974
    202  CA         0.7350   28.2980   13.2360 C.3   208  ASP208      0.1709
    203  C          1.7580   28.6890   12.1780 C.2   208  ASP208      0.2293
    204  O          1.5580   28.4420   10.9890 O.2   208  ASP208     -0.2864
    205  CB         1.3220   27.2250   14.1580 C.3   208  ASP208      0.1436
    206  CG         2.1230   27.8150   15.3010 C.2   208  ASP208      0.3671
    207  OD1        2.6710   28.9280   15.1380 O.co2 208  ASP208     -0.2456
    208  OD2        2.2000   27.1670   16.3680 O.co2 208  ASP208     -0.2456
    209  N          4.6150   27.3430   11.7170 N.3   210  THR210     -0.1203
    210  CA         5.1960   26.1200   11.1750 C.3   210  THR210      0.1994
    211  C          4.3820   25.6180    9.9820 C.2   210  THR210      0.2617
    212  O          4.8810   24.8680    9.1440 O.2   210  THR210     -0.2717
    213  CB         5.2720   25.0100   12.2430 C.3   210  THR210      0.1784
    214  OG1        3.9490   24.6680   12.6710 O.3   210  THR210     -0.2211
    215  CG2        6.0860   25.4750   13.4450 C.3   210  THR210      0.0376
    216  N          3.1260   26.0430    9.9130 N.am  211  ASP211     -0.1973
    217  CA         2.2260   25.6050    8.8540 C.3   211  ASP211      0.1709
    218  C          2.4400   26.3990    7.5820 C.2   211  ASP211      0.2293
    219  O          1.9650   26.0120    6.5130 O.2   211  ASP211     -0.2864
    220  CB         0.7740   25.7160    9.3130 C.3   211  ASP211      0.1436
    221  CG         0.4730   24.8060   10.4780 C.2   211  ASP211      0.3671
    222  OD1       -0.1180   25.2770   11.4730 O.co2 211  ASP211     -0.2456
    223  OD2        0.8390   23.6150   10.3990 O.co2 211  ASP211     -0.2456
@<TRIPOS>BOND
     1   187   186    2
     2   186   185    1
     3   219   218    2
     4   185   184    1
     5   185   188    1
     6   218   217    1
     7   188   189    1
     8   217   220    1
     9   217   216    1
    10   212   211    2
    11   220   221    1
    12     1     2    1
    13   189   190    1
    14   216   211   am
    15   211   210    1
    16   190   191    1
    17    96    95    2
    18   223   221   ar
    19   221   222   ar
    20     2     5    1
    21     2     3    1
    22    95    94    1
    23   204   203    2
    24     5     6    1
    25   210   209    1
    26   210   213    1
    27   193   194    1
    28   191   192    1
    29     4     3    2
    30    72    73    1
    31     3     9   am
    32    94    97    1
    33    94    93    1
    34   203   202    1
    35   213   214    1
    36   213   215    1
    37   194   195    1
    38   194   197    1
    39     6     8   am
    40     6     7    2
    41    97    98    1
    42   201   195   am
    43   201   202    1
    44   195   196    2
    45    73    74    1
    46    73    76    1
    47     9    10    1
    48   202   205    1
    49    75    74    2
    50    99    98   ar
    51    99   101   ar
    52   197   198    1
    53    74    78   am
    54    98   100   ar
    55    76    77    1
    56   199   198   ar
    57   205   206    1
    58    10    13    1
    59    10    11    1
    60   198   200   ar
    61   101   102   ar
    62    78    79    1
    63    13    14    1
    64   100   102   ar
    65   207   206   ar
    66    12    11    2
    67    11    21   am
    68   206   208   ar
    69    79    80    1
    70    15    14   ar
    71    15    17   ar
    72    24    23    2
    73    14    16   ar
    74    21    22    1
    75    17    19   ar
    76    23    22    1
    77    85    84    2
    78    80    82   am
    79    80    81    2
    80   157   156    1
    81    82    83    1
    82   156   155    1
    83    22    25    1
    84    16    18   ar
    85    84    83    1
    86    86    83    1
    87    86    87    1
    88    19    18   ar
    89    19    20    1
    90    25    26    1
    91   183   181   ar
    92    87    88    1
    93   182   181   ar
    94   155   154    1
    95    28    26   ar
    96   181   180    1
    97    26    27   ar
    98   154   153    1
    99   178   177    2
   100    29    35    1
   101    29    30    1
   102   180   179    1
   103    35    34    1
   104    43    41    1
   105   179   176    1
   106   177   176    1
   107    30    31    1
   108    30    33    1
   109    88    89    1
   110   120   119    1
   111    41    40    1
   112   149   150    1
   113    34    33    1
   114    89    90    2
   115   153   150    1
   116    31    36   am
   117    31    32    2
   118   176   175    1
   119    36    37    1
   120   119   118    1
   121   118   117    1
   122   150   151    1
   123   116   117    1
   124   116   113    1
   125    70    69    2
   126   173   172    2
   127   174   172   am
   128    40    37    1
   129    40    42    1
   130   114   115    2
   131   114   113    1
   132    37    38    1
   133    90    92    1
   134    90    91    1
   135   126   125    1
   136   172   171    1
   137   113   112    1
   138    69    68    1
   139    71    68    1
   140   170   169    2
   141   151   152    2
   142   151   158   am
   143    68    67    1
   144    38    39    2
   145    38    44   am
   146   158   159    1
   147   125   127    1
   148   125   122    1
   149   169   168    1
   150   121   122    1
   151   171   168    1
   152   148   146    1
   153   122   123    1
   154   167   168    1
   155   167   160   am
   156    44    45    1
   157   111   109   ar
   158    63    62    2
   159   106   105    2
   160   159   160    1
   161   159   162    1
   162   160   161    2
   163   110   109   ar
   164   109   108    1
   165   136   137   ar
   166   136   134   ar
   167   146   147    1
   168   146   145    2
   169    49    48    1
   170    50    48    1
   171   123   124    2
   172    45    48    1
   173    45    46    1
   174   163   162    1
   175   163   164    1
   176   137   135   ar
   177    62    61    1
   178   107   108    1
   179   107   104    1
   180   134   133   ar
   181   105   104    1
   182   145   144    1
   183    61    64    1
   184    61    60    1
   185   165   164    1
   186   165   166    1
   187    64    65    1
   188    47    46    2
   189    46    51   am
   190   104   103    1
   191   135   133   ar
   192    65    66    1
   193   133   132    1
   194    60    66    1
   195   144   143    1
   196   128   129    1
   197    51    52    1
   198   129   132    1
   199   129   130    1
   200   143   142    1
   201   142   139    1
   202    52    53    1
   203    52    55    1
   204    53    54    2
   205   130   131    2
   206   139   138    1
   207   139   140    1
   208    57    58    1
   209    57    56    1
   210    59    58    1
   211    55    56    1
   212   140   141    2
