@<TRIPOS>MOLECULE
tmp/5dxbB00.pdb
 124 116 0 0 0
SMALL
GASTEIGER

@<TRIPOS>ATOM
      1  N          9.1650   -7.1990   40.1260 N.3    44  VAL44      -0.1245
      2  CA         8.4370   -8.2380   40.8380 C.3    44  VAL44       0.1561
      3  C          6.9370   -8.0950   40.5950 C.2    44  VAL44       0.2260
      4  O          6.2380   -9.0900   40.4020 O.2    44  VAL44      -0.2867
      5  CB         8.7250   -8.1950   42.3420 C.3    44  VAL44       0.0252
      6  CG1        7.9700   -9.3080   43.0580 C.3    44  VAL44       0.0019
      7  CG2       10.2240   -8.3030   42.5920 C.3    44  VAL44       0.0019
      8  N          5.8790   -9.1430   36.9490 N.3    47  ILE47      -0.1245
      9  CA         5.7590  -10.5730   36.7080 C.3    47  ILE47       0.1561
     10  C          4.3660  -11.0670   37.1390 C.2    47  ILE47       0.2260
     11  O          3.7850  -11.9280   36.4780 O.2    47  ILE47      -0.2867
     12  CB         6.9070  -11.3340   37.4120 C.3    47  ILE47       0.0252
     13  CG1        8.2240  -11.0250   36.6870 C.3    47  ILE47       0.0019
     14  CG2        6.6590  -12.8290   37.4080 C.3    47  ILE47       0.0019
     15  CD1        9.4660  -11.1260   37.5440 C.3    47  ILE47       0.0001
     16  N          1.1430  -12.5370   34.4030 N.3    51  LYS51      -0.1245
     17  CA         0.3650  -13.7590   34.5710 C.3    51  LYS51       0.1561
     18  C         -1.1370  -13.5040   34.4390 C.2    51  LYS51       0.2260
     19  O         -1.9270  -14.4410   34.3270 O.2    51  LYS51      -0.2867
     20  CB         0.6800  -14.3950   35.9260 C.3    51  LYS51       0.0271
     21  CG         2.1340  -14.8410   36.0610 C.3    51  LYS51       0.0035
     22  CD         2.5380  -15.0770   37.5120 C.3    51  LYS51       0.0206
     23  CE         1.7920  -16.2520   38.1270 C.3    51  LYS51       0.1093
     24  NZ         2.1840  -16.4750   39.5510 N.3    51  LYS51      -0.1314
     25  N         -1.3560  -15.4710   28.6760 N.3    56  PHE56      -0.1241
     26  CA         0.0530  -15.5600   29.0590 C.3    56  PHE56       0.1605
     27  C          0.3850  -16.7890   29.9130 C.2    56  PHE56       0.2264
     28  O          1.4270  -17.4060   29.7060 O.2    56  PHE56      -0.2867
     29  CB         0.4880  -14.2870   29.7900 C.3    56  PHE56       0.0534
     30  CG         1.9560  -14.2440   30.1240 C.ar   56  PHE56      -0.0203
     31  CD1        2.8790  -13.7610   29.2090 C.ar   56  PHE56      -0.0042
     32  CD2        2.4110  -14.6710   31.3630 C.ar   56  PHE56      -0.0042
     33  CE1        4.2310  -13.7150   29.5190 C.ar   56  PHE56      -0.0003
     34  CE2        3.7590  -14.6250   31.6810 C.ar   56  PHE56      -0.0003
     35  CZ         4.6700  -14.1450   30.7570 C.ar   56  PHE56      -0.0000
     36  N          6.4020  -22.3210   30.5610 N.3    61  LEU61      -0.1231
     37  CA         7.2490  -21.5610   31.4640 C.3    61  LEU61       0.1693
     38  C          8.4530  -20.9600   30.7520 C.2    61  LEU61       0.2592
     39  O          8.8980  -19.8600   31.0820 O.2    61  LEU61      -0.2718
     40  CB         7.7210  -22.4600   32.6010 C.3    61  LEU61       0.0284
     41  CG         7.6590  -21.8410   33.9900 C.3    61  LEU61       0.0019
     42  CD1        6.2100  -21.6090   34.3940 C.3    61  LEU61       0.0001
     43  CD2        8.3630  -22.7410   34.9770 C.3    61  LEU61       0.0001
     44  N          8.9790  -21.7040   29.7840 N.am   62  HIS62      -0.1976
     45  CA        10.1240  -21.2700   28.9980 C.3    62  HIS62       0.1656
     46  C          9.7640  -20.0430   28.1800 C.2    62  HIS62       0.2291
     47  O         10.5250  -19.0770   28.1140 O.2    62  HIS62      -0.2864
     48  CB        10.6020  -22.4020   28.0810 C.3    62  HIS62       0.0771
     49  CG        11.6130  -21.9760   27.0600 C.ar   62  HIS62       0.0820
     50  ND1       11.2600  -21.5040   25.8130 N.ar   62  HIS62      -0.2267
     51  CD2       12.9680  -21.9670   27.0950 C.ar   62  HIS62       0.1154
     52  CE1       12.3530  -21.2160   25.1280 C.ar   62  HIS62       0.1986
     53  NE2       13.4020  -21.4880   25.8830 N.ar   62  HIS62      -0.2212
     54  N          7.1680  -17.9950   28.7260 N.3    64  GLN64      -0.1231
     55  CA         6.8720  -16.9100   29.6550 C.3    64  GLN64       0.1698
     56  C          8.1540  -16.1850   30.0710 C.2    64  GLN64       0.2592
     57  O          8.2170  -14.9540   30.0350 O.2    64  GLN64      -0.2718
     58  CB         6.1360  -17.4390   30.8900 C.3    64  GLN64       0.0381
     59  CG         4.6900  -17.8450   30.6260 C.3    64  GLN64       0.0905
     60  CD         4.0150  -18.4490   31.8430 C.2    64  GLN64       0.2608
     61  OE1        4.3810  -18.1570   32.9820 O.2    64  GLN64      -0.2717
     62  NE2        3.0290  -19.3050   31.6060 N.am   64  GLN64      -0.0878
     63  N          9.1700  -16.9540   30.4560 N.am   65  VAL65      -0.1980
     64  CA        10.4580  -16.3930   30.8520 C.3    65  VAL65       0.1595
     65  C         11.0540  -15.5560   29.7250 C.2    65  VAL65       0.2287
     66  O         11.5340  -14.4440   29.9490 O.2    65  VAL65      -0.2864
     67  CB        11.4580  -17.5010   31.2600 C.3    65  VAL65       0.0276
     68  CG1       12.8960  -17.0100   31.1320 C.3    65  VAL65       0.0022
     69  CG2       11.1680  -17.9870   32.6750 C.3    65  VAL65       0.0022
     70  N          9.1900  -12.1400   29.0460 N.3    68  LEU68      -0.1231
     71  CA         9.5150  -11.1910   30.1060 C.3    68  LEU68       0.1693
     72  C         10.9340  -10.6560   29.9720 C.2    68  LEU68       0.2591
     73  O         11.1660   -9.4580   30.1350 O.2    68  LEU68      -0.2718
     74  CB         9.3230  -11.8360   31.4740 C.3    68  LEU68       0.0284
     75  CG         7.8560  -11.9370   31.8850 C.3    68  LEU68       0.0019
     76  CD1        7.7100  -12.8090   33.1180 C.3    68  LEU68       0.0001
     77  CD2        7.2920  -10.5460   32.1340 C.3    68  LEU68       0.0001
     78  N         11.8800  -11.5380   29.6650 N.am   69  GLU69      -0.1979
     79  CA        13.2630  -11.1130   29.4890 C.3    69  GLU69       0.1602
     80  C         13.3950  -10.1320   28.3320 C.2    69  GLU69       0.2287
     81  O         14.1920   -9.1960   28.3890 O.2    69  GLU69      -0.2864
     82  CB        14.1750  -12.3180   29.2670 C.3    69  GLU69       0.0415
     83  CG        14.5120  -13.0460   30.5490 C.3    69  GLU69       0.1163
     84  CD        15.3220  -14.3020   30.3150 C.2    69  GLU69       0.3649
     85  OE1       15.2890  -14.8350   29.1840 O.co2  69  GLU69      -0.2457
     86  OE2       15.9940  -14.7540   31.2640 O.co2  69  GLU69      -0.2457
     87  N         20.1730   -9.5060   41.8480 N.3   214  ASP214     -0.1225
     88  CA        20.3190  -10.7350   41.0940 C.3   214  ASP214      0.1805
     89  C         19.3250  -10.8080   39.9490 C.2   214  ASP214      0.2597
     90  O         19.6610  -11.2140   38.8390 O.2   214  ASP214     -0.2718
     91  CB        20.1330  -11.9290   42.0150 C.3   214  ASP214      0.1424
     92  CG        21.4210  -12.3630   42.6700 C.2   214  ASP214      0.3668
     93  OD1       22.3650  -11.5460   42.7720 O.co2 214  ASP214     -0.2456
     94  OD2       21.4840  -13.5370   43.0800 O.co2 214  ASP214     -0.2456
     95  N         18.0910  -10.4190   40.2350 N.am  215  LEU215     -0.1979
     96  CA        17.0360  -10.4530   39.2420 C.3   215  LEU215      0.1596
     97  C         17.3550   -9.4940   38.1110 C.2   215  LEU215      0.2287
     98  O         17.3350   -9.8600   36.9360 O.2   215  LEU215     -0.2864
     99  CB        15.7040  -10.0940   39.8840 C.3   215  LEU215      0.0297
    100  CG        14.5170  -10.0970   38.9360 C.3   215  LEU215      0.0022
    101  CD1       14.4600  -11.4210   38.2050 C.3   215  LEU215      0.0001
    102  CD2       13.2640   -9.8710   39.7430 C.3   215  LEU215      0.0001
    103  N         20.1290  -10.8670   35.8730 N.3   218  GLU218     -0.1231
    104  CA        19.8340  -11.9010   34.8900 C.3   218  GLU218      0.1699
    105  C         18.9420  -11.3580   33.7700 C.2   218  GLU218      0.2592
    106  O         19.0920  -11.7780   32.6290 O.2   218  GLU218     -0.2718
    107  CB        19.2010  -13.1270   35.5550 C.3   218  GLU218      0.0402
    108  CG        19.6790  -13.3370   36.9840 C.3   218  GLU218      0.1161
    109  CD        19.6930  -14.7890   37.4280 C.2   218  GLU218      0.3649
    110  OE1       18.6450  -15.4640   37.3380 O.co2 218  GLU218     -0.2457
    111  OE2       20.7610  -15.2520   37.8840 O.co2 218  GLU218     -0.2457
    112  N         18.0320  -10.4300   34.0760 N.am  219  MET219     -0.1979
    113  CA        17.2860   -9.7380   33.0140 C.3   219  MET219      0.1605
    114  C         18.2670   -9.0970   32.0490 C.2   219  MET219      0.2287
    115  O         18.1370   -9.2130   30.8300 O.2   219  MET219     -0.2864
    116  CB        16.3540   -8.6560   33.5700 C.3   219  MET219      0.0413
    117  CG        15.1620   -9.1610   34.3470 C.3   219  MET219      0.0598
    118  SD        14.2200  -10.4090   33.4570 S.3   219  MET219     -0.1393
    119  CE        12.5570   -9.7640   33.6280 C.3   219  MET219      0.0692
    120  N         20.2840  -11.8010   29.8460 N.3   222  ALA222     -0.1245
    121  CA        19.5450  -12.4280   28.7510 C.3   222  ALA222      0.1562
    122  C         19.6300  -11.6250   27.4560 C.2   222  ALA222      0.2260
    123  O         19.4010  -12.1600   26.3730 O.2   222  ALA222     -0.2867
    124  CB        18.0850  -12.6240   29.1450 C.3   222  ALA222      0.0290
@<TRIPOS>BOND
     1    52    50   ar
     2    52    53   ar
     3    50    49   ar
     4    53    51   ar
     5   123   122    2
     6    49    51   ar
     7    49    48    1
     8   122   121    1
     9    48    45    1
    10    47    46    2
    11    46    45    1
    12    80    81    2
    13    80    79    1
    14    25    26    1
    15    54    55    1
    16   121   124    1
    17   121   120    1
    18    45    44    1
    19    70    71    1
    20    26    29    1
    21    26    27    1
    22    85    84   ar
    23    31    33   ar
    24    31    30   ar
    25    82    79    1
    26    82    83    1
    27    79    78    1
    28    33    35   ar
    29    55    56    1
    30    55    58    1
    31    78    72   am
    32    28    27    2
    33    65    66    2
    34    65    64    1
    35    44    38   am
    36    29    30    1
    37    72    71    1
    38    72    73    2
    39    57    56    2
    40    56    63   am
    41    71    74    1
    42    30    32   ar
    43    84    83    1
    44    84    86   ar
    45    63    64    1
    46    36    37    1
    47    59    58    1
    48    59    60    1
    49    38    39    2
    50    38    37    1
    51    35    34   ar
    52   115   114    2
    53    64    67    1
    54    68    67    1
    55    67    69    1
    56    32    34   ar
    57    37    40    1
    58    74    75    1
    59    62    60   am
    60    60    61    2
    61    75    77    1
    62    75    76    1
    63   114   113    1
    64    40    41    1
    65   106   105    2
    66   113   116    1
    67   113   112    1
    68   118   119    1
    69   118   117    1
    70   116   117    1
    71   105   112   am
    72   105   104    1
    73    41    42    1
    74    41    43    1
    75    19    18    2
    76    16    17    1
    77    18    17    1
    78    17    20    1
    79   104   107    1
    80   104   103    1
    81   107   108    1
    82    20    21    1
    83    21    22    1
    84    11    10    2
    85    13    12    1
    86    13    15    1
    87     9     8    1
    88     9    10    1
    89     9    12    1
    90    98    97    2
    91   108   109    1
    92   110   109   ar
    93    14    12    1
    94   109   111   ar
    95    22    23    1
    96    97    96    1
    97    23    24    1
    98   101   100    1
    99    90    89    2
   100   100   102    1
   101   100    99    1
   102    96    99    1
   103    96    95    1
   104    89    95   am
   105    89    88    1
   106     1     2    1
   107     4     3    2
   108     3     2    1
   109     2     5    1
   110    88    87    1
   111    88    91    1
   112    91    92    1
   113     5     7    1
   114     5     6    1
   115    92    93   ar
   116    92    94   ar
