@<TRIPOS>MOLECULE
tmp/5dxgA00.pdb
 148 140 0 0 0
SMALL
GASTEIGER

@<TRIPOS>ATOM
      1  N         23.5390    6.4420   -0.1480 N.3    48  LEU48      -0.1231
      2  CA        23.2620    7.7290    0.4800 C.3    48  LEU48       0.1693
      3  C         23.1010    8.8340   -0.5530 C.2    48  LEU48       0.2591
      4  O         22.2560    9.7080   -0.4040 O.2    48  LEU48      -0.2718
      5  CB        24.3700    8.0890    1.4720 C.3    48  LEU48       0.0284
      6  CG        24.2270    7.3380    2.7940 C.3    48  LEU48       0.0019
      7  CD1       25.4960    7.4250    3.6280 C.3    48  LEU48       0.0001
      8  CD2       23.0100    7.8330    3.5680 C.3    48  LEU48       0.0001
      9  N         23.8900    8.7880   -1.6200 N.am   49  VAL49      -0.1980
     10  CA        23.7750    9.8130   -2.6420 C.3    49  VAL49       0.1595
     11  C         22.3850    9.7920   -3.2970 C.2    49  VAL49       0.2287
     12  O         21.7640   10.8390   -3.4850 O.2    49  VAL49      -0.2864
     13  CB        24.8690    9.6520   -3.7060 C.3    49  VAL49       0.0276
     14  CG1       24.6660   10.6500   -4.8410 C.3    49  VAL49       0.0022
     15  CG2       26.2480    9.7980   -3.0540 C.3    49  VAL49       0.0022
     16  N         19.6130   11.0880   -0.8350 N.3    52  ILE52      -0.1231
     17  CA        19.4790   12.5300   -0.7320 C.3    52  ILE52       0.1692
     18  C         18.5840   13.0300   -1.8510 C.2    52  ILE52       0.2592
     19  O         17.7160   13.8750   -1.6350 O.2    52  ILE52      -0.2718
     20  CB        20.8550   13.2140   -0.7760 C.3    52  ILE52       0.0266
     21  CG1       21.5380   13.1510    0.5960 C.3    52  ILE52       0.0019
     22  CG2       20.7080   14.6660   -1.2050 C.3    52  ILE52       0.0020
     23  CD1       21.2810   11.8900    1.4090 C.3    52  ILE52       0.0001
     24  N         18.7590   12.4940   -3.0490 N.am   53  ASN53      -0.1974
     25  CA        17.9250   12.9230   -4.1600 C.3    53  ASN53       0.1688
     26  C         16.4910   12.4320   -4.0330 C.2    53  ASN53       0.2292
     27  O         15.5460   13.1380   -4.4080 O.2    53  ASN53      -0.2864
     28  CB        18.5590   12.4610   -5.4640 C.3    53  ASN53       0.1181
     29  CG        19.8080   13.2370   -5.7690 C.2    53  ASN53       0.2629
     30  OD1       19.7380   14.3740   -6.2370 O.2    53  ASN53      -0.2716
     31  ND2       20.9630   12.6600   -5.4560 N.am   53  ASN53      -0.0877
     32  N         14.5150   14.6420   -1.5010 N.3    56  LYS56      -0.1245
     33  CA        14.0750   15.8990   -2.0700 C.3    56  LYS56       0.1561
     34  C         12.8010   15.7430   -2.9010 C.2    56  LYS56       0.2260
     35  O         12.1610   16.7360   -3.2490 O.2    56  LYS56      -0.2867
     36  CB        15.2090   16.5020   -2.9100 C.3    56  LYS56       0.0271
     37  CG        16.3900   16.9440   -2.0510 C.3    56  LYS56       0.0035
     38  CD        17.6090   17.3190   -2.8610 C.3    56  LYS56       0.0206
     39  CE        17.3520   18.5240   -3.7400 C.3    56  LYS56       0.1093
     40  NZ        18.6040   18.9340   -4.4320 N.3    56  LYS56      -0.1314
     41  N          9.2670   17.8170    1.7020 N.3    61  PHE61      -0.1241
     42  CA        10.6250   17.8220    2.2400 C.3    61  PHE61       0.1605
     43  C         11.4330   19.0640    1.8160 C.2    61  PHE61       0.2264
     44  O         12.0680   19.6840    2.6660 O.2    61  PHE61      -0.2867
     45  CB        11.3690   16.5410    1.8380 C.3    61  PHE61       0.0534
     46  CG        12.7040   16.3640    2.5310 C.ar   61  PHE61      -0.0203
     47  CD1       12.7720   15.8430    3.8150 C.ar   61  PHE61      -0.0042
     48  CD2       13.8940   16.6960    1.8870 C.ar   61  PHE61      -0.0042
     49  CE1       13.9820   15.6730    4.4580 C.ar   61  PHE61      -0.0003
     50  CE2       15.1220   16.5190    2.5240 C.ar   61  PHE61      -0.0003
     51  CZ        15.1630   16.0050    3.8140 C.ar   61  PHE61      -0.0000
     52  N         17.0530   24.0730    5.0330 N.3    66  LEU66      -0.1231
     53  CA        18.1790   23.1680    4.8090 C.3    66  LEU66       0.1693
     54  C         18.6200   22.4970    6.1090 C.2    66  LEU66       0.2592
     55  O         18.9270   21.3070    6.1230 O.2    66  LEU66      -0.2718
     56  CB        19.3590   23.9210    4.1700 C.3    66  LEU66       0.0284
     57  CG        19.1920   24.2910    2.6910 C.3    66  LEU66       0.0019
     58  CD1       20.3750   25.1170    2.1840 C.3    66  LEU66       0.0001
     59  CD2       18.9790   23.0500    1.8260 C.3    66  LEU66       0.0001
     60  N         18.6280   23.2470    7.2110 N.am   67  HIS67      -0.1976
     61  CA        18.9840   22.6780    8.5100 C.3    67  HIS67       0.1656
     62  C         18.0510   21.5440    8.9260 C.2    67  HIS67       0.2291
     63  O         18.4980   20.5330    9.4710 O.2    67  HIS67      -0.2864
     64  CB        18.9720   23.7580    9.5930 C.3    67  HIS67       0.0771
     65  CG        19.9980   24.8250    9.3910 C.ar   67  HIS67       0.0820
     66  ND1       21.2490   24.5710    8.8630 N.ar   67  HIS67      -0.2267
     67  CD2       19.9550   26.1580    9.6340 C.ar   67  HIS67       0.1154
     68  CE1       21.9310   25.6990    8.7970 C.ar   67  HIS67       0.1986
     69  NE2       21.1690   26.6770    9.2580 N.ar   67  HIS67      -0.2212
     70  N         16.1450   19.7170    6.8360 N.3    69  GLN69      -0.1231
     71  CA        16.4270   18.6250    5.9040 C.3    69  GLN69       0.1698
     72  C         17.6430   17.7970    6.3530 C.2    69  GLN69       0.2592
     73  O         17.5960   16.5690    6.3500 O.2    69  GLN69      -0.2718
     74  CB        16.6650   19.1670    4.4930 C.3    69  GLN69       0.0381
     75  CG        15.4760   19.8650    3.8470 C.3    69  GLN69       0.0905
     76  CD        15.7990   20.3510    2.4440 C.2    69  GLN69       0.2608
     77  OE1       16.5510   19.7070    1.7140 O.2    69  GLN69      -0.2717
     78  NE2       15.2410   21.4990    2.0680 N.am   69  GLN69      -0.0878
     79  N         18.7240   18.4840    6.7280 N.am   70  VAL70      -0.1980
     80  CA        19.9340   17.8200    7.2300 C.3    70  VAL70       0.1595
     81  C         19.6140   16.9810    8.4690 C.2    70  VAL70       0.2287
     82  O         19.9450   15.7940    8.5360 O.2    70  VAL70      -0.2864
     83  CB        21.0440   18.8710    7.5620 C.3    70  VAL70       0.0276
     84  CG1       22.1530   18.2770    8.4290 C.3    70  VAL70       0.0022
     85  CG2       21.6230   19.4640    6.2800 C.3    70  VAL70       0.0022
     86  N         17.4960   13.7680    7.7220 N.3    73  LEU73      -0.1231
     87  CA        18.3010   12.7420    7.0660 C.3    73  LEU73       0.1693
     88  C         19.3660   12.1640    8.0070 C.2    73  LEU73       0.2591
     89  O         19.5740   10.9560    8.0240 O.2    73  LEU73      -0.2718
     90  CB        18.9590   13.3050    5.7960 C.3    73  LEU73       0.0284
     91  CG        18.0850   13.3150    4.5310 C.3    73  LEU73       0.0019
     92  CD1       18.7010   14.1750    3.4300 C.3    73  LEU73       0.0001
     93  CD2       17.8460   11.8990    4.0390 C.3    73  LEU73       0.0001
     94  N         20.0280   13.0170    8.7900 N.am   74  GLU74      -0.1979
     95  CA        20.9950   12.5120    9.7760 C.3    74  GLU74       0.1602
     96  C         20.3430   11.5400   10.7590 C.2    74  GLU74       0.2287
     97  O         20.9690   10.4970   11.1250 O.2    74  GLU74      -0.2864
     98  CB        21.6240   13.6630   10.5610 C.3    74  GLU74       0.0415
     99  CG        22.5050   14.5530    9.7220 C.3    74  GLU74       0.1163
    100  CD        23.2140   15.6100   10.5420 C.2    74  GLU74       0.3649
    101  OE1       24.3430   15.9830   10.1650 O.co2  74  GLU74      -0.2457
    102  OE2       22.6440   16.0670   11.5480 O.co2  74  GLU74      -0.2457
    103  N         33.9620   10.4080    4.2980 N.3   218  ASP218     -0.1225
    104  CA        33.7000   11.6170    5.0630 C.3   218  ASP218      0.1805
    105  C         32.1970   11.7350    5.3410 C.2   218  ASP218      0.2597
    106  O         31.7970   12.0900    6.4470 O.2   218  ASP218     -0.2718
    107  CB        34.2280   12.8570    4.3330 C.3   218  ASP218      0.1424
    108  CG        35.7480   12.8880    4.2650 C.2   218  ASP218      0.3668
    109  OD1       36.4010   12.3780    5.2000 O.co2 218  ASP218     -0.2456
    110  OD2       36.2940   13.4220    3.2750 O.co2 218  ASP218     -0.2456
    111  N         31.3690   11.3950    4.3550 N.am  219  LEU219     -0.1979
    112  CA        29.9200   11.4620    4.5390 C.3   219  LEU219      0.1596
    113  C         29.4590   10.5410    5.6640 C.2   219  LEU219      0.2287
    114  O         28.7270   10.9640    6.5610 O.2   219  LEU219     -0.2864
    115  CB        29.1870   11.1030    3.2390 C.3   219  LEU219      0.0297
    116  CG        27.6570   11.1610    3.3160 C.3   219  LEU219      0.0022
    117  CD1       27.1770   12.5450    3.7510 C.3   219  LEU219      0.0001
    118  CD2       27.0190   10.7420    1.9970 C.3   219  LEU219      0.0001
    119  N         30.2860   11.8250    9.0680 N.3   222  GLU222     -0.1231
    120  CA        29.4510   12.9130    9.5670 C.3   222  GLU222      0.1699
    121  C         28.0570   12.4100    9.9030 C.2   222  GLU222      0.2592
    122  O         27.4680   12.8680   10.8820 O.2   222  GLU222     -0.2718
    123  CB        29.4040   14.0710    8.5610 C.3   222  GLU222      0.0402
    124  CG        30.7380   14.8130    8.4940 C.3   222  GLU222      0.1161
    125  CD        30.6940   16.1670    7.8000 C.2   222  GLU222      0.3649
    126  OE1       29.6110   16.6050    7.3640 O.co2 222  GLU222     -0.2457
    127  OE2       31.7670   16.7990    7.6970 O.co2 222  GLU222     -0.2457
    128  N         27.5330   11.4570    9.1280 N.am  223  MET223     -0.1979
    129  CA        26.2140   10.8870    9.4030 C.3   223  MET223      0.1605
    130  C         26.2380   10.1470   10.7350 C.2   223  MET223      0.2287
    131  O         25.2920   10.2050   11.5190 O.2   223  MET223     -0.2864
    132  CB        25.7670    9.9310    8.2830 C.3   223  MET223      0.0413
    133  CG        25.6370   10.5600    6.8910 C.3   223  MET223      0.0598
    134  SD        24.4240   11.8960    6.7690 S.3   223  MET223     -0.1393
    135  CE        22.8780   11.0170    6.4980 C.3   223  MET223      0.0692
    136  N         28.4640   10.7360   13.1730 N.3   225  ASP225     -0.1225
    137  CA        28.7620   11.7340   14.2030 C.3   225  ASP225      0.1805
    138  C         27.5210   12.4880   14.6940 C.2   225  ASP225      0.2597
    139  O         27.4860   12.9540   15.8360 O.2   225  ASP225     -0.2718
    140  CB        29.8000   12.7300   13.6760 C.3   225  ASP225      0.1424
    141  CG        30.1140   13.8310   14.6680 C.2   225  ASP225      0.3668
    142  OD1       30.8190   13.5530   15.6600 O.co2 225  ASP225     -0.2456
    143  OD2       29.6690   14.9780   14.4510 O.co2 225  ASP225     -0.2456
    144  N         26.5090   12.6010   13.8260 N.am  226  ALA226     -0.1979
    145  CA        25.2370   13.2320   14.1570 C.3   226  ALA226      0.1597
    146  C         24.5380   12.5310   15.3140 C.2   226  ALA226      0.2287
    147  O         23.6860   13.1220   15.9930 O.2   226  ALA226     -0.2864
    148  CB        24.3330   13.2290   12.9320 C.3   226  ALA226      0.0319
@<TRIPOS>BOND
     1    30    29    2
     2    29    28    1
     3    29    31   am
     4    28    25    1
     5    14    13    1
     6    40    39    1
     7    27    26    2
     8    25    26    1
     9    25    24    1
    10    39    38    1
    11    13    15    1
    12    13    10    1
    13    12    11    2
    14    11    10    1
    15    35    34    2
    16    24    18   am
    17    36    33    1
    18    36    37    1
    19    34    33    1
    20    38    37    1
    21    10     9    1
    22    33    32    1
    23    18    19    2
    24    18    17    1
    25     9     3   am
    26    22    20    1
    27    16    17    1
    28    20    17    1
    29    20    21    1
    30     3     4    2
    31     3     2    1
    32     1     2    1
    33     2     5    1
    34    21    23    1
    35     5     6    1
    36    41    42    1
    37    77    76    2
    38    43    42    1
    39    43    44    2
    40    59    57    1
    41    45    42    1
    42    45    46    1
    43    48    50   ar
    44    48    46   ar
    45   118   116    1
    46    78    76   am
    47    58    57    1
    48    76    75    1
    49    50    51   ar
    50    46    47   ar
    51    57    56    1
    52     6     8    1
    53     6     7    1
    54   115   116    1
    55   115   112    1
    56   110   108   ar
    57   116   117    1
    58    92    91    1
    59    51    49   ar
    60    47    49   ar
    61    75    74    1
    62    93    91    1
    63    56    53    1
    64   108   107    1
    65   108   109   ar
    66   103   104    1
    67   107   104    1
    68   111   112    1
    69   111   105   am
    70    74    71    1
    71    91    90    1
    72   112   113    1
    73    53    52    1
    74    53    54    1
    75   104   105    1
    76   105   106    2
    77   113   114    2
    78    90    87    1
    79    71    72    1
    80    71    70    1
    81    54    55    2
    82    54    60   am
    83    85    83    1
    84    73    72    2
    85    72    79   am
    86   135   134    1
    87    79    80    1
    88   134   133    1
    89   133   132    1
    90    87    86    1
    91    87    88    1
    92    60    61    1
    93    80    83    1
    94    80    81    1
    95   126   125   ar
    96    83    84    1
    97   127   125   ar
    98   125   124    1
    99    88    89    2
   100    88    94   am
   101   132   129    1
   102    81    82    2
   103   124   123    1
   104    61    62    1
   105    61    64    1
   106   123   120    1
   107    94    95    1
   108    68    66   ar
   109    68    69   ar
   110    66    65   ar
   111    62    63    2
   112   119   120    1
   113   128   129    1
   114   128   121   am
   115    69    67   ar
   116    65    64    1
   117    65    67   ar
   118   129   130    1
   119   120   121    1
   120    99   100    1
   121    99    98    1
   122    95    98    1
   123    95    96    1
   124   121   122    2
   125   101   100   ar
   126   100   102   ar
   127   130   131    2
   128    96    97    2
   129   148   145    1
   130   136   137    1
   131   140   137    1
   132   140   141    1
   133   144   145    1
   134   144   138   am
   135   145   146    1
   136   137   138    1
   137   143   141   ar
   138   141   142   ar
   139   138   139    2
   140   146   147    2
