@<TRIPOS>MOLECULE
tmp/5dxgB00.pdb
 134 127 0 0 0
SMALL
GASTEIGER

@<TRIPOS>ATOM
      1  N          9.1790   -3.2510   40.4220 N.3    42  VAL42      -0.1245
      2  CA         8.4180   -4.2640   41.1430 C.3    42  VAL42       0.1561
      3  C          6.9230   -4.1280   40.8240 C.2    42  VAL42       0.2260
      4  O          6.2540   -5.1200   40.5450 O.2    42  VAL42      -0.2867
      5  CB         8.6420   -4.1620   42.6610 C.3    42  VAL42       0.0252
      6  CG1        7.9590   -5.3240   43.3770 C.3    42  VAL42       0.0019
      7  CG2       10.1340   -4.1150   42.9760 C.3    42  VAL42       0.0019
      8  N          5.8160   -5.2960   37.1280 N.3    45  ILE45      -0.1231
      9  CA         5.5380   -6.7130   36.9480 C.3    45  ILE45       0.1692
     10  C          4.0960   -7.0570   37.3060 C.2    45  ILE45       0.2592
     11  O          3.4440   -7.8190   36.5930 O.2    45  ILE45      -0.2718
     12  CB         6.4830   -7.5600   37.7900 C.3    45  ILE45       0.0266
     13  CG1        7.9070   -7.4730   37.2420 C.3    45  ILE45       0.0019
     14  CG2        6.0150   -9.0050   37.8190 C.3    45  ILE45       0.0020
     15  CD1        8.9290   -8.0620   38.1770 C.3    45  ILE45       0.0001
     16  N          3.5870   -6.5050   38.4070 N.am   46  ASN46      -0.1974
     17  CA         2.2020   -6.7660   38.7920 C.3    46  ASN46       0.1688
     18  C          1.2240   -6.2020   37.7710 C.2    46  ASN46       0.2292
     19  O          0.2150   -6.8330   37.4410 O.2    46  ASN46      -0.2864
     20  CB         1.8870   -6.1720   40.1690 C.3    46  ASN46       0.1181
     21  CG         2.6700   -6.8320   41.2890 C.2    46  ASN46       0.2629
     22  OD1        3.2160   -7.9260   41.1380 O.2    46  ASN46      -0.2716
     23  ND2        2.7160   -6.1660   42.4360 N.am   46  ASN46      -0.0877
     24  N          1.0810   -8.4510   34.5930 N.3    49  LYS49      -0.1245
     25  CA         0.2440   -9.6320   34.7850 C.3    49  LYS49       0.1561
     26  C         -1.2550   -9.3260   34.6290 C.2    49  LYS49       0.2260
     27  O         -2.0610  -10.2370   34.4190 O.2    49  LYS49      -0.2867
     28  CB         0.5260  -10.2530   36.1600 C.3    49  LYS49       0.0271
     29  CG         1.9650  -10.7460   36.3170 C.3    49  LYS49       0.0035
     30  CD         2.3340  -11.0630   37.7650 C.3    49  LYS49       0.0206
     31  CE         1.5680  -12.2640   38.3010 C.3    49  LYS49       0.1093
     32  NZ         2.1740  -12.8070   39.5500 N.3    49  LYS49      -0.1314
     33  N         -1.7270  -11.1540   28.7320 N.3    54  PHE54      -0.1227
     34  CA        -0.2920  -11.2810   29.0080 C.3    54  PHE54       0.1736
     35  C          0.0750  -12.5780   29.7220 C.2    54  PHE54       0.2595
     36  O          1.0500  -13.2340   29.3540 O.2    54  PHE54      -0.2718
     37  CB         0.1900  -10.0850   29.8410 C.3    54  PHE54       0.0547
     38  CG         1.6820  -10.0580   30.0730 C.ar   54  PHE54      -0.0202
     39  CD1        2.5540   -9.6260   29.0770 C.ar   54  PHE54      -0.0042
     40  CD2        2.2170  -10.4400   31.2950 C.ar   54  PHE54      -0.0042
     41  CE1        3.9220   -9.5910   29.2920 C.ar   54  PHE54      -0.0003
     42  CE2        3.5830  -10.4030   31.5190 C.ar   54  PHE54      -0.0003
     43  CZ         4.4360   -9.9800   30.5160 C.ar   54  PHE54      -0.0000
     44  N         -0.6900  -12.9550   30.7460 N.am   55  VAL55      -0.1980
     45  CA        -0.3400  -14.1480   31.5050 C.3    55  VAL55       0.1595
     46  C         -0.7010  -15.4110   30.7350 C.2    55  VAL55       0.2287
     47  O         -0.4150  -16.5160   31.1850 O.2    55  VAL55      -0.2864
     48  CB        -1.0150  -14.1900   32.9050 C.3    55  VAL55       0.0276
     49  CG1       -0.2230  -13.3510   33.9000 C.3    55  VAL55       0.0022
     50  CG2       -2.4750  -13.7550   32.8400 C.3    55  VAL55       0.0022
     51  N          5.9040  -18.2560   30.3090 N.3    59  LEU59      -0.1231
     52  CA         6.7590  -17.5400   31.2430 C.3    59  LEU59       0.1693
     53  C          7.9490  -16.9070   30.5240 C.2    59  LEU59       0.2592
     54  O          8.3040  -15.7520   30.7750 O.2    59  LEU59      -0.2718
     55  CB         7.2390  -18.5020   32.3260 C.3    59  LEU59       0.0284
     56  CG         7.9660  -17.9450   33.5420 C.3    59  LEU59       0.0019
     57  CD1        7.0950  -16.9120   34.2260 C.3    59  LEU59       0.0001
     58  CD2        8.2950  -19.0860   34.4850 C.3    59  LEU59       0.0001
     59  N          8.5570  -17.6760   29.6240 N.am   60  HIS60      -0.1976
     60  CA         9.7170  -17.2220   28.8660 C.3    60  HIS60       0.1656
     61  C          9.3800  -15.9790   28.0630 C.2    60  HIS60       0.2291
     62  O         10.1620  -15.0280   28.0070 O.2    60  HIS60      -0.2864
     63  CB        10.2240  -18.3210   27.9280 C.3    60  HIS60       0.0771
     64  CG        11.3220  -17.8640   27.0180 C.ar   60  HIS60       0.0820
     65  ND1       12.6540  -17.9410   27.3660 N.ar   60  HIS60      -0.2267
     66  CD2       11.2840  -17.3010   25.7870 C.ar   60  HIS60       0.1154
     67  CE1       13.3890  -17.4520   26.3840 C.ar   60  HIS60       0.1986
     68  NE2       12.5840  -17.0590   25.4130 N.ar   60  HIS60      -0.2212
     69  N          6.9140  -13.8910   28.7290 N.3    62  GLN62      -0.1231
     70  CA         6.6050  -12.8200   29.6700 C.3    62  GLN62       0.1698
     71  C          7.8820  -12.1200   30.1230 C.2    62  GLN62       0.2592
     72  O          7.9500  -10.8870   30.1590 O.2    62  GLN62      -0.2718
     73  CB         5.8380  -13.3720   30.8790 C.3    62  GLN62       0.0381
     74  CG         4.4080  -13.7890   30.5670 C.3    62  GLN62       0.0905
     75  CD         3.6630  -14.2900   31.7880 C.2    62  GLN62       0.2608
     76  OE1        3.6950  -13.6650   32.8500 O.2    62  GLN62      -0.2717
     77  NE2        2.9960  -15.4290   31.6460 N.am   62  GLN62      -0.0878
     78  N          8.8920  -12.9140   30.4620 N.am   63  VAL63      -0.1980
     79  CA        10.1890  -12.3890   30.8540 C.3    63  VAL63       0.1595
     80  C         10.7890  -11.5720   29.7220 C.2    63  VAL63       0.2287
     81  O         11.2440  -10.4440   29.9280 O.2    63  VAL63      -0.2864
     82  CB        11.1480  -13.5260   31.2460 C.3    63  VAL63       0.0276
     83  CG1       12.5950  -13.0430   31.2750 C.3    63  VAL63       0.0022
     84  CG2       10.7360  -14.1110   32.5850 C.3    63  VAL63       0.0022
     85  N          8.9870   -8.1050   29.0910 N.3    66  LEU66      -0.1231
     86  CA         9.2910   -7.1580   30.1540 C.3    66  LEU66       0.1693
     87  C         10.7450   -6.7070   30.1010 C.2    66  LEU66       0.2591
     88  O         11.0110   -5.5180   30.2190 O.2    66  LEU66      -0.2718
     89  CB         8.9860   -7.7540   31.5310 C.3    66  LEU66       0.0284
     90  CG         7.5580   -7.5670   32.0470 C.3    66  LEU66       0.0019
     91  CD1        7.3300   -8.4240   33.2820 C.3    66  LEU66       0.0001
     92  CD2        7.2560   -6.0970   32.3240 C.3    66  LEU66       0.0001
     93  N         11.6850   -7.6390   29.9230 N.am   67  GLU67      -0.1979
     94  CA        13.1010   -7.2420   29.7800 C.3    67  GLU67       0.1602
     95  C         13.3370   -6.2660   28.6080 C.2    67  GLU67       0.2287
     96  O         14.1750   -5.3380   28.7200 O.2    67  GLU67      -0.2864
     97  CB        13.9960   -8.4810   29.6070 C.3    67  GLU67       0.0415
     98  CG        14.0900   -9.3390   30.8670 C.3    67  GLU67       0.1163
     99  CD        15.0630  -10.5030   30.7520 C.2    67  GLU67       0.3649
    100  OE1       15.2950  -10.9970   29.6300 O.co2  67  GLU67      -0.2457
    101  OE2       15.5930  -10.9330   31.8030 O.co2  67  GLU67      -0.2457
    102  N         20.0680   -5.3340   42.2760 N.3   209  ASP209     -0.1225
    103  CA        20.2120   -6.5660   41.5160 C.3   209  ASP209      0.1805
    104  C         19.1350   -6.7180   40.4370 C.2   209  ASP209      0.2597
    105  O         19.4210   -7.1600   39.3220 O.2   209  ASP209     -0.2718
    106  CB        20.1940   -7.7600   42.4630 C.3   209  ASP209      0.1424
    107  CG        21.5620   -8.0520   43.0470 C.2   209  ASP209      0.3668
    108  OD1       22.3810   -7.1140   43.1650 O.co2 209  ASP209     -0.2456
    109  OD2       21.8180   -9.2260   43.3800 O.co2 209  ASP209     -0.2456
    110  N         17.9020   -6.3420   40.7580 N.am  210  LEU210     -0.1979
    111  CA        16.8420   -6.3820   39.7650 C.3   210  LEU210      0.1596
    112  C         17.1840   -5.4730   38.5930 C.2   210  LEU210      0.2287
    113  O         17.0240   -5.8560   37.4370 O.2   210  LEU210     -0.2864
    114  CB        15.5020   -5.9720   40.3730 C.3   210  LEU210      0.0297
    115  CG        14.3340   -5.9320   39.3880 C.3   210  LEU210      0.0022
    116  CD1       14.1270   -7.2990   38.7420 C.3   210  LEU210      0.0001
    117  CD2       13.0750   -5.4500   40.0860 C.3   210  LEU210      0.0001
    118  N         19.8560   -6.9250   36.3260 N.3   213  GLU213     -0.1231
    119  CA        19.3550   -7.9940   35.4700 C.3   213  GLU213      0.1699
    120  C         18.5370   -7.4300   34.3050 C.2   213  GLU213      0.2592
    121  O         18.6770   -7.8920   33.1730 O.2   213  GLU213     -0.2718
    122  CB        18.5330   -9.0000   36.2890 C.3   213  GLU213      0.0402
    123  CG        19.3900   -9.7650   37.3050 C.3   213  GLU213      0.1161
    124  CD        18.5970  -10.6980   38.2090 C.2   213  GLU213      0.3649
    125  OE1       17.3810  -10.8630   37.9900 O.co2 213  GLU213     -0.2457
    126  OE2       19.2010  -11.2670   39.1460 O.co2 213  GLU213     -0.2457
    127  N         17.7080   -6.4200   34.5730 N.am  214  MET214     -0.1979
    128  CA        16.9170   -5.7990   33.5140 C.3   214  MET214      0.1605
    129  C         17.8270   -5.1080   32.5060 C.2   214  MET214      0.2287
    130  O         17.5300   -5.0760   31.3180 O.2   214  MET214     -0.2864
    131  CB        15.9140   -4.7880   34.0790 C.3   214  MET214      0.0413
    132  CG        14.9340   -5.3830   35.0590 C.3   214  MET214      0.0598
    133  SD        13.9580   -6.6860   34.2910 S.3   214  MET214     -0.1393
    134  CE        12.7770   -5.7130   33.3530 C.3   214  MET214      0.0692
@<TRIPOS>BOND
     1    68    66   ar
     2    68    67   ar
     3    66    64   ar
     4    67    65   ar
     5    64    65   ar
     6    64    63    1
     7    63    60    1
     8    62    61    2
     9    61    60    1
    10    95    96    2
    11    95    94    1
    12    69    70    1
    13    33    34    1
    14    60    59    1
    15    34    35    1
    16    34    37    1
    17    39    41   ar
    18    39    38   ar
    19    85    86    1
    20    41    43   ar
    21    36    35    2
    22    97    94    1
    23    97    98    1
    24    59    53   am
    25   100    99   ar
    26    70    71    1
    27    70    73    1
    28    35    44   am
    29    80    81    2
    30    80    79    1
    31    94    93    1
    32    37    38    1
    33    93    87   am
    34    38    40   ar
    35    87    86    1
    36    87    88    2
    37    71    72    2
    38    71    78   am
    39    86    89    1
    40    51    52    1
    41    78    79    1
    42    43    42   ar
    43    53    54    2
    44    53    52    1
    45    74    73    1
    46    74    75    1
    47    46    47    2
    48    46    45    1
    49    44    45    1
    50    99    98    1
    51    99   101   ar
    52    79    82    1
    53    52    55    1
    54    82    83    1
    55    82    84    1
    56    40    42   ar
    57   130   129    2
    58    45    48    1
    59    89    90    1
    60    77    75   am
    61    75    76    2
    62    90    92    1
    63    90    91    1
    64    55    56    1
    65   129   128    1
    66    50    48    1
    67    48    49    1
    68   121   120    2
    69   134   133    1
    70   128   131    1
    71   128   127    1
    72    56    57    1
    73    56    58    1
    74   131   132    1
    75   133   132    1
    76   120   127   am
    77   120   119    1
    78    27    26    2
    79    24    25    1
    80    26    25    1
    81    25    28    1
    82   119   122    1
    83   119   118    1
    84    28    29    1
    85   122   123    1
    86    29    30    1
    87    11    10    2
    88     9     8    1
    89     9    10    1
    90     9    12    1
    91    13    12    1
    92    13    15    1
    93   123   124    1
    94    10    16   am
    95   113   112    2
    96    19    18    2
    97    30    31    1
    98    18    17    1
    99    12    14    1
   100   125   124   ar
   101   124   126   ar
   102    31    32    1
   103    16    17    1
   104   112   111    1
   105   116   115    1
   106    17    20    1
   107   105   104    2
   108   115   117    1
   109   115   114    1
   110   111   114    1
   111   111   110    1
   112    20    21    1
   113     1     2    1
   114   104   110   am
   115   104   103    1
   116     4     3    2
   117     3     2    1
   118    22    21    2
   119     2     5    1
   120    21    23   am
   121   103   102    1
   122   103   106    1
   123   106   107    1
   124     5     7    1
   125     5     6    1
   126   107   108   ar
   127   107   109   ar
