@<TRIPOS>MOLECULE
tmp/5dxhC00.pdb
 195 184 0 0 0
SMALL
GASTEIGER

@<TRIPOS>ATOM
      1  N         24.5950   20.0130  -91.1650 N.3   718  ARG718     -0.1245
      2  CA        24.2020   21.4000  -91.4120 C.3   718  ARG718      0.1563
      3  C         24.7450   22.3940  -90.3620 C.2   718  ARG718      0.2260
      4  O         25.1950   21.9890  -89.2990 O.2   718  ARG718     -0.2867
      5  CB        22.6470   21.5050  -91.4880 C.3   718  ARG718      0.0307
      6  CG        21.8980   20.6720  -90.4400 C.3   718  ARG718      0.0489
      7  CD        20.5030   21.1890  -90.1260 C.3   718  ARG718      0.2205
      8  NE        19.8130   20.3760  -89.1140 N.pl3 718  ARG718     -0.0865
      9  CZ        19.1330   20.8760  -88.0810 C.cat 718  ARG718      0.5346
     10  NH1       19.0540   22.1910  -87.8990 N.pl3 718  ARG718      0.1354
     11  NH2       18.5290   20.0650  -87.2200 N.pl3 718  ARG718      0.1354
     12  N         23.5170   25.0830  -87.8740 N.3   720  MET720     -0.1245
     13  CA        22.2530   25.4150  -87.2210 C.3   720  MET720      0.1570
     14  C         21.9810   26.9090  -87.3770 C.2   720  MET720      0.2261
     15  O         22.9390   27.6880  -87.3810 O.2   720  MET720     -0.2867
     16  CB        22.2520   24.9440  -85.7610 C.3   720  MET720      0.0387
     17  CG        22.3950   23.4440  -85.6280 C.3   720  MET720      0.0595
     18  SD        22.1600   22.8730  -83.9370 S.3   720  MET720     -0.1393
     19  CE        20.4790   22.4390  -84.0100 C.3   720  MET720      0.0692
     20  N         20.9070   29.1030  -85.5160 N.3   722  SER722     -0.1217
     21  CA        21.3130   29.7380  -84.2650 C.3   722  SER722      0.1889
     22  C         22.5340   30.6500  -84.4060 C.2   722  SER722      0.2288
     23  O         23.4260   30.3800  -85.2180 O.2   722  SER722     -0.2866
     24  CB        21.5740   28.6480  -83.2170 C.3   722  SER722      0.2089
     25  OG        22.3780   29.0370  -82.1120 O.3   722  SER722     -0.2183
     26  N         26.2610   26.7220  -84.5000 N.3   726  PRO726     -0.2116
     27  CA        26.5230   25.3490  -84.0530 C.3   726  PRO726      0.1372
     28  C         26.4610   24.4110  -85.2580 C.2   726  PRO726      0.2244
     29  O         25.8100   24.7360  -86.2600 O.2   726  PRO726     -0.2868
     30  CB        25.3970   25.0770  -83.0420 C.3   726  PRO726      0.0268
     31  CG        24.5450   26.3130  -83.0090 C.3   726  PRO726      0.0207
     32  CD        24.8630   27.1030  -84.2390 C.3   726  PRO726      0.0892
     33  N         25.3850   20.7780  -86.6740 N.3   728  TRP728     -0.1241
     34  CA        24.6240   19.5670  -86.4810 C.3   728  TRP728      0.1605
     35  C         25.3200   18.4990  -87.3210 C.2   728  TRP728      0.2264
     36  O         25.3070   18.5760  -88.5510 O.2   728  TRP728     -0.2867
     37  CB        23.2070   19.7750  -86.9640 C.3   728  TRP728      0.0550
     38  CG        22.3460   18.5570  -86.8390 C.ar  728  TRP728      0.0003
     39  CD1       22.3390   17.4600  -87.6510 C.ar  728  TRP728      0.0946
     40  CD2       21.2940   18.3630  -85.8930 C.ar  728  TRP728      0.0152
     41  NE1       21.3640   16.5790  -87.2470 N.ar  728  TRP728     -0.2442
     42  CE2       20.6820   17.1280  -86.1930 C.ar  728  TRP728      0.0810
     43  CE3       20.7940   19.1260  -84.8280 C.ar  728  TRP728      0.0012
     44  CZ2       19.5970   16.6400  -85.4630 C.ar  728  TRP728      0.0191
     45  CZ3       19.7150   18.6490  -84.1110 C.ar  728  TRP728      0.0001
     46  CH2       19.1190   17.4260  -84.4380 C.ar  728  TRP728      0.0015
     47  N         25.6710   18.0410  -81.7820 N.3   748  ILE748     -0.1245
     48  CA        25.7590   19.4700  -82.0410 C.3   748  ILE748      0.1561
     49  C         27.1280   19.8400  -81.5070 C.2   748  ILE748      0.2260
     50  O         27.4490   19.4910  -80.3710 O.2   748  ILE748     -0.2867
     51  CB        24.6400   20.3070  -81.3560 C.3   748  ILE748      0.0252
     52  CG1       23.2440   19.9370  -81.8850 C.3   748  ILE748      0.0019
     53  CG2       24.9110   21.7830  -81.5620 C.3   748  ILE748      0.0019
     54  CD1       22.0700   20.3710  -80.9900 C.3   748  ILE748      0.0001
     55  N         29.3200   23.0330  -80.6790 N.3   750  LYS750     -0.1245
     56  CA        29.1160   24.4670  -80.4510 C.3   750  LYS750      0.1561
     57  C         30.3890   25.2080  -79.9880 C.2   750  LYS750      0.2260
     58  O         30.9400   24.9310  -78.9130 O.2   750  LYS750     -0.2867
     59  CB        27.9440   24.6940  -79.4880 C.3   750  LYS750      0.0271
     60  CG        27.2560   26.0320  -79.6560 C.3   750  LYS750      0.0035
     61  CD        26.8760   26.5740  -78.3050 C.3   750  LYS750      0.0206
     62  CE        25.3990   26.7320  -78.1250 C.3   750  LYS750      0.1093
     63  NZ        25.0950   27.1740  -76.7430 N.3   750  LYS750     -0.1314
     64  N         30.1780   25.7420  -72.0550 N.3   755  LEU755     -0.1245
     65  CA        29.2490   24.6350  -71.7890 C.3   755  LEU755      0.1561
     66  C         29.3340   24.0000  -70.3810 C.2   755  LEU755      0.2260
     67  O         28.6620   22.9960  -70.1300 O.2   755  LEU755     -0.2867
     68  CB        29.3950   23.5600  -72.8800 C.3   755  LEU755      0.0270
     69  CG        28.6730   23.9150  -74.1730 C.3   755  LEU755      0.0019
     70  CD1       29.5400   23.7320  -75.3450 C.3   755  LEU755      0.0001
     71  CD2       27.4190   23.1320  -74.3260 C.3   755  LEU755      0.0001
     72  N         25.8360   24.1140  -68.4290 N.3   758  ASP758     -0.1239
     73  CA        25.0120   23.0730  -69.0240 C.3   758  ASP758      0.1674
     74  C         25.4740   21.7280  -68.5050 C.2   758  ASP758      0.2266
     75  O         24.6560   20.9660  -67.9890 O.2   758  ASP758     -0.2867
     76  CB        25.1180   23.1160  -70.5460 C.3   758  ASP758      0.1410
     77  CG        24.1910   24.1110  -71.2190 C.2   758  ASP758      0.3668
     78  OD1       24.5270   25.3300  -71.2250 O.co2 758  ASP758     -0.2456
     79  OD2       23.1620   23.6670  -71.8080 O.co2 758  ASP758     -0.2456
     80  N         20.7190   14.7170  -70.8510 N.3   784  TYR784     -0.1241
     81  CA        21.3800   14.4210  -72.1300 C.3   784  TYR784      0.1605
     82  C         22.9010   14.6960  -72.0620 C.2   784  TYR784      0.2264
     83  O         23.3730   15.4160  -71.1670 O.2   784  TYR784     -0.2867
     84  CB        20.6930   15.1390  -73.3200 C.3   784  TYR784      0.0534
     85  CG        20.6370   16.6480  -73.1950 C.ar  784  TYR784     -0.0201
     86  CD1       21.6970   17.4380  -73.6180 C.ar  784  TYR784     -0.0009
     87  CD2       19.5160   17.2880  -72.6580 C.ar  784  TYR784     -0.0009
     88  CE1       21.6700   18.8220  -73.4680 C.ar  784  TYR784      0.0417
     89  CE2       19.4800   18.6790  -72.5000 C.ar  784  TYR784      0.0417
     90  CZ        20.5660   19.4410  -72.9040 C.ar  784  TYR784      0.1957
     91  OH        20.5800   20.8120  -72.7810 O.3   784  TYR784     -0.2866
     92  N         27.0870   18.5270  -77.7050 N.3   796  ILE796     -0.1231
     93  CA        25.7590   18.2680  -77.1300 C.3   796  ILE796      0.1693
     94  C         25.1470   17.0470  -77.8410 C.2   796  ILE796      0.2595
     95  O         25.1420   16.9870  -79.0730 O.2   796  ILE796     -0.2718
     96  CB        24.8090   19.5180  -77.1600 C.3   796  ILE796      0.0266
     97  CG1       25.4370   20.7530  -76.4950 C.3   796  ILE796      0.0019
     98  CG2       23.4610   19.2030  -76.5190 C.3   796  ILE796      0.0020
     99  CD1       24.6530   22.0370  -76.7100 C.3   796  ILE796      0.0001
    100  N         24.6450   16.0800  -77.0620 N.am  797  GLU797     -0.1920
    101  CA        23.9790   14.8870  -77.5820 C.3   797  GLU797      0.1949
    102  C         22.5980   15.3040  -78.0960 C.2   797  GLU797      0.2659
    103  O         21.8580   15.9990  -77.3970 O.2   797  GLU797     -0.2711
    104  CB        23.8640   13.8190  -76.4820 C.2   797  GLU797      0.0111
    105  CG        22.7770   12.7620  -76.6730 C.2   797  GLU797      0.0838
    106  CD        22.6830   11.7150  -75.5760 C.2   797  GLU797      0.3877
    107  OE1       21.8550   10.7820  -75.7100 O.co2 797  GLU797     -0.2406
    108  OE2       23.4660   11.8020  -74.6040 O.co2 797  GLU797     -0.2406
    109  N         22.2660   14.8960  -79.3270 N.am  798  VAL798     -0.1961
    110  CA        20.9580   15.1830  -79.9060 C.3   798  VAL798      0.1727
    111  C         19.9780   14.1000  -79.4690 C.2   798  VAL798      0.2616
    112  O         20.1840   12.9240  -79.7370 O.2   798  VAL798     -0.2715
    113  CB        21.0020   15.3670  -81.4350 C.3   798  VAL798      0.0290
    114  CG1       19.6060   15.3250  -82.0320 C.3   798  VAL798      0.0023
    115  CG2       21.7100   16.6590  -81.8020 C.3   798  VAL798      0.0023
    116  N         18.9270   14.5130  -78.7740 N.am  799  VAL799     -0.1977
    117  CA        17.8670   13.6320  -78.3110 C.3   799  VAL799      0.1596
    118  C         16.9380   13.3460  -79.5110 C.2   799  VAL799      0.2287
    119  O         16.3380   14.2600  -80.1020 O.2   799  VAL799     -0.2864
    120  CB        17.1330   14.2280  -77.0790 C.3   799  VAL799      0.0276
    121  CG1       15.9100   13.4190  -76.6820 C.3   799  VAL799      0.0022
    122  CG2       18.0630   14.4150  -75.8880 C.3   799  VAL799      0.0022
    123  N         12.5390   14.3840  -80.6660 N.3   802  SER802     -0.1202
    124  CA        12.1710   15.4860  -79.7700 C.3   802  SER802      0.2020
    125  C         11.7580   16.6830  -80.5740 C.2   802  SER802      0.2619
    126  O         12.1810   16.8400  -81.7320 O.2   802  SER802     -0.2717
    127  CB        13.3470   15.9150  -78.9100 C.3   802  SER802      0.2103
    128  OG        14.1380   14.7950  -78.5780 O.3   802  SER802     -0.2182
    129  N         10.9360   17.5400  -79.9510 N.am  803  HIS803     -0.1961
    130  CA        10.4870   18.7940  -80.5320 C.3   803  HIS803      0.1787
    131  C         10.2650   19.7620  -79.4220 C.2   803  HIS803      0.2620
    132  O          9.7160   19.3820  -78.3820 O.2   803  HIS803     -0.2715
    133  CB         9.1760   18.6450  -81.3090 C.3   803  HIS803      0.0785
    134  CG         9.2150   17.5840  -82.3510 C.ar  803  HIS803      0.0821
    135  ND1        9.7120   17.8360  -83.6180 N.ar  803  HIS803     -0.2267
    136  CD2        8.8650   16.2800  -82.2620 C.ar  803  HIS803      0.1154
    137  CE1        9.6270   16.6900  -84.2650 C.ar  803  HIS803      0.1986
    138  NE2        9.1210   15.7240  -83.4890 N.ar  803  HIS803     -0.2212
    139  N         10.6370   21.0310  -79.6510 N.am  804  THR804     -0.1951
    140  CA        10.3970   22.1120  -78.7000 C.3   804  THR804      0.1897
    141  C          8.8910   22.3630  -78.6980 C.2   804  THR804      0.2313
    142  O          8.2320   22.0640  -79.6960 O.2   804  THR804     -0.2863
    143  CB        11.1560   23.3700  -79.1170 C.3   804  THR804      0.1794
    144  OG1       10.6540   23.8340  -80.3590 O.3   804  THR804     -0.2208
    145  CG2       12.6450   23.1450  -79.2350 C.3   804  THR804      0.0378
    146  N          7.9730   24.2050  -81.8330 N.3   807  GLN807     -0.1245
    147  CA         7.9270   23.3900  -83.0560 C.3   807  GLN807      0.1566
    148  C          6.5820   22.7090  -83.1880 C.2   807  GLN807      0.2260
    149  O          6.0220   22.6860  -84.2870 O.2   807  GLN807     -0.2867
    150  CB         9.0260   22.3090  -83.0620 C.3   807  GLN807      0.0367
    151  CG        10.3790   22.7690  -83.5870 C.3   807  GLN807      0.0905
    152  CD        11.5130   21.7970  -83.3040 C.2   807  GLN807      0.2608
    153  OE1       11.6020   21.1740  -82.2440 O.2   807  GLN807     -0.2717
    154  NE2       12.4570   21.7020  -84.2230 N.am  807  GLN807     -0.0878
    155  N         10.6340   27.3600  -76.6850 N.3   859  SER859     -0.1217
    156  CA        11.7710   27.0610  -77.5570 C.3   859  SER859      0.1889
    157  C         12.9420   26.4000  -76.7960 C.2   859  SER859      0.2288
    158  O         13.9610   26.0680  -77.4110 O.2   859  SER859     -0.2866
    159  CB        12.2430   28.3260  -78.2610 C.3   859  SER859      0.2089
    160  OG        12.8270   29.2110  -77.3180 O.3   859  SER859     -0.2183
    161  N         11.4530   20.8890  -74.4960 N.3   862  MET862     -0.1245
    162  CA        11.2050   19.9030  -75.5370 C.3   862  MET862      0.1570
    163  C         10.3710   18.7410  -75.0170 C.2   862  MET862      0.2261
    164  O         10.3560   18.4770  -73.8110 O.2   862  MET862     -0.2867
    165  CB        12.5240   19.3940  -76.1180 C.3   862  MET862      0.0387
    166  CG        13.4110   20.4840  -76.6610 C.3   862  MET862      0.0595
    167  SD        14.7810   19.7940  -77.5840 S.3   862  MET862     -0.1393
    168  CE        14.0470   19.6170  -79.1610 C.3   862  MET862      0.0692
    169  N         11.3330   17.4990  -71.2250 N.3   870  PHE870     -0.1241
    170  CA        12.6930   17.8320  -70.7890 C.3   870  PHE870      0.1605
    171  C         13.0890   19.2460  -71.2300 C.2   870  PHE870      0.2264
    172  O         12.5600   19.7660  -72.2120 O.2   870  PHE870     -0.2867
    173  CB        13.7510   16.7670  -71.1970 C.3   870  PHE870      0.0534
    174  CG        14.0820   16.6940  -72.6670 C.ar  870  PHE870     -0.0203
    175  CD1       13.2700   15.9900  -73.5450 C.ar  870  PHE870     -0.0042
    176  CD2       15.2090   17.3260  -73.1740 C.ar  870  PHE870     -0.0042
    177  CE1       13.5720   15.9340  -74.9050 C.ar  870  PHE870     -0.0003
    178  CE2       15.4990   17.2800  -74.5390 C.ar  870  PHE870     -0.0003
    179  CZ        14.6720   16.5980  -75.3930 C.ar  870  PHE870     -0.0000
    180  N         16.1990   22.1970  -72.0970 N.3   872  ILE872     -0.1231
    181  CA        17.4760   22.3980  -72.7840 C.3   872  ILE872      0.1692
    182  C         17.9670   23.8520  -72.5310 C.2   872  ILE872      0.2592
    183  O         17.1950   24.6830  -72.0540 O.2   872  ILE872     -0.2718
    184  CB        17.4120   22.0370  -74.3070 C.3   872  ILE872      0.0266
    185  CG1       16.5210   22.9990  -75.0990 C.3   872  ILE872      0.0019
    186  CG2       16.9980   20.5850  -74.5290 C.3   872  ILE872      0.0020
    187  CD1       16.8210   23.0520  -76.5630 C.3   872  ILE872      0.0001
    188  N         19.2350   24.1420  -72.8640 N.am  873  ASP873     -0.1974
    189  CA        19.9020   25.4390  -72.7090 C.3   873  ASP873      0.1709
    190  C         20.0130   25.8510  -71.2470 C.2   873  ASP873      0.2293
    191  O         19.1920   26.6000  -70.7370 O.2   873  ASP873     -0.2864
    192  CB        19.2870   26.5460  -73.5910 C.3   873  ASP873      0.1436
    193  CG        20.0540   27.8520  -73.5440 C.2   873  ASP873      0.3671
    194  OD1       21.3040   27.8200  -73.7230 O.co2 873  ASP873     -0.2456
    195  OD2       19.4130   28.9090  -73.3090 O.co2 873  ASP873     -0.2456
@<TRIPOS>BOND
     1     5     2    1
     2     5     6    1
     3     2     1    1
     4     2     3    1
     5     6     7    1
     6     3     4    2
     7     7     8    1
     8     8     9    2
     9    36    35    2
    10     9    10    1
    11     9    11    1
    12    12    13    1
    13    39    41   ar
    14    39    38   ar
    15    15    14    2
    16    14    13    1
    17    35    34    1
    18    41    42   ar
    19    13    16    1
    20    37    38    1
    21    37    34    1
    22    38    40   ar
    23    33    34    1
    24    29    28    2
    25    42    40   ar
    26    42    44   ar
    27    40    43   ar
    28    16    17    1
    29    17    18    1
    30    20    21    1
    31    44    46   ar
    32    28    27    1
    33    23    22    2
    34    43    45   ar
    35    26    32    1
    36    26    27    1
    37    46    45   ar
    38    22    21    1
    39   149   148    2
    40    21    24    1
    41   137   135   ar
    42   137   138   ar
    43    32    31    1
    44   154   152   am
    45    27    30    1
    46    19    18    1
    47   135   134   ar
    48   151   152    1
    49   151   150    1
    50   138   136   ar
    51   152   153    2
    52    24    25    1
    53   148   147    1
    54   150   147    1
    55   147   146    1
    56    30    31    1
    57   134   136   ar
    58   134   133    1
    59    48    47    1
    60    48    49    1
    61    48    51    1
    62   114   113    1
    63    52    51    1
    64    52    54    1
    65   115   113    1
    66   126   125    2
    67    53    51    1
    68    49    50    2
    69   113   110    1
    70   133   130    1
    71    55    56    1
    72   123   124    1
    73   125   129   am
    74   125   124    1
    75   130   129    1
    76   130   131    1
    77    56    57    1
    78    56    59    1
    79   144   143    1
    80   119   118    2
    81    57    58    2
    82   110   111    1
    83   110   109    1
    84   124   127    1
    85   112   111    2
    86   142   141    2
    87    60    59    1
    88    60    61    1
    89   139   131   am
    90   139   140    1
    91   118   117    1
    92   111   116   am
    93   131   132    2
    94   109   102   am
    95   145   143    1
    96   168   167    1
    97   143   140    1
    98    95    94    2
    99   127   128    1
   100   116   117    1
   101   140   141    1
   102   117   120    1
   103    61    62    1
   104   159   156    1
   105   159   160    1
   106    62    63    1
   107   102   101    1
   108   102   103    2
   109    94    93    1
   110    94   100   am
   111    92    93    1
   112   167   166    1
   113   101   100    1
   114   101   104    1
   115   156   157    1
   116   156   155    1
   117   158   157    2
   118    96    93    1
   119    96    98    1
   120    96    97    1
   121   120   121    1
   122   120   122    1
   123    99    97    1
   124   105   104    2
   125   105   106    1
   126   166   165    1
   127   187   185    1
   128   165   162    1
   129   107   106   ar
   130   106   108   ar
   131   162   163    1
   132   162   161    1
   133   179   177   ar
   134   179   178   ar
   135    70    69    1
   136   185   184    1
   137   163   164    2
   138   177   175   ar
   139   178   176   ar
   140   186   184    1
   141    71    69    1
   142   184   181    1
   143    69    68    1
   144   194   193   ar
   145    86    88   ar
   146    86    85   ar
   147   192   193    1
   148   192   189    1
   149   175   174   ar
   150   193   195   ar
   151    88    90   ar
   152    84    85    1
   153    84    81    1
   154    85    87   ar
   155   176   174   ar
   156    90    91    1
   157    90    89   ar
   158    68    65    1
   159   188   189    1
   160   188   182   am
   161   181   182    1
   162   181   180    1
   163   189   190    1
   164   174   173    1
   165    87    89   ar
   166   182   183    2
   167   172   171    2
   168    81    82    1
   169    81    80    1
   170    82    83    2
   171    64    65    1
   172    79    77   ar
   173    65    66    1
   174   190   191    2
   175   171   170    1
   176   169   170    1
   177    78    77   ar
   178    77    76    1
   179   173   170    1
   180    76    73    1
   181    66    67    2
   182    73    74    1
   183    73    72    1
   184    74    75    2
