@<TRIPOS>MOLECULE
tmp/5dxiA00.pdb
 191 178 0 0 0
SMALL
GASTEIGER

@<TRIPOS>ATOM
      1  N          5.2820   95.5420  197.0310 N.3    28  ASP28      -0.1239
      2  CA         6.4160   96.1210  196.3530 C.3    28  ASP28       0.1674
      3  C          5.9910   97.4370  195.6770 C.2    28  ASP28       0.2266
      4  O          4.8230   97.5720  195.3160 O.2    28  ASP28      -0.2867
      5  CB         6.9320   95.1690  195.3040 C.3    28  ASP28       0.1410
      6  CG         8.1340   95.6890  194.6580 C.2    28  ASP28       0.3668
      7  OD1        8.9750   96.1000  195.4560 O.co2  28  ASP28      -0.2456
      8  OD2        8.2300   95.7460  193.4170 O.co2  28  ASP28      -0.2456
      9  N          8.3140   99.6750  193.0320 N.3    30  ASP30      -0.1239
     10  CA         8.7980   99.7650  191.6530 C.3    30  ASP30       0.1674
     11  C          8.5080   98.5280  190.8100 C.2    30  ASP30       0.2266
     12  O          8.7660   97.4090  191.2160 O.2    30  ASP30      -0.2867
     13  CB        10.2990  100.0400  191.6250 C.3    30  ASP30       0.1410
     14  CG        10.6360  101.4300  192.1280 C.2    30  ASP30       0.3668
     15  OD1       10.4570  102.3890  191.3480 O.co2  30  ASP30      -0.2456
     16  OD2       11.0800  101.5610  193.2910 O.co2  30  ASP30      -0.2456
     17  N          5.0540  101.6100  186.8480 N.3    35  PRO35      -0.2102
     18  CA         5.9060  100.9350  185.8680 C.3    35  PRO35       0.1504
     19  C          7.3910  101.2180  186.0440 C.2    35  PRO35       0.2576
     20  O          7.7910  102.1970  186.6730 O.2    35  PRO35      -0.2718
     21  CB         5.4010  101.4870  184.5120 C.3    35  PRO35       0.0282
     22  CG         4.5660  102.6710  184.8510 C.3    35  PRO35       0.0208
     23  CD         4.0090  102.4260  186.2080 C.3    35  PRO35       0.0893
     24  N          8.2020  100.3130  185.5100 N.am   36  ILE36      -0.1966
     25  CA         9.6330  100.5150  185.4140 C.3    36  ILE36       0.1727
     26  C          9.9390  101.6330  184.4200 C.2    36  ILE36       0.2616
     27  O          9.4930  101.5700  183.2810 O.2    36  ILE36      -0.2715
     28  CB        10.3270   99.2300  184.9780 C.3    36  ILE36       0.0290
     29  CG1       10.1760   98.1560  186.0820 C.3    36  ILE36       0.0022
     30  CG2       11.7760   99.4800  184.6520 C.3    36  ILE36       0.0023
     31  CD1       10.9810   98.4360  187.3450 C.3    36  ILE36       0.0001
     32  N         10.6980  102.6370  184.8380 N.am   37  VAL37      -0.1963
     33  CA        11.0980  103.6970  183.9190 C.3    37  VAL37       0.1727
     34  C         12.5960  103.9580  183.9730 C.2    37  VAL37       0.2616
     35  O         13.3050  103.4660  184.8610 O.2    37  VAL37      -0.2715
     36  CB        10.3510  105.0140  184.1960 C.3    37  VAL37       0.0290
     37  CG1        8.8700  104.8690  183.8380 C.3    37  VAL37       0.0023
     38  CG2       10.5320  105.4640  185.6620 C.3    37  VAL37       0.0023
     39  N         13.0560  104.7450  183.0040 N.am   38  GLN38      -0.1977
     40  CA        14.4650  105.0560  182.8120 C.3    38  GLN38       0.1601
     41  C         15.0460  105.8450  184.0030 C.2    38  GLN38       0.2287
     42  O         16.1450  105.5630  184.5000 O.2    38  GLN38      -0.2864
     43  CB        14.6190  105.8480  181.5070 C.3    38  GLN38       0.0394
     44  CG        14.1990  105.0620  180.2390 C.3    38  GLN38       0.0908
     45  CD        12.6680  105.0520  179.9790 C.2    38  GLN38       0.2608
     46  OE1       11.8780  105.6450  180.7230 O.2    38  GLN38      -0.2717
     47  NE2       12.2620  104.3630  178.9270 N.am   38  GLN38      -0.0878
     48  N         14.7110  106.8770  187.8100 N.3    40  PRO40      -0.2116
     49  CA        14.0480  106.4390  189.0470 C.3    40  PRO40       0.1372
     50  C         13.2510  107.5480  189.7120 C.2    40  PRO40       0.2244
     51  O         12.2310  107.2580  190.3430 O.2    40  PRO40      -0.2868
     52  CB        15.2170  105.9750  189.9310 C.3    40  PRO40       0.0268
     53  CG        16.2830  105.5660  188.9460 C.3    40  PRO40       0.0207
     54  CD        16.1500  106.5560  187.8100 C.3    40  PRO40       0.0892
     55  N          9.4830  107.7380  188.8340 N.3    43  ALA43      -0.1245
     56  CA         8.6040  106.6180  189.1710 C.3    43  ALA43       0.1562
     57  C          7.5520  107.0370  190.1810 C.2    43  ALA43       0.2260
     58  O          7.5260  106.5480  191.3140 O.2    43  ALA43      -0.2867
     59  CB         9.4190  105.4220  189.7150 C.3    43  ALA43       0.0290
     60  N         10.0150   98.0830  199.9150 N.3    68  SER68      -0.1202
     61  CA        10.7030   98.5090  198.7070 C.3    68  SER68       0.2020
     62  C         12.2200   98.4710  198.8440 C.2    68  SER68       0.2619
     63  O         12.7440   98.4410  199.9520 O.2    68  SER68      -0.2717
     64  CB        10.2540   99.9510  198.3400 C.3    68  SER68       0.2103
     65  OG        10.9010  100.4110  197.1590 O.3    68  SER68      -0.2182
     66  N         12.9180   98.4920  197.7090 N.am   69  GLY69      -0.1942
     67  CA        14.3530   98.7240  197.7000 C.3    69  GLY69       0.2014
     68  C         14.7010  100.2020  197.8500 C.2    69  GLY69       0.2638
     69  O         15.8500  100.5520  198.1700 O.2    69  GLY69      -0.2714
     70  N         13.7070  101.0690  197.6380 N.am   70  ARG70      -0.1977
     71  CA        13.8810  102.5310  197.7340 C.3    70  ARG70       0.1597
     72  C         14.4000  102.9790  199.0970 C.2    70  ARG70       0.2287
     73  O         14.0990  102.3550  200.1230 O.2    70  ARG70      -0.2864
     74  CB        12.5520  103.2440  197.4610 C.3    70  ARG70       0.0334
     75  CG        12.0420  103.1910  196.0210 C.3    70  ARG70       0.0492
     76  CD        13.0020  103.8870  195.0360 C.3    70  ARG70       0.2205
     77  NE        12.4530  103.8630  193.6810 N.pl3  70  ARG70      -0.0865
     78  CZ        12.5760  104.8320  192.7760 C.cat  70  ARG70       0.5346
     79  NH1       13.2430  105.9510  193.0550 N.pl3  70  ARG70       0.1354
     80  NH2       12.0210  104.6780  191.5780 N.pl3  70  ARG70       0.1354
     81  N         15.2920   97.1790  200.9920 N.3    90  HIS90      -0.1241
     82  CA        15.1950   95.7290  200.9630 C.3    90  HIS90       0.1621
     83  C         15.2630   95.1540  202.3780 C.2    90  HIS90       0.2264
     84  O         15.9860   94.2030  202.6080 O.2    90  HIS90      -0.2867
     85  CB        16.3040   95.1040  200.0960 C.3    90  HIS90       0.0745
     86  CG        16.3750   95.6510  198.7000 C.ar   90  HIS90       0.0817
     87  ND1       15.5410   95.2260  197.6870 N.ar   90  HIS90      -0.2268
     88  CD2       17.1960   96.5750  198.1480 C.ar   90  HIS90       0.1154
     89  CE1       15.8420   95.8710  196.5700 C.ar   90  HIS90       0.1986
     90  NE2       16.8430   96.6960  196.8240 N.ar   90  HIS90      -0.2212
     91  N         24.0270  104.2870  192.9470 N.3   134  GLU134     -0.1245
     92  CA        23.1090  104.8770  193.9140 C.3   134  GLU134      0.1567
     93  C         23.5170  104.4240  195.3150 C.2   134  GLU134      0.2260
     94  O         23.4200  103.2400  195.6420 O.2   134  GLU134     -0.2867
     95  CB        21.6630  104.4710  193.6190 C.3   134  GLU134      0.0388
     96  CG        20.6460  105.0740  194.5690 C.3   134  GLU134      0.1160
     97  CD        19.2410  104.5230  194.3560 C.2   134  GLU134      0.3649
     98  OE1       19.0530  103.5790  193.5340 O.co2 134  GLU134     -0.2457
     99  OE2       18.3220  105.0520  195.0100 O.co2 134  GLU134     -0.2457
    100  N         22.5790  104.3770  198.9680 N.3   136  LYS136     -0.1245
    101  CA        21.5300  104.6330  199.9390 C.3   136  LYS136      0.1561
    102  C         22.1820  104.5950  201.3210 C.2   136  LYS136      0.2260
    103  O         23.4050  104.5920  201.4090 O.2   136  LYS136     -0.2867
    104  CB        20.4040  103.6160  199.7810 C.3   136  LYS136      0.0271
    105  CG        19.8370  103.5630  198.3550 C.3   136  LYS136      0.0035
    106  CD        18.9090  102.3630  198.2220 C.3   136  LYS136      0.0206
    107  CE        18.8610  101.8440  196.8100 C.3   136  LYS136      0.1093
    108  NZ        17.9730  100.6610  196.6700 N.3   136  LYS136     -0.1314
    109  N         23.4290  100.4300  195.1250 N.3   141  THR141     -0.1218
    110  CA        22.8460   99.9900  193.8690 C.3   141  THR141      0.1862
    111  C         23.6870  100.4510  192.6880 C.2   141  THR141      0.2287
    112  O         24.0410  101.6210  192.5970 O.2   141  THR141     -0.2866
    113  CB        21.4110  100.5390  193.7050 C.3   141  THR141      0.1770
    114  OG1       20.6170  100.1480  194.8290 O.3   141  THR141     -0.2211
    115  CG2       20.7770  100.0110  192.4410 C.3   141  THR141      0.0375
    116  N         23.2860  100.9200  188.7920 N.3   143  HIS143     -0.1241
    117  CA        22.3040  100.9820  187.7100 C.3   143  HIS143      0.1621
    118  C         22.9640  100.9340  186.3320 C.2   143  HIS143      0.2264
    119  O         23.9070  101.6760  186.0850 O.2   143  HIS143     -0.2867
    120  CB        21.4860  102.2670  187.7900 C.3   143  HIS143      0.0745
    121  CG        20.5550  102.3460  188.9580 C.ar  143  HIS143      0.0817
    122  ND1       19.3140  101.7430  188.9630 N.ar  143  HIS143     -0.2268
    123  CD2       20.6650  102.9900  190.1440 C.ar  143  HIS143      0.1154
    124  CE1       18.7020  102.0130  190.1010 C.ar  143  HIS143      0.1986
    125  NE2       19.5010  102.7640  190.8380 N.ar  143  HIS143     -0.2212
    126  N         20.6450  100.5100  183.3770 N.3   145  ARG145     -0.1245
    127  CA        19.5240  100.5470  182.4390 C.3   145  ARG145      0.1563
    128  C         19.8300  101.4800  181.2520 C.2   145  ARG145      0.2260
    129  O         19.5140  101.1690  180.1080 O.2   145  ARG145     -0.2867
    130  CB        18.2350  100.9730  183.1540 C.3   145  ARG145      0.0307
    131  CG        17.0020  101.0520  182.2560 C.3   145  ARG145      0.0489
    132  CD        15.7260  101.1270  183.0850 C.3   145  ARG145      0.2205
    133  NE        15.6090   99.9730  183.9890 N.pl3 145  ARG145     -0.0865
    134  CZ        15.2230   98.7550  183.6160 C.cat 145  ARG145      0.5346
    135  NH1       14.9100   98.5130  182.3390 N.pl3 145  ARG145      0.1354
    136  NH2       15.1530   97.7660  184.5140 N.pl3 145  ARG145      0.1354
    137  N         16.4360   94.1950  188.1650 N.3   179  LYS179     -0.1231
    138  CA        16.1860   94.6770  186.8140 C.3   179  LYS179      0.1693
    139  C         17.1760   95.7780  186.4480 C.2   179  LYS179      0.2592
    140  O         17.1270   96.8800  186.9900 O.2   179  LYS179     -0.2718
    141  CB        14.7410   95.1580  186.6910 C.3   179  LYS179      0.0285
    142  CG        13.7280   93.9960  186.6630 C.3   179  LYS179      0.0035
    143  CD        12.3040   94.5200  186.6000 C.3   179  LYS179      0.0206
    144  CE        11.2790   93.3910  186.4670 C.3   179  LYS179      0.1093
    145  NZ         9.9020   93.9680  186.5270 N.3   179  LYS179     -0.1314
    146  N         18.0970   95.4350  185.5500 N.am  180  ALA180     -0.1966
    147  CA        19.1410   96.3450  185.0770 C.3   180  ALA180      0.1728
    148  C         19.9020   96.9800  186.2420 C.2   180  ALA180      0.2616
    149  O         20.2600   98.1700  186.1900 O.2   180  ALA180     -0.2715
    150  CB        18.5460   97.4380  184.1530 C.3   180  ALA180      0.0334
    151  N         20.1200   96.2020  187.3050 N.am  181  ASN181     -0.1972
    152  CA        20.9400   96.6900  188.4090 C.3   181  ASN181      0.1688
    153  C         21.6800   95.5710  189.1320 C.2   181  ASN181      0.2292
    154  O         21.4440   94.3840  188.8990 O.2   181  ASN181     -0.2864
    155  CB        20.0810   97.5080  189.4150 C.3   181  ASN181      0.1181
    156  CG        19.1820   96.6270  190.3360 C.2   181  ASN181      0.2629
    157  OD1       19.6080   95.6070  190.8660 O.2   181  ASN181     -0.2716
    158  ND2       17.9440   97.0570  190.5300 N.am  181  ASN181     -0.0877
    159  N         22.4930   95.0830  193.3310 N.3   183  GLU183     -0.1245
    160  CA        22.3180   95.6910  194.6300 C.3   183  GLU183      0.1567
    161  C         23.0540   94.8590  195.6410 C.2   183  GLU183      0.2260
    162  O         23.0980   93.6710  195.5180 O.2   183  GLU183     -0.2867
    163  CB        20.8310   95.8090  194.9980 C.3   183  GLU183      0.0388
    164  CG        19.9920   96.6650  194.0540 C.3   183  GLU183      0.1160
    165  CD        18.9420   97.5020  194.7500 C.2   183  GLU183      0.3649
    166  OE1       19.1420   97.8940  195.8830 O.co2 183  GLU183     -0.2457
    167  OE2       17.9180   97.7860  194.1510 O.co2 183  GLU183     -0.2457
    168  N         13.4830   91.4780  202.5560 N.3   191  LYS191     -0.1245
    169  CA        12.0360   91.6880  202.5150 C.3   191  LYS191      0.1561
    170  C         11.2780   90.5130  203.1560 C.2   191  LYS191      0.2260
    171  O         10.1620   90.6830  203.6370 O.2   191  LYS191     -0.2867
    172  CB        11.5600   91.9100  201.0760 C.3   191  LYS191      0.0271
    173  CG        12.0350   93.2170  200.4170 C.3   191  LYS191      0.0035
    174  CD        11.1950   93.5480  199.1740 C.3   191  LYS191      0.0206
    175  CE        11.5630   94.9200  198.5470 C.3   191  LYS191      0.1093
    176  NZ        10.6830   95.1840  197.3470 N.3   191  LYS191     -0.1314
    177  N         10.5420   91.5930  191.2400 N.3   223  ASP223     -0.1239
    178  CA        11.9780   91.3870  191.0670 C.3   223  ASP223      0.1674
    179  C         12.5270   90.3890  192.0760 C.2   223  ASP223      0.2266
    180  O         11.7860   89.8400  192.8920 O.2   223  ASP223     -0.2867
    181  CB        12.7280   92.7190  191.1630 C.3   223  ASP223      0.1410
    182  CG        13.9540   92.7690  190.2630 C.2   223  ASP223      0.3668
    183  OD1       14.3590   91.7150  189.7300 O.co2 223  ASP223     -0.2456
    184  OD2       14.5270   93.8720  190.1000 O.co2 223  ASP223     -0.2456
    185  N         14.4600   90.5710  194.6780 N.3   225  THR225     -0.1218
    186  CA        14.2430   90.9360  196.0680 C.3   225  THR225      0.1862
    187  C         12.8810   90.4790  196.6060 C.2   225  THR225      0.2287
    188  O         12.7700   90.0950  197.7710 O.2   225  THR225     -0.2866
    189  CB        14.3840   92.4560  196.2750 C.3   225  THR225      0.1770
    190  OG1       14.2810   92.7280  197.6690 O.3   225  THR225     -0.2211
    191  CG2       13.2870   93.2540  195.4970 C.3   225  THR225      0.0375
@<TRIPOS>BOND
     1    47    45   am
     2    45    44    1
     3    45    46    2
     4   129   128    2
     5    44    43    1
     6   128   127    1
     7    43    40    1
     8   131   132    1
     9   131   130    1
    10   135   134    1
    11   127   130    1
    12   127   126    1
    13    40    39    1
    14    40    41    1
    15    39    34   am
    16   132   133    1
    17    27    26    2
    18   134   133    2
    19   134   136    1
    20    37    36    1
    21    33    34    1
    22    33    36    1
    23    33    32    1
    24    34    35    2
    25    41    42    2
    26   150   147    1
    27    36    38    1
    28    26    32   am
    29    26    25    1
    30    21    22    1
    31    21    18    1
    32    30    28    1
    33    22    23    1
    34    28    25    1
    35    28    29    1
    36   147   146    1
    37   147   148    1
    38    25    24    1
    39    24    19   am
    40   146   139   am
    41    18    19    1
    42    18    17    1
    43    19    20    2
    44    29    31    1
    45   119   118    2
    46   149   148    2
    47    23    17    1
    48   148   151   am
    49   118   117    1
    50   139   138    1
    51   139   140    2
    52   144   145    1
    53   144   143    1
    54   143   142    1
    55   142   141    1
    56   141   138    1
    57   138   137    1
    58   151   152    1
    59   117   120    1
    60   117   116    1
    61   120   121    1
    62    48    54    1
    63    48    49    1
    64    54    53    1
    65   152   153    1
    66   152   155    1
    67    55    56    1
    68   154   153    2
    69    53    52    1
    70   121   122   ar
    71   121   123   ar
    72   122   124   ar
    73    49    50    1
    74    49    52    1
    75    56    59    1
    76    56    57    1
    77   155   156    1
    78    50    51    2
    79   183   182   ar
    80   184   182   ar
    81   124   125   ar
    82   123   125   ar
    83    57    58    2
    84   182   181    1
    85   156   158   am
    86   156   157    2
    87    11    12    2
    88    11    10    1
    89   178   181    1
    90   178   177    1
    91   178   179    1
    92    15    14   ar
    93    80    78    1
    94    13    10    1
    95    13    14    1
    96    10     9    1
    97   179   180    2
    98    14    16   ar
    99   115   113    1
   100   112   111    2
   101   111   110    1
   102    78    79    1
   103    78    77    2
   104    91    92    1
   105   159   160    1
   106     8     6   ar
   107    98    97   ar
   108    95    92    1
   109    95    96    1
   110    77    76    1
   111   113   110    1
   112   113   114    1
   113   110   109    1
   114    92    93    1
   115   164   165    1
   116   164   163    1
   117   167   165   ar
   118    97    96    1
   119    97    99   ar
   120   160   163    1
   121   160   161    1
   122     6     5    1
   123     6     7   ar
   124   185   186    1
   125   165   166   ar
   126    76    75    1
   127     5     2    1
   128    93    94    2
   129     4     3    2
   130   191   189    1
   131   162   161    2
   132     3     2    1
   133    75    74    1
   134   186   189    1
   135   186   187    1
   136   189   190    1
   137     2     1    1
   138    89    90   ar
   139    89    87   ar
   140   187   188    2
   141   108   107    1
   142   107   106    1
   143    90    88   ar
   144    65    64    1
   145   176   175    1
   146    74    71    1
   147    70    71    1
   148    70    68   am
   149    87    86   ar
   150    67    66    1
   151    67    68    1
   152    66    62   am
   153    71    72    1
   154    68    69    2
   155    88    86   ar
   156   106   105    1
   157    64    61    1
   158   105   104    1
   159   175   174    1
   160    86    85    1
   161    61    62    1
   162    61    60    1
   163    62    63    2
   164   100   101    1
   165    72    73    2
   166   174   173    1
   167   104   101    1
   168   101   102    1
   169    85    82    1
   170   173   172    1
   171    82    81    1
   172    82    83    1
   173   172   169    1
   174   102   103    2
   175    83    84    2
   176   169   168    1
   177   169   170    1
   178   170   171    2
