@<TRIPOS>MOLECULE
tmp/5dxpB00.pdb
 175 163 0 0 0
SMALL
GASTEIGER

@<TRIPOS>ATOM
      1  N         18.9350    8.1260   41.6020 N.3    38  MET38      -0.1245
      2  CA        18.5890    6.8900   40.9050 C.3    38  MET38       0.1570
      3  C         17.9830    5.8610   41.8540 C.2    38  MET38       0.2261
      4  O         17.1960    5.0120   41.4380 O.2    38  MET38      -0.2867
      5  CB        19.8160    6.2940   40.2110 C.3    38  MET38       0.0387
      6  CG        20.0400    6.7910   38.7900 C.3    38  MET38       0.0595
      7  SD        18.6350    6.4730   37.7030 S.3    38  MET38      -0.1393
      8  CE        18.3260    4.7350   38.0280 C.3    38  MET38       0.0692
      9  N         14.2830    6.8000   42.1400 N.3    41  LEU41      -0.1231
     10  CA        13.5640    6.4950   40.9080 C.3    41  LEU41       0.1693
     11  C         13.3350    4.9960   40.7640 C.2    41  LEU41       0.2592
     12  O         12.2490    4.5580   40.3840 O.2    41  LEU41      -0.2718
     13  CB        14.3260    7.0300   39.6960 C.3    41  LEU41       0.0284
     14  CG        14.4760    8.5500   39.6240 C.3    41  LEU41       0.0019
     15  CD1       15.3180    8.9480   38.4240 C.3    41  LEU41       0.0001
     16  CD2       13.1110    9.2150   39.5680 C.3    41  LEU41       0.0001
     17  N         14.3670    4.2160   41.0730 N.am   42  THR42      -0.1953
     18  CA        14.2850    2.7630   41.0090 C.3    42  THR42       0.1897
     19  C         13.2410    2.2350   41.9900 C.2    42  THR42       0.2313
     20  O         12.4140    1.3920   41.6400 O.2    42  THR42      -0.2863
     21  CB        15.6460    2.1090   41.3100 C.3    42  THR42       0.1794
     22  OG1       16.6120    2.5410   40.3420 O.3    42  THR42      -0.2208
     23  CG2       15.5350    0.5990   41.2680 C.3    42  THR42       0.0378
     24  N         10.7590    3.9340   43.2590 N.3    44  LEU44      -0.1231
     25  CA         9.4630    4.4220   42.8030 C.3    44  LEU44       0.1693
     26  C          8.9170    3.5800   41.6550 C.2    44  LEU44       0.2591
     27  O          7.7620    3.1550   41.6810 O.2    44  LEU44      -0.2718
     28  CB         9.5650    5.8860   42.3690 C.3    44  LEU44       0.0284
     29  CG         8.3040    6.4950   41.7530 C.3    44  LEU44       0.0019
     30  CD1        7.1600    6.4950   42.7550 C.3    44  LEU44       0.0001
     31  CD2        8.5800    7.9020   41.2440 C.3    44  LEU44       0.0001
     32  N          9.7540    3.3470   40.6480 N.am   45  ALA45      -0.1980
     33  CA         9.3370    2.6040   39.4650 C.3    45  ALA45       0.1597
     34  C          8.9140    1.1870   39.8300 C.2    45  ALA45       0.2287
     35  O          7.9290    0.6700   39.3000 O.2    45  ALA45      -0.2864
     36  CB        10.4540    2.5760   38.4360 C.3    45  ALA45       0.0319
     37  N          5.4800    1.3260   41.2450 N.3    48  GLU48      -0.1245
     38  CA         4.5440    1.6620   40.1750 C.3    48  GLU48       0.1567
     39  C          4.1670    0.4420   39.3370 C.2    48  GLU48       0.2260
     40  O          3.0380    0.3370   38.8600 O.2    48  GLU48      -0.2867
     41  CB         5.1320    2.7430   39.2630 C.3    48  GLU48       0.0388
     42  CG         5.2530    4.1170   39.9020 C.3    48  GLU48       0.1160
     43  CD         5.6400    5.1910   38.9000 C.2    48  GLU48       0.3649
     44  OE1        6.8500    5.4470   38.7310 O.co2  48  GLU48      -0.2457
     45  OE2        4.7310    5.7810   38.2790 O.co2  48  GLU48      -0.2457
     46  N          6.2950   -1.6140   29.5020 N.3    78  TRP78      -0.1227
     47  CA         6.3350   -1.0880   30.8700 C.3    78  TRP78       0.1737
     48  C          6.9990    0.2890   30.9990 C.2    78  TRP78       0.2595
     49  O          6.4780    1.1570   31.6960 O.2    78  TRP78      -0.2718
     50  CB         7.0170   -2.0910   31.8130 C.3    78  TRP78       0.0564
     51  CG         8.4980   -2.2700   31.6260 C.ar   78  TRP78       0.0003
     52  CD1        9.1190   -3.1770   30.8180 C.ar   78  TRP78       0.0946
     53  CD2        9.5420   -1.5440   32.2890 C.ar   78  TRP78       0.0152
     54  NE1       10.4850   -3.0520   30.9250 N.ar   78  TRP78      -0.2442
     55  CE2       10.7700   -2.0560   31.8220 C.ar   78  TRP78       0.0810
     56  CE3        9.5570   -0.5050   33.2250 C.ar   78  TRP78       0.0012
     57  CZ2       11.9990   -1.5640   32.2590 C.ar   78  TRP78       0.0191
     58  CZ3       10.7800   -0.0180   33.6590 C.ar   78  TRP78       0.0001
     59  CH2       11.9820   -0.5480   33.1760 C.ar   78  TRP78       0.0015
     60  N          8.1210    0.5030   30.3200 N.am   79  LEU79      -0.1980
     61  CA         8.7990    1.7930   30.4050 C.3    79  LEU79       0.1596
     62  C          8.0330    2.8690   29.6350 C.2    79  LEU79       0.2287
     63  O          7.9830    4.0220   30.0640 O.2    79  LEU79      -0.2864
     64  CB        10.2380    1.6890   29.8930 C.3    79  LEU79       0.0297
     65  CG        11.1400    2.8930   30.1880 C.3    79  LEU79       0.0022
     66  CD1       11.0730    3.2750   31.6610 C.3    79  LEU79       0.0001
     67  CD2       12.5770    2.6070   29.7820 C.3    79  LEU79       0.0001
     68  N          5.2210    3.8620   31.9490 N.3    82  LEU82      -0.1231
     69  CA         5.7620    4.7000   33.0150 C.3    82  LEU82       0.1693
     70  C          6.0420    6.1120   32.5030 C.2    82  LEU82       0.2591
     71  O          5.8390    7.0950   33.2180 O.2    82  LEU82      -0.2718
     72  CB         7.0420    4.0890   33.5970 C.3    82  LEU82       0.0284
     73  CG         6.8990    2.9010   34.5540 C.3    82  LEU82       0.0019
     74  CD1        8.2550    2.4530   35.0830 C.3    82  LEU82       0.0001
     75  CD2        5.9630    3.2400   35.7070 C.3    82  LEU82       0.0001
     76  N          6.4920    6.2060   31.2560 N.am   83  MET83      -0.1979
     77  CA         6.8680    7.4910   30.6750 C.3    83  MET83       0.1605
     78  C          5.6700    8.3640   30.3110 C.2    83  MET83       0.2287
     79  O          5.6970    9.5740   30.5370 O.2    83  MET83      -0.2864
     80  CB         7.7420    7.2780   29.4400 C.3    83  MET83       0.0413
     81  CG         9.1810    6.9260   29.7680 C.3    83  MET83       0.0598
     82  SD        10.2030    6.7440   28.2950 S.3    83  MET83      -0.1393
     83  CE        11.8090    6.4830   29.0440 C.3    83  MET83       0.0692
     84  N          4.4180    9.7090   33.4970 N.3    86  LEU86      -0.1245
     85  CA         5.3160   10.7760   33.9260 C.3    86  LEU86       0.1561
     86  C          5.0730   12.0600   33.1420 C.2    86  LEU86       0.2260
     87  O          4.9970   13.1490   33.7120 O.2    86  LEU86      -0.2867
     88  CB         6.7740   10.3420   33.7590 C.3    86  LEU86       0.0270
     89  CG         7.8370   11.4210   33.9730 C.3    86  LEU86       0.0019
     90  CD1        7.8760   11.8520   35.4310 C.3    86  LEU86       0.0001
     91  CD2        9.2030   10.9350   33.5120 C.3    86  LEU86       0.0001
     92  N          1.7680   13.7000   34.1910 N.3    89  ARG89      -0.1245
     93  CA         1.8500   14.3530   35.4990 C.3    89  ARG89       0.1563
     94  C          2.6360   15.6640   35.4570 C.2    89  ARG89       0.2260
     95  O          2.4080   16.5570   36.2730 O.2    89  ARG89      -0.2867
     96  CB         2.4890   13.4160   36.5320 C.3    89  ARG89       0.0307
     97  CG         1.7180   12.1330   36.7940 C.3    89  ARG89       0.0489
     98  CD         2.2790   11.3700   37.9930 C.3    89  ARG89       0.2205
     99  NE         3.6690   10.9510   37.8110 N.pl3  89  ARG89      -0.0865
    100  CZ         4.0380    9.8050   37.2450 C.cat  89  ARG89       0.5346
    101  NH1        3.1220    8.9610   36.7890 N.pl3  89  ARG89       0.1354
    102  NH2        5.3250    9.5030   37.1280 N.pl3  89  ARG89       0.1354
    103  N          8.0260   13.0310   38.8230 N.3    99  PHE99      -0.1241
    104  CA         8.0250   11.5930   39.0650 C.3    99  PHE99       0.1605
    105  C          7.0640   11.2640   40.2000 C.2    99  PHE99       0.2264
    106  O          6.3500   10.2610   40.1630 O.2    99  PHE99      -0.2867
    107  CB         9.4340   11.0970   39.3900 C.3    99  PHE99       0.0534
    108  CG        10.3580   11.0860   38.2050 C.ar   99  PHE99      -0.0203
    109  CD1       10.4120    9.9860   37.3610 C.ar   99  PHE99      -0.0042
    110  CD2       11.1710   12.1740   37.9320 C.ar   99  PHE99      -0.0042
    111  CE1       11.2610    9.9710   36.2690 C.ar   99  PHE99      -0.0003
    112  CE2       12.0220   12.1650   36.8390 C.ar   99  PHE99      -0.0003
    113  CZ        12.0670   11.0610   36.0070 C.ar   99  PHE99      -0.0000
    114  N         21.6600   11.6010   31.4160 N.3   114  MET114     -0.1245
    115  CA        20.2020   11.5750   31.4370 C.3   114  MET114      0.1570
    116  C         19.6190   12.9200   31.0140 C.2   114  MET114      0.2261
    117  O         18.4080   13.1300   31.0820 O.2   114  MET114     -0.2867
    118  CB        19.6930   11.1950   32.8290 C.3   114  MET114      0.0387
    119  CG        18.1950   11.0640   32.8240 C.3   114  MET114      0.0595
    120  SD        17.6200   10.2470   34.2850 S.3   114  MET114     -0.1393
    121  CE        17.1860   11.6640   35.2450 C.3   114  MET114      0.0692
    122  N         17.5390   12.4640   27.7320 N.3   117  ILE117     -0.1245
    123  CA        16.2600   11.8340   28.0390 C.3   117  ILE117      0.1561
    124  C         15.3070   12.8490   28.6560 C.2   117  ILE117      0.2260
    125  O         14.1110   12.8580   28.3620 O.2   117  ILE117     -0.2867
    126  CB        16.4300   10.6460   29.0090 C.3   117  ILE117      0.0252
    127  CG1       17.5790    9.7430   28.5570 C.3   117  ILE117      0.0019
    128  CG2       15.1330    9.8600   29.1290 C.3   117  ILE117      0.0019
    129  CD1       17.3810    9.1480   27.1910 C.3   117  ILE117      0.0001
    130  N         11.5570   14.1510   27.3170 N.3   121  LEU121     -0.1245
    131  CA        10.3880   13.9470   28.1670 C.3   121  LEU121      0.1561
    132  C          9.6310   15.2570   28.3820 C.2   121  LEU121      0.2260
    133  O          8.4010   15.2780   28.3720 O.2   121  LEU121     -0.2867
    134  CB        10.8000   13.3380   29.5120 C.3   121  LEU121      0.0270
    135  CG        11.1660   11.8500   29.4850 C.3   121  LEU121      0.0019
    136  CD1       11.8210   11.4170   30.7860 C.3   121  LEU121      0.0001
    137  CD2        9.9360   11.0010   29.2030 C.3   121  LEU121      0.0001
    138  N         15.8240    5.1710   27.1860 N.3   203  GLY203     -0.1225
    139  CA        15.8220    4.9970   28.6270 C.3   203  GLY203      0.1811
    140  C         16.2680    3.6040   29.0220 C.2   203  GLY203      0.2280
    141  O         16.9610    3.4250   30.0220 O.2   203  GLY203     -0.2866
    142  N         19.9220    3.5200   28.7610 N.3   206  HIS206     -0.1226
    143  CA        20.4340    4.2430   29.9180 C.3   206  HIS206      0.1752
    144  C         20.3920    3.3830   31.1780 C.2   206  HIS206      0.2595
    145  O         21.2780    3.4600   32.0240 O.2   206  HIS206     -0.2718
    146  CB        19.6290    5.5270   30.1230 C.3   206  HIS206      0.0759
    147  CG        20.1390    6.4000   31.2290 C.ar  206  HIS206      0.0818
    148  ND1       19.3940    6.6820   32.3540 N.ar  206  HIS206     -0.2268
    149  CD2       21.3110    7.0600   31.3780 C.ar  206  HIS206      0.1154
    150  CE1       20.0880    7.4750   33.1510 C.ar  206  HIS206      0.1986
    151  NE2       21.2550    7.7190   32.5830 N.ar  206  HIS206     -0.2212
    152  N         19.3590    2.5560   31.2900 N.am  207  LEU207     -0.1980
    153  CA        19.2200    1.6530   32.4290 C.3   207  LEU207      0.1596
    154  C         20.2730    0.5510   32.3850 C.2   207  LEU207      0.2287
    155  O         20.7680    0.1160   33.4220 O.2   207  LEU207     -0.2864
    156  CB        17.8150    1.0410   32.4700 C.3   207  LEU207      0.0297
    157  CG        16.6730    1.9850   32.8540 C.3   207  LEU207      0.0022
    158  CD1       15.3410    1.2500   32.8390 C.3   207  LEU207      0.0001
    159  CD2       16.9250    2.6140   34.2160 C.3   207  LEU207      0.0001
    160  N         18.6020   -2.5020   41.5840 N.3   218  LEU218     -0.1245
    161  CA        17.3410   -2.9450   41.0020 C.3   218  LEU218      0.1561
    162  C         16.7390   -4.1340   41.7430 C.2   218  LEU218      0.2260
    163  O         17.4560   -4.9490   42.3220 O.2   218  LEU218     -0.2867
    164  CB        17.5450   -3.3060   39.5300 C.3   218  LEU218      0.0270
    165  CG        18.0940   -2.1950   38.6340 C.3   218  LEU218      0.0019
    166  CD1       18.5960   -2.7690   37.3200 C.3   218  LEU218      0.0001
    167  CD2       17.0320   -1.1380   38.3840 C.3   218  LEU218      0.0001
    168  N         12.3000   -5.5880   38.3960 N.3   222  LEU222     -0.1245
    169  CA        12.8700   -4.6540   37.4280 C.3   222  LEU222      0.1561
    170  C         13.9440   -5.3110   36.5670 C.2   222  LEU222      0.2260
    171  O         14.0220   -5.0590   35.3640 O.2   222  LEU222     -0.2867
    172  CB        13.4440   -3.4300   38.1430 C.3   222  LEU222      0.0270
    173  CG        12.4510   -2.3010   38.4250 C.3   222  LEU222      0.0019
    174  CD1       13.0500   -1.2780   39.3740 C.3   222  LEU222      0.0001
    175  CD2       12.0320   -1.6370   37.1260 C.3   222  LEU222      0.0001
@<TRIPOS>BOND
     1   138   139    1
     2   129   127    1
     3   130   131    1
     4   122   123    1
     5   123   124    1
     6   123   126    1
     7   131   132    1
     8   131   134    1
     9    82    83    1
    10    82    81    1
    11   125   124    2
    12   133   132    2
    13   127   126    1
    14   139   140    1
    15   142   143    1
    16   126   128    1
    17   140   141    2
    18   137   135    1
    19    80    81    1
    20    80    77    1
    21   135   134    1
    22   135   136    1
    23    46    47    1
    24    62    63    2
    25    62    61    1
    26    67    65    1
    27    64    65    1
    28    64    61    1
    29   143   146    1
    30   143   144    1
    31   146   147    1
    32    65    66    1
    33    78    79    2
    34    78    77    1
    35    60    61    1
    36    60    48   am
    37    77    76    1
    38    52    54   ar
    39    52    51   ar
    40    47    48    1
    41    47    50    1
    42    54    55   ar
    43    48    49    2
    44   116   117    2
    45   116   115    1
    46   144   152   am
    47   144   145    2
    48   147   149   ar
    49   147   148   ar
    50    76    70   am
    51   152   153    1
    52   149   151   ar
    53   114   115    1
    54   115   118    1
    55    51    50    1
    56    51    53   ar
    57    55    57   ar
    58    55    53   ar
    59    68    69    1
    60    57    59   ar
    61    53    56   ar
    62   148   150   ar
    63   154   153    1
    64   154   155    2
    65   153   156    1
    66   156   157    1
    67    70    69    1
    68    70    71    2
    69   151   150   ar
    70   119   118    1
    71   119   120    1
    72   158   157    1
    73   157   159    1
    74    69    72    1
    75    86    87    2
    76    86    85    1
    77    59    58   ar
    78    56    58   ar
    79    84    85    1
    80    91    89    1
    81    72    73    1
    82    88    85    1
    83    88    89    1
    84    89    90    1
    85    92    93    1
    86   120   121    1
    87    73    74    1
    88    73    75    1
    89   171   170    2
    90    94    93    1
    91    94    95    2
    92    93    96    1
    93   113   111   ar
    94   113   112   ar
    95   111   109   ar
    96    96    97    1
    97   170   169    1
    98   101   100    1
    99    97    98    1
   100   112   110   ar
   101   175   173    1
   102   102   100    1
   103   100    99    2
   104   166   165    1
   105   109   108   ar
   106   169   172    1
   107   169   168    1
   108     7     8    1
   109     7     6    1
   110    99    98    1
   111   110   108   ar
   112   172   173    1
   113   108   107    1
   114    45    43   ar
   115   167   165    1
   116    15    14    1
   117   173   174    1
   118    36    33    1
   119   165   164    1
   120    44    43   ar
   121     6     5    1
   122   103   104    1
   123    40    39    2
   124    43    42    1
   125   104   107    1
   126   104   105    1
   127    41    42    1
   128    41    38    1
   129    35    34    2
   130    39    38    1
   131    33    34    1
   132    33    32    1
   133   164   161    1
   134    16    14    1
   135    14    13    1
   136    13    10    1
   137   106   105    2
   138    38    37    1
   139     5     2    1
   140    22    21    1
   141    12    11    2
   142    32    26   am
   143    11    10    1
   144    11    17   am
   145     2     1    1
   146     2     3    1
   147    10     9    1
   148   161   160    1
   149   161   162    1
   150    18    17    1
   151    18    21    1
   152    18    19    1
   153    31    29    1
   154    23    21    1
   155     4     3    2
   156    20    19    2
   157    26    27    2
   158    26    25    1
   159   162   163    2
   160    29    28    1
   161    29    30    1
   162    28    25    1
   163    25    24    1
