@<TRIPOS>MOLECULE
tmp/5dxqB00.pdb
 117 109 0 0 0
SMALL
GASTEIGER

@<TRIPOS>ATOM
      1  N          1.9930   -2.5400   37.6660 N.3    52  VAL52      -0.1245
      2  CA         0.9760   -3.3760   38.2920 C.3    52  VAL52       0.1561
      3  C         -0.4230   -2.8460   37.9910 C.2    52  VAL52       0.2260
      4  O         -1.3620   -3.6170   37.7870 O.2    52  VAL52      -0.2867
      5  CB         1.1790   -3.4600   39.8170 C.3    52  VAL52       0.0252
      6  CG1        0.1940   -4.4380   40.4320 C.3    52  VAL52       0.0019
      7  CG2        2.6080   -3.8760   40.1370 C.3    52  VAL52       0.0019
      8  N         -1.1620   -3.4130   34.0230 N.3    55  ILE55      -0.1231
      9  CA        -1.5600   -4.7800   33.7160 C.3    55  ILE55       0.1692
     10  C         -3.0390   -4.9920   34.0130 C.2    55  ILE55       0.2592
     11  O         -3.7640   -5.5870   33.2170 O.2    55  ILE55      -0.2718
     12  CB        -0.7190   -5.7970   34.5100 C.3    55  ILE55       0.0266
     13  CG1        0.7450   -5.7190   34.0770 C.3    55  ILE55       0.0019
     14  CG2       -1.2540   -7.2090   34.3140 C.3    55  ILE55       0.0020
     15  CD1        1.6940   -6.4490   34.9960 C.3    55  ILE55       0.0001
     16  N         -3.4860   -4.4890   35.1580 N.am   56  ASN56      -0.1974
     17  CA        -4.8920   -4.5850   35.5180 C.3    56  ASN56       0.1688
     18  C         -5.7390   -3.5940   34.7270 C.2    56  ASN56       0.2292
     19  O         -6.9350   -3.8100   34.5350 O.2    56  ASN56      -0.2864
     20  CB        -5.0730   -4.3690   37.0210 C.3    56  ASN56       0.1181
     21  CG        -4.4940   -5.5020   37.8420 C.2    56  ASN56       0.2629
     22  OD1       -5.1170   -6.5530   37.9930 O.2    56  ASN56      -0.2716
     23  ND2       -3.2950   -5.2970   38.3750 N.am   56  ASN56      -0.0877
     24  N         -6.5050   -5.2140   31.2990 N.3    59  LYS59      -0.1245
     25  CA        -7.5950   -6.1780   31.4060 C.3    59  LYS59       0.1561
     26  C         -8.9550   -5.4860   31.4130 C.2    59  LYS59       0.2260
     27  O         -9.9880   -6.1340   31.2650 O.2    59  LYS59      -0.2867
     28  CB        -7.4340   -7.0320   32.6660 C.3    59  LYS59       0.0271
     29  CG        -6.1730   -7.8810   32.6800 C.3    59  LYS59       0.0035
     30  CD        -6.1430   -8.8280   33.8710 C.3    59  LYS59       0.0206
     31  CE        -6.0910   -8.0710   35.1880 C.3    59  LYS59       0.1093
     32  NZ        -5.9170   -8.9910   36.3460 N.3    59  LYS59      -0.1314
     33  N         -9.3210   -6.7790   25.1090 N.3    64  PHE64      -0.1241
     34  CA        -8.0450   -7.3200   25.5660 C.3    64  PHE64       0.1605
     35  C         -8.2250   -8.6330   26.3230 C.2    64  PHE64       0.2264
     36  O         -7.3350   -9.4830   26.3290 O.2    64  PHE64      -0.2867
     37  CB        -7.3260   -6.2970   26.4460 C.3    64  PHE64       0.0534
     38  CG        -5.8870   -6.6290   26.7150 C.ar   64  PHE64      -0.0203
     39  CD1       -5.5080   -7.2190   27.9080 C.ar   64  PHE64      -0.0042
     40  CD2       -4.9120   -6.3450   25.7740 C.ar   64  PHE64      -0.0042
     41  CE1       -4.1830   -7.5210   28.1580 C.ar   64  PHE64      -0.0003
     42  CE2       -3.5850   -6.6460   26.0180 C.ar   64  PHE64      -0.0003
     43  CZ        -3.2210   -7.2340   27.2110 C.ar   64  PHE64      -0.0000
     44  N         -3.8340  -15.6210   26.6490 N.3    69  LEU69      -0.1245
     45  CA        -2.8880  -15.2140   27.6810 C.3    69  LEU69       0.1561
     46  C         -1.5350  -14.8900   27.0520 C.2    69  LEU69       0.2260
     47  O         -0.8540  -13.9540   27.4700 O.2    69  LEU69      -0.2867
     48  CB        -2.7450  -16.3120   28.7420 C.3    69  LEU69       0.0270
     49  CG        -2.0310  -15.9980   30.0630 C.3    69  LEU69       0.0019
     50  CD1       -0.5240  -16.2190   29.9660 C.3    69  LEU69       0.0001
     51  CD2       -2.3390  -14.5770   30.5190 C.3    69  LEU69       0.0001
     52  N         -1.7570  -11.4600   25.1900 N.3    72  GLN72      -0.1231
     53  CA        -1.8240  -10.3680   26.1540 C.3    72  GLN72       0.1698
     54  C         -0.4370  -10.0320   26.6850 C.2    72  GLN72       0.2592
     55  O         -0.0860   -8.8630   26.8390 O.2    72  GLN72      -0.2718
     56  CB        -2.7630  -10.7250   27.3080 C.3    72  GLN72       0.0381
     57  CG        -4.2280  -10.8120   26.9100 C.3    72  GLN72       0.0905
     58  CD        -5.1090  -11.3130   28.0370 C.2    72  GLN72       0.2608
     59  OE1       -4.6540  -11.4830   29.1680 O.2    72  GLN72      -0.2717
     60  NE2       -6.3790  -11.5580   27.7310 N.am   72  GLN72      -0.0878
     61  N          0.3480  -11.0700   26.9570 N.am   73  VAL73      -0.1980
     62  CA         1.7210  -10.9060   27.4210 C.3    73  VAL73       0.1595
     63  C          2.5640  -10.1880   26.3720 C.2    73  VAL73       0.2287
     64  O          3.3200   -9.2700   26.6900 O.2    73  VAL73      -0.2864
     65  CB         2.3670  -12.2680   27.7600 C.3    73  VAL73       0.0276
     66  CG1        3.8730  -12.1290   27.9280 C.3    73  VAL73       0.0022
     67  CG2        1.7390  -12.8540   29.0150 C.3    73  VAL73       0.0022
     68  N          1.6890   -6.3860   26.0190 N.3    76  LEU76      -0.1231
     69  CA         2.1590   -5.6080   27.1590 C.3    76  LEU76       0.1693
     70  C          3.6820   -5.5240   27.1840 C.2    76  LEU76       0.2591
     71  O          4.2430   -4.4920   27.5500 O.2    76  LEU76      -0.2718
     72  CB         1.6410   -6.2040   28.4700 C.3    76  LEU76       0.0284
     73  CG         0.2350   -5.7690   28.8820 C.3    76  LEU76       0.0019
     74  CD1       -0.2410   -6.5530   30.0940 C.3    76  LEU76       0.0001
     75  CD2        0.2120   -4.2740   29.1660 C.3    76  LEU76       0.0001
     76  N          4.3460   -6.6070   26.7920 N.am   77  GLU77      -0.1979
     77  CA         5.8030   -6.6250   26.7330 C.3    77  GLU77       0.1602
     78  C          6.3290   -5.6280   25.7100 C.2    77  GLU77       0.2287
     79  O          7.4000   -5.0500   25.8860 O.2    77  GLU77      -0.2864
     80  CB         6.3160   -8.0260   26.3960 C.3    77  GLU77       0.0415
     81  CG         6.3860   -8.9710   27.5850 C.3    77  GLU77       0.1163
     82  CD         6.8650  -10.3570   27.2000 C.2    77  GLU77       0.3649
     83  OE1        7.3020  -11.1050   28.0990 O.co2  77  GLU77      -0.2457
     84  OE2        6.8020  -10.6990   26.0000 O.co2  77  GLU77      -0.2457
     85  N         12.1960   -7.1790   39.5830 N.3   222  ASP222     -0.1225
     86  CA        12.1090   -8.4560   38.8830 C.3   222  ASP222      0.1805
     87  C         11.1670   -8.3930   37.6830 C.2   222  ASP222      0.2597
     88  O         11.3850   -9.0730   36.6800 O.2   222  ASP222     -0.2718
     89  CB        11.6610   -9.5580   39.8450 C.3   222  ASP222      0.1424
     90  CG        12.6430   -9.7760   40.9800 C.2   222  ASP222      0.3668
     91  OD1       13.8130   -9.3610   40.8420 O.co2 222  ASP222     -0.2456
     92  OD2       12.2450  -10.3640   42.0070 O.co2 222  ASP222     -0.2456
     93  N         10.1250   -7.5730   37.7820 N.am  223  LEU223     -0.1979
     94  CA         9.1810   -7.4200   36.6800 C.3   223  LEU223      0.1596
     95  C          9.7820   -6.5810   35.5590 C.2   223  LEU223      0.2287
     96  O          9.6520   -6.9220   34.3850 O.2   223  LEU223     -0.2864
     97  CB         7.8750   -6.7890   37.1660 C.3   223  LEU223      0.0297
     98  CG         6.7970   -6.5620   36.1040 C.3   223  LEU223      0.0022
     99  CD1        6.4630   -7.8620   35.3870 C.3   223  LEU223      0.0001
    100  CD2        5.5490   -5.9520   36.7260 C.3   223  LEU223      0.0001
    101  N         12.0580   -8.5080   33.4220 N.3   226  GLU226     -0.1231
    102  CA        11.3240   -9.3560   32.4890 C.3   226  GLU226      0.1699
    103  C         10.8130   -8.5630   31.2910 C.2   226  GLU226      0.2592
    104  O         10.9300   -9.0080   30.1500 O.2   226  GLU226     -0.2718
    105  CB        10.1520  -10.0430   33.1920 C.3   226  GLU226      0.0402
    106  CG        10.5520  -11.1410   34.1590 C.3   226  GLU226      0.1161
    107  CD         9.3570  -11.9260   34.6630 C.2   226  GLU226      0.3649
    108  OE1        8.2130  -11.5220   34.3640 O.co2 226  GLU226     -0.2457
    109  OE2        9.5610  -12.9480   35.3520 O.co2 226  GLU226     -0.2457
    110  N         10.2410   -7.3910   31.5580 N.am  227  MET227     -0.1979
    111  CA         9.7020   -6.5430   30.5000 C.3   227  MET227      0.1605
    112  C         10.8160   -6.0500   29.5830 C.2   227  MET227      0.2287
    113  O         10.6100   -5.8570   28.3850 O.2   227  MET227     -0.2864
    114  CB         8.9450   -5.3480   31.0890 C.3   227  MET227      0.0413
    115  CG         7.8880   -5.7010   32.1260 C.3   227  MET227      0.0598
    116  SD         6.5180   -6.6830   31.4900 S.3   227  MET227     -0.1393
    117  CE         5.6700   -5.4840   30.4660 C.3   227  MET227      0.0692
@<TRIPOS>BOND
     1    33    34    1
     2    52    53    1
     3    34    35    1
     4    34    37    1
     5    78    79    2
     6    78    77    1
     7    40    42   ar
     8    40    38   ar
     9    84    82   ar
    10    42    43   ar
    11    68    69    1
    12    53    54    1
    13    53    56    1
    14    35    36    2
    15    63    64    2
    16    63    62    1
    17    80    77    1
    18    80    81    1
    19    37    38    1
    20    44    45    1
    21    54    55    2
    22    54    61   am
    23    38    39   ar
    24    77    76    1
    25    76    70   am
    26    57    56    1
    27    57    58    1
    28    61    62    1
    29    46    47    2
    30    46    45    1
    31    69    70    1
    32    69    72    1
    33    70    71    2
    34    82    81    1
    35    82    83   ar
    36    43    41   ar
    37    62    65    1
    38    45    48    1
    39    60    58   am
    40    65    66    1
    41    65    67    1
    42    39    41   ar
    43    58    59    2
    44   113   112    2
    45    72    73    1
    46    48    49    1
    47    73    75    1
    48    73    74    1
    49   112   111    1
    50    50    49    1
    51    49    51    1
    52   104   103    2
    53   117   116    1
    54   111   114    1
    55   111   110    1
    56   114   115    1
    57    27    26    2
    58   103   110   am
    59   103   102    1
    60    24    25    1
    61    25    26    1
    62    25    28    1
    63   116   115    1
    64   102   105    1
    65   102   101    1
    66    28    29    1
    67    29    30    1
    68   105   106    1
    69    11    10    2
    70     9    10    1
    71     9     8    1
    72     9    12    1
    73    30    31    1
    74    10    16   am
    75    13    12    1
    76    13    15    1
    77   106   107    1
    78    14    12    1
    79   108   107   ar
    80    96    95    2
    81    19    18    2
    82   107   109   ar
    83    18    17    1
    84    16    17    1
    85    31    32    1
    86    99    98    1
    87    17    20    1
    88    95    94    1
    89    98   100    1
    90    98    97    1
    91    88    87    2
    92    94    97    1
    93    94    93    1
    94    20    21    1
    95     1     2    1
    96    87    93   am
    97    87    86    1
    98     4     3    2
    99    21    22    2
   100    21    23   am
   101     3     2    1
   102     2     5    1
   103    86    85    1
   104    86    89    1
   105     5     7    1
   106     5     6    1
   107    89    90    1
   108    91    90   ar
   109    90    92   ar
