@<TRIPOS>MOLECULE
tmp/5dxrB01.pdb
 194 182 0 0 0
SMALL
GASTEIGER

@<TRIPOS>ATOM
      1  N         17.7140    7.1790   39.7020 N.3    39  MET39      -0.1245
      2  CA        17.3120    6.0220   38.9150 C.3    39  MET39       0.1570
      3  C         16.7110    4.9560   39.8210 C.2    39  MET39       0.2261
      4  O         15.8580    4.1800   39.3960 O.2    39  MET39      -0.2867
      5  CB        18.5000    5.4540   38.1380 C.3    39  MET39       0.0387
      6  CG        19.0490    6.3890   37.0740 C.3    39  MET39       0.0595
      7  SD        17.7800    6.9500   35.9210 S.3    39  MET39      -0.1393
      8  CE        17.1980    5.3900   35.2630 C.3    39  MET39       0.0692
      9  N         13.1440    6.1430   40.3830 N.3    42  LEU42      -0.1231
     10  CA        12.3920    5.9290   39.1520 C.3    42  LEU42       0.1693
     11  C         12.1230    4.4470   38.9100 C.2    42  LEU42       0.2592
     12  O         11.0500    4.0740   38.4360 O.2    42  LEU42      -0.2718
     13  CB        13.1410    6.5320   37.9590 C.3    42  LEU42       0.0284
     14  CG        12.8880    7.9990   37.5920 C.3    42  LEU42       0.0019
     15  CD1       12.8370    8.9030   38.8160 C.3    42  LEU42       0.0001
     16  CD2       13.9490    8.4870   36.6160 C.3    42  LEU42       0.0001
     17  N         13.1010    3.6070   39.2380 N.am   43  THR43      -0.1953
     18  CA        12.9500    2.1630   39.0940 C.3    43  THR43       0.1897
     19  C         11.8760    1.6370   40.0410 C.2    43  THR43       0.2313
     20  O         11.0130    0.8550   39.6420 O.2    43  THR43      -0.2863
     21  CB        14.2740    1.4230   39.3620 C.3    43  THR43       0.1794
     22  OG1       15.2440    1.8070   38.3790 O.3    43  THR43      -0.2208
     23  CG2       14.0710   -0.0830   39.3040 C.3    43  THR43       0.0378
     24  N          9.4780    3.4070   41.3490 N.3    45  LEU45      -0.1231
     25  CA         8.2270    3.9980   40.8910 C.3    45  LEU45       0.1693
     26  C          7.6170    3.2110   39.7350 C.2    45  LEU45       0.2591
     27  O          6.4500    2.8210   39.7870 O.2    45  LEU45      -0.2718
     28  CB         8.4530    5.4510   40.4710 C.3    45  LEU45       0.0284
     29  CG         7.2600    6.1830   39.8580 C.3    45  LEU45       0.0019
     30  CD1        6.1570    6.3770   40.8870 C.3    45  LEU45       0.0001
     31  CD2        7.6980    7.5170   39.2740 C.3    45  LEU45       0.0001
     32  N          8.4160    2.9830   38.6970 N.am   46  ALA46      -0.1980
     33  CA         7.9620    2.2710   37.5070 C.3    46  ALA46       0.1597
     34  C          7.4960    0.8570   37.8390 C.2    46  ALA46       0.2287
     35  O          6.4900    0.3870   37.3080 O.2    46  ALA46      -0.2864
     36  CB         9.0710    2.2280   36.4630 C.3    46  ALA46       0.0319
     37  N          4.1470    1.0610   39.1940 N.3    49  GLU49      -0.1245
     38  CA         3.2330    1.4570   38.1260 C.3    49  GLU49       0.1567
     39  C          2.8630    0.2740   37.2390 C.2    49  GLU49       0.2260
     40  O          1.7410    0.1890   36.7380 O.2    49  GLU49      -0.2867
     41  CB         3.8440    2.5650   37.2680 C.3    49  GLU49       0.0388
     42  CG         3.8910    3.9280   37.9280 C.3    49  GLU49       0.1160
     43  CD         4.3570    5.0070   36.9700 C.2    49  GLU49       0.3649
     44  OE1        5.5840    5.1910   36.8330 O.co2  49  GLU49      -0.2457
     45  OE2        3.4970    5.6640   36.3460 O.co2  49  GLU49      -0.2457
     46  N          5.1290   -1.6100   27.4340 N.3    79  TRP79      -0.1227
     47  CA         5.0950   -1.1360   28.8210 C.3    79  TRP79       0.1737
     48  C          5.8210    0.1950   29.0260 C.2    79  TRP79       0.2595
     49  O          5.3400    1.0560   29.7610 O.2    79  TRP79      -0.2718
     50  CB         5.6760   -2.1910   29.7690 C.3    79  TRP79       0.0564
     51  CG         7.1510   -2.4300   29.6310 C.ar   79  TRP79       0.0003
     52  CD1        7.7630   -3.3240   28.8030 C.ar   79  TRP79       0.0946
     53  CD2        8.1980   -1.7770   30.3610 C.ar   79  TRP79       0.0152
     54  NE1        9.1260   -3.2650   28.9650 N.ar   79  TRP79      -0.2442
     55  CE2        9.4190   -2.3220   29.9160 C.ar   79  TRP79       0.0810
     56  CE3        8.2220   -0.7820   31.3430 C.ar   79  TRP79       0.0012
     57  CZ2       10.6500   -1.9050   30.4180 C.ar   79  TRP79       0.0191
     58  CZ3        9.4460   -0.3700   31.8400 C.ar   79  TRP79       0.0001
     59  CH2       10.6430   -0.9310   31.3770 C.ar   79  TRP79       0.0015
     60  N          6.9660    0.3710   28.3740 N.am   80  LEU80      -0.1980
     61  CA         7.7200    1.6110   28.5180 C.3    80  LEU80       0.1596
     62  C          7.0470    2.7460   27.7510 C.2    80  LEU80       0.2287
     63  O          7.0350    3.8880   28.2090 O.2    80  LEU80      -0.2864
     64  CB         9.1640    1.4320   28.0480 C.3    80  LEU80       0.0297
     65  CG        10.0880    2.6230   28.3120 C.3    80  LEU80       0.0022
     66  CD1        9.9470    3.1010   29.7510 C.3    80  LEU80       0.0001
     67  CD2       11.5330    2.2630   28.0060 C.3    80  LEU80       0.0001
     68  N          4.2050    3.7870   29.9710 N.3    83  LEU83      -0.1231
     69  CA         4.7580    4.5520   31.0830 C.3    83  LEU83       0.1693
     70  C          5.1400    5.9570   30.6320 C.2    83  LEU83       0.2591
     71  O          4.9280    6.9300   31.3550 O.2    83  LEU83      -0.2718
     72  CB         5.9800    3.8510   31.6830 C.3    83  LEU83       0.0284
     73  CG         5.7440    2.6440   32.5940 C.3    83  LEU83       0.0019
     74  CD1        7.0620    2.1050   33.1230 C.3    83  LEU83       0.0001
     75  CD2        4.8180    3.0130   33.7400 C.3    83  LEU83       0.0001
     76  N          5.6950    6.0540   29.4280 N.am   84  MET84      -0.1979
     77  CA         6.1910    7.3260   28.9140 C.3    84  MET84       0.1605
     78  C          5.0800    8.2920   28.5120 C.2    84  MET84       0.2287
     79  O          5.1750    9.4860   28.7870 O.2    84  MET84      -0.2864
     80  CB         7.1230    7.0930   27.7220 C.3    84  MET84       0.0413
     81  CG         8.5410    6.7070   28.1160 C.3    84  MET84       0.0598
     82  SD         9.6410    6.5430   26.6980 S.3    84  MET84      -0.1393
     83  CE        11.1920    6.1840   27.5200 C.3    84  MET84       0.0692
     84  N          3.6840    9.6230   31.6760 N.3    87  LEU87      -0.1245
     85  CA         4.5740   10.6500   32.2070 C.3    87  LEU87       0.1561
     86  C          4.3910   11.9760   31.4810 C.2    87  LEU87       0.2260
     87  O          4.3280   13.0370   32.1040 O.2    87  LEU87      -0.2867
     88  CB         6.0320   10.1960   32.0980 C.3    87  LEU87       0.0270
     89  CG         7.1030   11.2360   32.4350 C.3    87  LEU87       0.0019
     90  CD1        6.9760   11.6830   33.8810 C.3    87  LEU87       0.0001
     91  CD2        8.4940   10.6880   32.1610 C.3    87  LEU87       0.0001
     92  N          1.0340   13.6420   32.4080 N.3    90  ARG90      -0.1245
     93  CA         1.0650   14.2490   33.7370 C.3    90  ARG90       0.1563
     94  C          1.8530   15.5550   33.7360 C.2    90  ARG90       0.2260
     95  O          1.5820   16.4530   34.5320 O.2    90  ARG90      -0.2867
     96  CB         1.6690   13.2850   34.7640 C.3    90  ARG90       0.0307
     97  CG         0.9380   11.9590   34.9020 C.3    90  ARG90       0.0489
     98  CD         1.3580   11.2250   36.1700 C.3    90  ARG90       0.2205
     99  NE         2.7900   10.9310   36.2030 N.pl3  90  ARG90      -0.0865
    100  CZ         3.3360    9.8120   35.7360 C.cat  90  ARG90       0.5346
    101  NH1        2.5710    8.8750   35.1920 N.pl3  90  ARG90       0.1354
    102  NH2        4.6460    9.6300   35.8110 N.pl3  90  ARG90       0.1354
    103  N          7.2230   12.9550   37.2390 N.3   100  PHE100     -0.1241
    104  CA         7.2990   11.5210   37.4900 C.3   100  PHE100      0.1605
    105  C          6.3200   11.1380   38.5900 C.2   100  PHE100      0.2264
    106  O          5.7500   10.0470   38.5870 O.2   100  PHE100     -0.2867
    107  CB         8.7220   11.1120   37.8740 C.3   100  PHE100      0.0534
    108  CG         9.6930   11.1520   36.7310 C.ar  100  PHE100     -0.0203
    109  CD1        9.8860   10.0380   35.9330 C.ar  100  PHE100     -0.0042
    110  CD2       10.4100   12.3040   36.4500 C.ar  100  PHE100     -0.0042
    111  CE1       10.7780   10.0690   34.8800 C.ar  100  PHE100     -0.0003
    112  CE2       11.3040   12.3410   35.3960 C.ar  100  PHE100     -0.0003
    113  CZ        11.4880   11.2210   34.6100 C.ar  100  PHE100     -0.0000
    114  N         21.0880   10.6070   29.1790 N.3   117  MET117     -0.1245
    115  CA        19.6570   10.5400   29.4460 C.3   117  MET117      0.1570
    116  C         18.9840   11.8880   29.1900 C.2   117  MET117      0.2261
    117  O         17.7570   11.9830   29.1500 O.2   117  MET117     -0.2867
    118  CB        19.4110   10.0820   30.8870 C.3   117  MET117      0.0387
    119  CG        17.9840    9.6420   31.1800 C.3   117  MET117      0.0595
    120  SD        17.7720    9.0820   32.8800 S.3   117  MET117     -0.1393
    121  CE        15.9900    9.1520   33.0440 C.3   117  MET117      0.0692
    122  N         16.8000   11.9570   25.9070 N.3   120  ILE120     -0.1231
    123  CA        15.5150   11.3080   26.1440 C.3   120  ILE120      0.1692
    124  C         14.6130   12.2370   26.9500 C.2   120  ILE120      0.2592
    125  O         13.4070   12.3130   26.7170 O.2   120  ILE120     -0.2718
    126  CB        15.6840    9.9680   26.8900 C.3   120  ILE120      0.0266
    127  CG1       16.5780    9.0180   26.0910 C.3   120  ILE120      0.0019
    128  CG2       14.3330    9.3220   27.1510 C.3   120  ILE120      0.0020
    129  CD1       16.7760    7.6670   26.7480 C.3   120  ILE120      0.0001
    130  N         15.2220   12.9510   27.8920 N.am  121  PHE121     -0.1976
    131  CA        14.5170   13.9250   28.7150 C.3   121  PHE121      0.1639
    132  C         13.9340   15.0430   27.8540 C.2   121  PHE121      0.2290
    133  O         12.7850   15.4440   28.0360 O.2   121  PHE121     -0.2864
    134  CB        15.4620   14.5060   29.7690 C.3   121  PHE121      0.0560
    135  CG        14.7840   14.9020   31.0490 C.ar  121  PHE121     -0.0200
    136  CD1       14.1500   16.1280   31.1670 C.ar  121  PHE121     -0.0042
    137  CD2       14.7940   14.0510   32.1420 C.ar  121  PHE121     -0.0042
    138  CE1       13.5320   16.4930   32.3500 C.ar  121  PHE121     -0.0003
    139  CE2       14.1790   14.4100   33.3260 C.ar  121  PHE121     -0.0003
    140  CZ        13.5470   15.6330   33.4300 C.ar  121  PHE121     -0.0000
    141  N         10.9330   13.8640   25.7200 N.3   124  LEU124     -0.1245
    142  CA         9.7180   13.7900   26.5220 C.3   124  LEU124      0.1561
    143  C          9.1210   15.1780   26.7240 C.2   124  LEU124      0.2260
    144  O          7.9060   15.3580   26.6390 O.2   124  LEU124     -0.2867
    145  CB        10.0070   13.1350   27.8730 C.3   124  LEU124      0.0270
    146  CG        10.3550   11.6450   27.8300 C.3   124  LEU124      0.0019
    147  CD1       11.0750   11.2260   29.1010 C.3   124  LEU124      0.0001
    148  CD2        9.1060   10.8070   27.6160 C.3   124  LEU124      0.0001
    149  N         15.0030    4.6040   25.4020 N.3   209  GLY209     -0.1225
    150  CA        14.9410    4.3510   26.8290 C.3   209  GLY209      0.1811
    151  C         15.2700    2.9100   27.1630 C.2   209  GLY209      0.2280
    152  O         15.9700    2.6350   28.1380 O.2   209  GLY209     -0.2866
    153  N         18.9220    2.4290   27.2420 N.3   212  HIS212     -0.1226
    154  CA        19.5400    3.0290   28.4180 C.3   212  HIS212      0.1752
    155  C         19.3520    2.1460   29.6470 C.2   212  HIS212      0.2595
    156  O         20.2300    2.0700   30.5070 O.2   212  HIS212     -0.2718
    157  CB        18.9660    4.4200   28.6810 C.3   212  HIS212      0.0759
    158  CG        19.5150    5.0740   29.9110 C.ar  212  HIS212      0.0818
    159  ND1       20.8220    5.5000   30.0060 N.ar  212  HIS212     -0.2268
    160  CD2       18.9360    5.3680   31.0990 C.ar  212  HIS212      0.1154
    161  CE1       21.0250    6.0300   31.1990 C.ar  212  HIS212      0.1986
    162  NE2       19.8960    5.9640   31.8810 N.ar  212  HIS212     -0.2212
    163  N         18.2050    1.4800   29.7240 N.am  213  LEU213     -0.1980
    164  CA        17.9060    0.6060   30.8520 C.3   213  LEU213      0.1596
    165  C         18.7300   -0.6770   30.7990 C.2   213  LEU213      0.2287
    166  O         19.1280   -1.2070   31.8370 O.2   213  LEU213     -0.2864
    167  CB        16.4140    0.2710   30.8950 C.3   213  LEU213      0.0297
    168  CG        15.4700    1.4380   31.1950 C.3   213  LEU213      0.0022
    169  CD1       14.0320    0.9530   31.2790 C.3   213  LEU213      0.0001
    170  CD2       15.8790    2.1430   32.4790 C.3   213  LEU213      0.0001
    171  N         22.1380    0.1570   32.0160 N.3   216  MET216     -0.1245
    172  CA        22.1480    0.3380   33.4620 C.3   216  MET216      0.1570
    173  C         22.2010   -1.0010   34.1910 C.2   216  MET216      0.2261
    174  O         22.7860   -1.1050   35.2680 O.2   216  MET216     -0.2867
    175  CB        20.9200    1.1350   33.9070 C.3   216  MET216      0.0387
    176  CG        21.0960    1.8460   35.2390 C.3   216  MET216      0.0595
    177  SD        19.6250    2.7550   35.7450 S.3   216  MET216     -0.1393
    178  CE        18.4680    1.4120   35.9920 C.3   216  MET216      0.0692
    179  N         17.5800   -3.4920   39.1450 N.3   224  LEU224     -0.1245
    180  CA        16.2290   -3.5420   38.6030 C.3   224  LEU224      0.1561
    181  C         15.3960   -4.5780   39.3480 C.2   224  LEU224      0.2260
    182  O         15.9250   -5.5830   39.8220 O.2   224  LEU224     -0.2867
    183  CB        16.2590   -3.8650   37.1080 C.3   224  LEU224      0.0270
    184  CG        16.9870   -2.8690   36.2040 C.3   224  LEU224      0.0019
    185  CD1       17.0830   -3.4070   34.7870 C.3   224  LEU224      0.0001
    186  CD2       16.2810   -1.5240   36.2190 C.3   224  LEU224      0.0001
    187  N         10.7140   -5.8740   36.3340 N.3   228  LEU228     -0.1245
    188  CA        11.3500   -4.9530   35.3990 C.3   228  LEU228      0.1561
    189  C         12.4380   -5.6450   34.5820 C.2   228  LEU228      0.2260
    190  O         12.6450   -5.3260   33.4120 O.2   228  LEU228     -0.2867
    191  CB        11.9320   -3.7600   36.1590 C.3   228  LEU228      0.0270
    192  CG        11.8320   -2.3750   35.5230 C.3   228  LEU228      0.0019
    193  CD1       10.5740   -2.2530   34.6900 C.3   228  LEU228      0.0001
    194  CD2       11.8420   -1.3180   36.6130 C.3   228  LEU228      0.0001
@<TRIPOS>BOND
     1   149   150    1
     2   141   142    1
     3   122   123    1
     4   127   129    1
     5   127   126    1
     6   123   126    1
     7   123   124    1
     8   142   143    1
     9   142   145    1
    10   144   143    2
    11    82    83    1
    12    82    81    1
    13   125   124    2
    14   150   151    1
    15   126   128    1
    16   124   130   am
    17   151   152    2
    18   153   154    1
    19    46    47    1
    20   148   146    1
    21    80    81    1
    22    80    77    1
    23    62    63    2
    24    62    61    1
    25   146   145    1
    26   146   147    1
    27   132   133    2
    28   132   131    1
    29   130   131    1
    30    67    65    1
    31    64    65    1
    32    64    61    1
    33    65    66    1
    34    60    61    1
    35    60    48   am
    36   154   157    1
    37   154   155    1
    38    78    79    2
    39    78    77    1
    40   157   158    1
    41   131   134    1
    42    52    54   ar
    43    52    51   ar
    44    47    48    1
    45    47    50    1
    46    77    76    1
    47    54    55   ar
    48    48    49    2
    49   117   116    2
    50   114   115    1
    51   116   115    1
    52    76    70   am
    53   115   118    1
    54    51    50    1
    55    51    53   ar
    56   155   163   am
    57   155   156    2
    58   163   164    1
    59   134   135    1
    60   158   159   ar
    61   158   160   ar
    62    55    53   ar
    63    55    57   ar
    64    68    69    1
    65   159   161   ar
    66    53    56   ar
    67    57    59   ar
    68    70    69    1
    69    70    71    2
    70   165   164    1
    71   165   166    2
    72   164   167    1
    73   118   119    1
    74   167   168    1
    75   135   136   ar
    76   135   137   ar
    77    69    72    1
    78   160   162   ar
    79   136   138   ar
    80   119   120    1
    81   168   169    1
    82   168   170    1
    83   161   162   ar
    84    56    58   ar
    85    59    58   ar
    86    86    87    2
    87    86    85    1
    88    84    85    1
    89    72    73    1
    90   171   172    1
    91    88    85    1
    92    88    89    1
    93   137   139   ar
    94    91    89    1
    95   138   140   ar
    96    92    93    1
    97    89    90    1
    98    73    74    1
    99    73    75    1
   100   120   121    1
   101   139   140   ar
   102   190   189    2
   103   172   175    1
   104   172   173    1
   105    94    93    1
   106    94    95    2
   107    93    96    1
   108   175   176    1
   109   173   174    2
   110   189   188    1
   111   113   111   ar
   112   113   112   ar
   113   193   192    1
   114    96    97    1
   115   185   184    1
   116   111   109   ar
   117    97    98    1
   118   101   100    1
   119   176   177    1
   120     8     7    1
   121   112   110   ar
   122   188   191    1
   123   188   187    1
   124   192   191    1
   125   192   194    1
   126   100   102    1
   127   100    99    2
   128   177   178    1
   129     7     6    1
   130   109   108   ar
   131    98    99    1
   132   184   186    1
   133   184   183    1
   134    45    43   ar
   135   110   108   ar
   136    36    33    1
   137    16    14    1
   138   108   107    1
   139    40    39    2
   140    44    43   ar
   141    43    42    1
   142     6     5    1
   143   183   180    1
   144    39    38    1
   145   103   104    1
   146    41    42    1
   147    41    38    1
   148    35    34    2
   149   104   107    1
   150   104   105    1
   151    33    34    1
   152    33    32    1
   153    14    13    1
   154    14    15    1
   155    13    10    1
   156    38    37    1
   157     5     2    1
   158    22    21    1
   159    12    11    2
   160   106   105    2
   161   180   179    1
   162   180   181    1
   163    32    26   am
   164    11    10    1
   165    11    17   am
   166     2     1    1
   167     2     3    1
   168    18    17    1
   169    18    21    1
   170    18    19    1
   171    10     9    1
   172    31    29    1
   173    23    21    1
   174   181   182    2
   175     4     3    2
   176    20    19    2
   177    26    27    2
   178    26    25    1
   179    29    28    1
   180    29    30    1
   181    28    25    1
   182    25    24    1
