@<TRIPOS>MOLECULE
tmp/5dxtA00.pdb
 195 184 0 0 0
SMALL
GASTEIGER

@<TRIPOS>ATOM
      1  N        -19.7410    7.7380   40.1770 N.3   617  ARG617     -0.1245
      2  CA       -20.9920    7.2390   39.5930 C.3   617  ARG617      0.1563
      3  C        -20.7720    6.3380   38.3760 C.2   617  ARG617      0.2260
      4  O        -19.7400    6.4190   37.7080 O.2   617  ARG617     -0.2867
      5  CB       -21.9370    8.3980   39.2260 C.3   617  ARG617      0.0307
      6  CG       -21.4000    9.3920   38.1980 C.3   617  ARG617      0.0489
      7  CD       -22.4510   10.4390   37.8390 C.3   617  ARG617      0.2205
      8  NE       -22.0770   11.2390   36.6660 N.pl3 617  ARG617     -0.0865
      9  CZ       -21.2650   12.3020   36.6670 C.cat 617  ARG617      0.5346
     10  NH1      -20.6900   12.7460   37.7890 N.pl3 617  ARG617      0.1354
     11  NH2      -21.0190   12.9350   35.5220 N.pl3 617  ARG617      0.1354
     12  N        -21.8810    5.7410   34.6790 N.3   619  MET619     -0.1245
     13  CA       -22.4020    6.5940   33.6090 C.3   619  MET619      0.1570
     14  C        -23.3640    5.8250   32.7030 C.2   619  MET619      0.2261
     15  O        -23.3160    4.5950   32.6320 O.2   619  MET619     -0.2867
     16  CB       -21.2480    7.1720   32.7870 C.3   619  MET619      0.0387
     17  CG       -20.3240    8.0830   33.5880 C.3   619  MET619      0.0595
     18  SD       -18.8770    8.6260   32.6590 S.3   619  MET619     -0.1393
     19  CE       -19.6190    9.7280   31.4570 C.3   619  MET619      0.0692
     20  N        -23.4250    6.1530   29.4190 N.3   621  SER621     -0.1217
     21  CA       -22.7980    6.0390   28.0970 C.3   621  SER621      0.1889
     22  C        -22.6390    4.5740   27.6590 C.2   621  SER621      0.2288
     23  O        -23.0200    3.6500   28.3890 O.2   621  SER621     -0.2866
     24  CB       -21.4260    6.7290   28.1100 C.3   621  SER621      0.2089
     25  OG       -21.4790    7.9590   28.8100 O.3   621  SER621     -0.2183
     26  N        -19.3510    3.3130   31.6120 N.3   625  PRO625     -0.2116
     27  CA       -18.0770    3.6310   32.2680 C.3   625  PRO625      0.1372
     28  C        -18.2350    4.2250   33.6710 C.2   625  PRO625      0.2244
     29  O        -19.2950    4.7660   34.0050 O.2   625  PRO625     -0.2868
     30  CB       -17.4340    4.6490   31.3200 C.3   625  PRO625      0.0268
     31  CG       -18.5630    5.2610   30.5870 C.3   625  PRO625      0.0207
     32  CD       -19.6500    4.2410   30.5060 C.3   625  PRO625      0.0892
     33  N        -17.3930    6.9720   36.4370 N.3   627  TRP627     -0.1241
     34  CA       -16.9430    8.3330   36.7180 C.3   627  TRP627      0.1605
     35  C        -16.3320    8.2880   38.1130 C.2   627  TRP627      0.2264
     36  O        -17.0390    8.0130   39.0840 O.2   627  TRP627     -0.2867
     37  CB       -18.1280    9.2970   36.6680 C.3   627  TRP627      0.0550
     38  CG       -17.8150   10.7360   36.9650 C.ar  627  TRP627      0.0003
     39  CD1      -17.6310   11.3020   38.1960 C.ar  627  TRP627      0.0946
     40  CD2      -17.7020   11.8010   36.0150 C.ar  627  TRP627      0.0152
     41  NE1      -17.3900   12.6490   38.0690 N.ar  627  TRP627     -0.2442
     42  CE2      -17.4280   12.9840   36.7420 C.ar  627  TRP627      0.0810
     43  CE3      -17.7960   11.8710   34.6180 C.ar  627  TRP627      0.0012
     44  CZ2      -17.2480   14.2260   36.1170 C.ar  627  TRP627      0.0191
     45  CZ3      -17.6170   13.1040   33.9950 C.ar  627  TRP627      0.0001
     46  CH2      -17.3490   14.2660   34.7470 C.ar  627  TRP627      0.0015
     47  N        -12.5660    9.2380   33.9020 N.3   647  ILE647     -0.1245
     48  CA       -13.5230    8.2560   33.4120 C.3   647  ILE647      0.1561
     49  C        -12.7570    6.9630   33.1230 C.2   647  ILE647      0.2260
     50  O        -11.7860    6.9700   32.3590 O.2   647  ILE647     -0.2867
     51  CB       -14.2650    8.7660   32.1500 C.3   647  ILE647      0.0252
     52  CG1      -15.1720    9.9490   32.5170 C.3   647  ILE647      0.0019
     53  CG2      -15.0990    7.6410   31.4950 C.3   647  ILE647      0.0019
     54  CD1      -15.6300   10.7780   31.3310 C.3   647  ILE647      0.0001
     55  N        -13.2470    3.3970   31.4280 N.3   649  LYS649     -0.1245
     56  CA       -14.1210    2.7190   30.4690 C.3   649  LYS649      0.1561
     57  C        -13.5580    1.3390   30.1420 C.2   649  LYS649      0.2260
     58  O        -12.3910    1.2120   29.7770 O.2   649  LYS649     -0.2867
     59  CB       -14.2710    3.5550   29.1910 C.3   649  LYS649      0.0271
     60  CG       -15.4160    3.1060   28.2780 C.3   649  LYS649      0.0035
     61  CD       -15.4890    3.9480   27.0090 C.3   649  LYS649      0.0206
     62  CE       -16.7750    3.6870   26.2440 C.3   649  LYS649      0.1093
     63  NZ       -16.6910    4.1510   24.8330 N.3   649  LYS649     -0.1314
     64  N         -9.9680    2.1720   22.9260 N.3   654  LEU654     -0.1245
     65  CA        -9.6380    3.5980   23.1120 C.3   654  LEU654      0.1561
     66  C         -8.3590    4.0580   22.3880 C.2   654  LEU654      0.2260
     67  O         -7.9470    5.2090   22.5400 O.2   654  LEU654     -0.2867
     68  CB        -9.5640    3.9310   24.6120 C.3   654  LEU654      0.0270
     69  CG       -10.9110    4.1270   25.3190 C.3   654  LEU654      0.0019
     70  CD1      -10.7220    4.1220   26.8300 C.3   654  LEU654      0.0001
     71  CD2      -11.6070    5.4170   24.8840 C.3   654  LEU654      0.0001
     72  N         -9.0760    7.0270   19.7760 N.3   657  ASP657     -0.1239
     73  CA        -9.1690    8.3130   20.4920 C.3   657  ASP657      0.1674
     74  C         -7.7970    8.8250   20.9200 C.2   657  ASP657      0.2266
     75  O         -7.4950   10.0130   20.7640 O.2   657  ASP657     -0.2867
     76  CB       -10.0680    8.2000   21.7310 C.3   657  ASP657      0.1410
     77  CG       -11.5360    8.1770   21.3830 C.2   657  ASP657      0.3668
     78  OD1      -12.2720    9.0620   21.8590 O.co2 657  ASP657     -0.2456
     79  OD2      -11.9600    7.2840   20.6250 O.co2 657  ASP657     -0.2456
     80  N         -7.4960   16.5760   25.5900 N.3   683  TYR683     -0.1241
     81  CA        -7.5610   15.9740   26.9320 C.3   683  TYR683      0.1605
     82  C         -6.8930   14.5990   26.9530 C.2   683  TYR683      0.2264
     83  O         -6.7910   13.9350   25.9210 O.2   683  TYR683     -0.2867
     84  CB        -9.0140   15.8620   27.4370 C.3   683  TYR683      0.0534
     85  CG        -9.9310   15.0920   26.5100 C.ar  683  TYR683     -0.0201
     86  CD1      -10.0040   13.7010   26.5630 C.ar  683  TYR683     -0.0009
     87  CD2      -10.7120   15.7570   25.5600 C.ar  683  TYR683     -0.0009
     88  CE1      -10.8300   12.9900   25.7040 C.ar  683  TYR683      0.0417
     89  CE2      -11.5410   15.0520   24.6910 C.ar  683  TYR683      0.0417
     90  CZ       -11.5970   13.6720   24.7720 C.ar  683  TYR683      0.1957
     91  OH       -12.4110   12.9640   23.9250 O.3   683  TYR683     -0.2866
     92  N         -9.8570    8.2430   30.6970 N.3   695  ILE695     -0.1231
     93  CA       -10.1570    9.4910   29.9840 C.3   695  ILE695      0.1692
     94  C        -10.1570   10.6540   30.9870 C.2   695  ILE695      0.2592
     95  O        -10.8340   10.5870   32.0210 O.2   695  ILE695     -0.2718
     96  CB       -11.5330    9.4260   29.2590 C.3   695  ILE695      0.0266
     97  CG1      -11.5810    8.2640   28.2540 C.3   695  ILE695      0.0019
     98  CG2      -11.8360   10.7440   28.5380 C.3   695  ILE695      0.0020
     99  CD1      -12.9930    7.8560   27.8290 C.3   695  ILE695      0.0001
    100  N         -9.4050   11.7110   30.6710 N.am  696  GLU696     -0.1966
    101  CA        -9.3450   12.9060   31.5140 C.3   696  GLU696      0.1733
    102  C        -10.6550   13.6830   31.4090 C.2   696  GLU696      0.2616
    103  O        -11.0930   14.0080   30.3080 O.2   696  GLU696     -0.2715
    104  CB        -8.1890   13.8130   31.0830 C.3   696  GLU696      0.0429
    105  CG        -8.0150   15.0890   31.9300 C.3   696  GLU696      0.1163
    106  CD        -6.9840   16.0570   31.3730 C.2   696  GLU696      0.3649
    107  OE1       -6.3830   15.7830   30.3130 O.co2 696  GLU696     -0.2457
    108  OE2       -6.7700   17.1090   32.0100 O.co2 696  GLU696     -0.2457
    109  N        -11.2620   13.9880   32.5560 N.am  697  VAL697     -0.1963
    110  CA       -12.4450   14.8440   32.6100 C.3   697  VAL697      0.1727
    111  C        -11.9910   16.2960   32.4550 C.2   697  VAL697      0.2616
    112  O        -11.0410   16.7250   33.1190 O.2   697  VAL697     -0.2715
    113  CB       -13.2260   14.6500   33.9370 C.3   697  VAL697      0.0290
    114  CG1      -14.3870   15.6460   34.0770 C.3   697  VAL697      0.0023
    115  CG2      -13.7420   13.2120   34.0400 C.3   697  VAL697      0.0023
    116  N        -12.6610   17.0300   31.5640 N.am  698  VAL698     -0.1977
    117  CA       -12.4860   18.4760   31.4300 C.3   698  VAL698      0.1596
    118  C        -13.5440   19.1430   32.3110 C.2   698  VAL698      0.2287
    119  O        -14.7410   18.8990   32.1360 O.2   698  VAL698     -0.2864
    120  CB       -12.6300   18.9350   29.9530 C.3   698  VAL698      0.0276
    121  CG1      -12.5990   20.4640   29.8290 C.3   698  VAL698      0.0022
    122  CG2      -11.5180   18.3270   29.0960 C.3   698  VAL698      0.0022
    123  N        -17.4640   21.6880   31.5210 N.3   701  SER701     -0.1202
    124  CA       -17.7900   21.4330   30.1140 C.3   701  SER701      0.2020
    125  C        -19.0940   20.6470   30.0220 C.2   701  SER701      0.2619
    126  O        -19.3990   19.8390   30.8990 O.2   701  SER701     -0.2717
    127  CB       -16.6570   20.6740   29.4180 C.3   701  SER701      0.2103
    128  OG       -16.4710   19.3880   29.9760 O.3   701  SER701     -0.2182
    129  N        -19.8650   20.9140   28.9670 N.am  702  HIS702     -0.1961
    130  CA       -21.1790   20.2970   28.7660 C.3   702  HIS702      0.1787
    131  C        -21.3950   20.0050   27.2870 C.2   702  HIS702      0.2620
    132  O        -20.9410   20.7720   26.4320 O.2   702  HIS702     -0.2715
    133  CB       -22.2890   21.2330   29.2550 C.3   702  HIS702      0.0785
    134  CG       -22.1430   21.6630   30.6830 C.ar  702  HIS702      0.0821
    135  ND1      -22.5960   20.9030   31.7410 N.ar  702  HIS702     -0.2267
    136  CD2      -21.5980   22.7770   31.2260 C.ar  702  HIS702      0.1154
    137  CE1      -22.3350   21.5310   32.8740 C.ar  702  HIS702      0.1986
    138  NE2      -21.7300   22.6710   32.5890 N.ar  702  HIS702     -0.2212
    139  N        -22.1000   18.9130   26.9880 N.am  703  THR703     -0.1951
    140  CA       -22.4340   18.5680   25.6000 C.3   703  THR703      0.1897
    141  C        -23.5130   19.5190   25.0840 C.2   703  THR703      0.2313
    142  O        -24.2280   20.1320   25.8780 O.2   703  THR703     -0.2863
    143  CB       -22.9270   17.1020   25.4280 C.3   703  THR703      0.1794
    144  OG1      -24.1670   16.9150   26.1170 O.3   703  THR703     -0.2208
    145  CG2      -21.9030   16.0960   25.9340 C.3   703  THR703      0.0378
    146  N        -27.0090   18.7320   26.3920 N.3   706  GLN706     -0.1245
    147  CA       -27.1860   19.2130   27.7730 C.3   706  GLN706      0.1566
    148  C        -27.4540   20.7210   27.8700 C.2   706  GLN706      0.2260
    149  O        -28.1610   21.1600   28.7810 O.2   706  GLN706     -0.2867
    150  CB       -25.9630   18.8720   28.6240 C.3   706  GLN706      0.0367
    151  CG       -25.8010   17.3900   28.9360 C.3   706  GLN706      0.0905
    152  CD       -24.4570   17.0740   29.5680 C.2   706  GLN706      0.2608
    153  OE1      -23.5460   17.9020   29.5590 O.2   706  GLN706     -0.2717
    154  NE2      -24.3270   15.8720   30.1220 N.am  706  GLN706     -0.0878
    155  N        -24.3580   15.1050   21.2910 N.3   756  SER756     -0.1217
    156  CA       -23.8250   14.3800   22.4560 C.3   756  SER756      0.1889
    157  C        -22.3070   14.1050   22.4390 C.2   756  SER756      0.2288
    158  O        -21.7560   13.7050   23.4680 O.2   756  SER756     -0.2866
    159  CB       -24.5760   13.0600   22.6260 C.3   756  SER756      0.2089
    160  OG       -25.9530   13.2970   22.8490 O.3   756  SER756     -0.2183
    161  N        -18.7660   19.1610   22.7490 N.3   759  MET759     -0.1245
    162  CA       -18.8400   19.8070   24.0650 C.3   759  MET759      0.1570
    163  C        -18.3660   21.2530   24.0080 C.2   759  MET759      0.2261
    164  O        -17.6090   21.6370   23.1160 O.2   759  MET759     -0.2867
    165  CB       -18.0210   19.0300   25.1010 C.3   759  MET759      0.0387
    166  CG       -18.5200   17.6170   25.3250 C.3   759  MET759      0.0595
    167  SD       -17.8300   16.7970   26.7790 S.3   759  MET759     -0.1393
    168  CE       -18.8030   17.5340   28.0900 C.3   759  MET759      0.0692
    169  N        -15.0560   21.8970   21.9040 N.3   767  PHE767     -0.1241
    170  CA       -14.2140   20.7370   21.5950 C.3   767  PHE767      0.1605
    171  C        -15.0500   19.4790   21.3670 C.2   767  PHE767      0.2264
    172  O        -16.2540   19.4660   21.6230 O.2   767  PHE767     -0.2867
    173  CB       -13.1550   20.5090   22.6890 C.3   767  PHE767      0.0534
    174  CG       -13.7210   20.0820   24.0130 C.ar  767  PHE767     -0.0203
    175  CD1      -14.2660   21.0210   24.8870 C.ar  767  PHE767     -0.0042
    176  CD2      -13.7030   18.7390   24.3960 C.ar  767  PHE767     -0.0042
    177  CE1      -14.7920   20.6290   26.1190 C.ar  767  PHE767     -0.0003
    178  CE2      -14.2280   18.3390   25.6270 C.ar  767  PHE767     -0.0003
    179  CZ       -14.7720   19.2860   26.4880 C.ar  767  PHE767     -0.0000
    180  N        -15.4440   15.0750   21.6810 N.3   769  ILE769     -0.1231
    181  CA       -15.1340   13.8640   22.4460 C.3   769  ILE769      0.1692
    182  C        -15.5580   12.6230   21.6680 C.2   769  ILE769      0.2592
    183  O        -16.2940   12.7320   20.6960 O.2   769  ILE769     -0.2718
    184  CB       -15.8280   13.8570   23.8440 C.3   769  ILE769      0.0266
    185  CG1      -17.3560   14.0010   23.7200 C.3   769  ILE769      0.0019
    186  CG2      -15.2810   14.9780   24.7070 C.3   769  ILE769      0.0020
    187  CD1      -18.1210   13.4980   24.9240 C.3   769  ILE769      0.0001
    188  N        -15.1040   11.4510   22.1110 N.am  770  ASP770     -0.1974
    189  CA       -15.5910   10.1670   21.5930 C.3   770  ASP770      0.1709
    190  C        -15.3940   10.0740   20.0730 C.2   770  ASP770      0.2293
    191  O        -16.3570    9.9970   19.3010 O.2   770  ASP770     -0.2864
    192  CB       -17.0670    9.9600   21.9950 C.3   770  ASP770      0.1436
    193  CG       -17.5840    8.5540   21.6990 C.2   770  ASP770      0.3671
    194  OD1      -16.7830    7.6410   21.4000 O.co2 770  ASP770     -0.2456
    195  OD2      -18.8140    8.3630   21.7680 O.co2 770  ASP770     -0.2456
@<TRIPOS>BOND
     1   191   190    2
     2    72    73    1
     3   190   189    1
     4    73    74    1
     5    73    76    1
     6    79    77   ar
     7   183   182    2
     8    75    74    2
     9   155   156    1
    10   171   170    1
    11   171   172    2
    12    77    76    1
    13    77    78   ar
    14   194   193   ar
    15   189   192    1
    16   189   188    1
    17   170   169    1
    18   170   173    1
    19   182   188   am
    20   182   181    1
    21   180   181    1
    22   193   195   ar
    23   193   192    1
    24    66    67    2
    25    66    65    1
    26   157   156    1
    27   157   158    2
    28   181   184    1
    29   156   159    1
    30   159   160    1
    31   173   174    1
    32   161   162    1
    33    64    65    1
    34    65    68    1
    35   164   163    2
    36   185   184    1
    37   185   187    1
    38   184   186    1
    39    91    90    1
    40   163   162    1
    41   174   176   ar
    42   174   175   ar
    43   162   165    1
    44   176   178   ar
    45    68    69    1
    46    89    90   ar
    47    89    87   ar
    48    90    88   ar
    49    63    62    1
    50    71    69    1
    51   175   177   ar
    52   141   140    1
    53   141   142    2
    54   165   166    1
    55    69    70    1
    56   166   167    1
    57   143   140    1
    58   143   145    1
    59   143   144    1
    60    87    85   ar
    61    80    81    1
    62   140   139    1
    63   178   179   ar
    64    88    86   ar
    65    83    82    2
    66   177   179   ar
    67    62    61    1
    68   146   147    1
    69   132   131    2
    70    85    86   ar
    71    85    84    1
    72   167   168    1
    73    81    82    1
    74    81    84    1
    75   139   131   am
    76    61    60    1
    77   131   130    1
    78    22    21    1
    79    22    23    2
    80   147   148    1
    81   147   150    1
    82    99    97    1
    83   148   149    2
    84    21    24    1
    85    21    20    1
    86    24    25    1
    87    97    96    1
    88    60    59    1
    89    98    96    1
    90   150   151    1
    91   130   129    1
    92   130   133    1
    93   151   152    1
    94   129   125   am
    95   122   120    1
    96    59    56    1
    97   133   134    1
    98    96    93    1
    99   127   128    1
   100   127   124    1
   101   153   152    2
   102   152   154   am
   103    58    57    2
   104   121   120    1
   105   120   117    1
   106    93    92    1
   107    93    94    1
   108   125   124    1
   109   125   126    2
   110   124   123    1
   111    57    56    1
   112   103   102    2
   113   107   106   ar
   114    56    55    1
   115    32    31    1
   116    32    26    1
   117    31    30    1
   118   100    94   am
   119   100   101    1
   120   134   136   ar
   121   134   135   ar
   122    94    95    2
   123   104   101    1
   124   104   105    1
   125   136   138   ar
   126    30    27    1
   127    54    52    1
   128   106   105    1
   129   106   108   ar
   130   102   101    1
   131   102   109   am
   132   117   116    1
   133   117   118    1
   134    19    18    1
   135    53    51    1
   136   116   111   am
   137    26    27    1
   138   135   137   ar
   139   119   118    2
   140    51    52    1
   141    51    48    1
   142    27    28    1
   143    50    49    2
   144   111   110    1
   145   111   112    2
   146   109   110    1
   147   138   137   ar
   148   110   113    1
   149    15    14    2
   150    18    17    1
   151    14    13    1
   152    16    17    1
   153    16    13    1
   154    49    48    1
   155    48    47    1
   156    13    12    1
   157    28    29    2
   158   113   115    1
   159   113   114    1
   160    45    43   ar
   161    45    46   ar
   162    43    40   ar
   163    46    44   ar
   164    11     9    1
   165    40    42   ar
   166    40    38   ar
   167    44    42   ar
   168    33    34    1
   169     8     9    2
   170     8     7    1
   171     9    10    1
   172    37    34    1
   173    37    38    1
   174    34    35    1
   175    42    41   ar
   176    38    39   ar
   177     4     3    2
   178     7     6    1
   179    41    39   ar
   180    35    36    2
   181     6     5    1
   182     3     2    1
   183     5     2    1
   184     2     1    1
