@<TRIPOS>MOLECULE
tmp/5dxuA00.pdb
 186 176 0 0 0
SMALL
GASTEIGER

@<TRIPOS>ATOM
      1  N         43.5770    9.7840   27.9470 N.3   666  MET666     -0.1245
      2  CA        43.2620    9.4120   29.3290 C.3   666  MET666      0.1570
      3  C         43.4370    7.9070   29.5330 C.2   666  MET666      0.2261
      4  O         43.2180    7.1220   28.6060 O.2   666  MET666     -0.2867
      5  CB        41.8260    9.8310   29.6650 C.3   666  MET666      0.0387
      6  CG        41.5910   11.3350   29.5700 C.3   666  MET666      0.0595
      7  SD        39.8490   11.7760   29.5560 S.3   666  MET666     -0.1393
      8  CE        39.4540   11.6470   31.2990 C.3   666  MET666      0.0692
      9  N         41.9130    5.2330   30.4270 N.3   668  SER668     -0.1217
     10  CA        40.6670    4.4600   30.5100 C.3   668  SER668      0.1889
     11  C         40.6500    3.4320   29.3750 C.2   668  SER668      0.2288
     12  O         41.5260    3.4510   28.5010 O.2   668  SER668     -0.2866
     13  CB        39.4520    5.3880   30.4230 C.3   668  SER668      0.2089
     14  OG        39.4410    6.2090   31.6410 O.3   668  SER668     -0.2183
     15  N         40.4040    7.7340   25.5560 N.3   672  PRO672     -0.2116
     16  CA        39.7920    8.9000   24.9350 C.3   672  PRO672      0.1372
     17  C         40.7160   10.1180   24.9510 C.2   672  PRO672      0.2244
     18  O         41.3970   10.3670   25.9470 O.2   672  PRO672     -0.2868
     19  CB        38.5470    9.1340   25.7930 C.3   672  PRO672      0.0268
     20  CG        38.9260    8.6710   27.1250 C.3   672  PRO672      0.0207
     21  CD        39.8880    7.5210   26.9210 C.3   672  PRO672      0.0892
     22  N         42.1280   13.8790   25.0710 N.3   674  TRP674     -0.1241
     23  CA        41.8830   15.0750   25.8620 C.3   674  TRP674      0.1605
     24  C         42.4110   16.2490   25.0360 C.2   674  TRP674      0.2264
     25  O         43.6150   16.4830   25.0050 O.2   674  TRP674     -0.2867
     26  CB        42.6190   14.9430   27.2090 C.3   674  TRP674      0.0550
     27  CG        42.5710   16.1440   28.1090 C.ar  674  TRP674      0.0003
     28  CD1       43.3860   17.2400   28.0630 C.ar  674  TRP674      0.0946
     29  CD2       41.6840   16.3510   29.2110 C.ar  674  TRP674      0.0152
     30  NE1       43.0470   18.1270   29.0550 N.ar  674  TRP674     -0.2442
     31  CE2       42.0080   17.6070   29.7770 C.ar  674  TRP674      0.0810
     32  CE3       40.6390   15.6020   29.7730 C.ar  674  TRP674      0.0012
     33  CZ2       41.3240   18.1340   30.8780 C.ar  674  TRP674      0.0191
     34  CZ3       39.9570   16.1230   30.8690 C.ar  674  TRP674      0.0001
     35  CH2       40.3040   17.3840   31.4070 C.ar  674  TRP674      0.0015
     36  N         36.6190   16.0320   25.4320 N.3   688  ILE688     -0.1245
     37  CA        37.0670   14.6410   25.4270 C.3   688  ILE688      0.1561
     38  C         36.4060   13.9520   24.2360 C.2   688  ILE688      0.2260
     39  O         35.1870   13.9230   24.1470 O.2   688  ILE688     -0.2867
     40  CB        36.7040   13.9130   26.7440 C.3   688  ILE688      0.0252
     41  CG1       37.4970   14.5000   27.9170 C.3   688  ILE688      0.0019
     42  CG2       36.9890   12.4110   26.6400 C.3   688  ILE688      0.0019
     43  CD1       36.9070   14.1780   29.2890 C.3   688  ILE688      0.0001
     44  N         35.7300   10.4150   22.7300 N.3   690  LYS690     -0.1245
     45  CA        35.6880    9.0070   23.1210 C.3   690  LYS690      0.1561
     46  C         35.1980    8.1810   21.9390 C.2   690  LYS690      0.2260
     47  O         34.1290    8.4670   21.3990 O.2   690  LYS690     -0.2867
     48  CB        34.7570    8.8300   24.3170 C.3   690  LYS690      0.0271
     49  CG        34.8300    7.4560   24.9830 C.3   690  LYS690      0.0035
     50  CD        34.3630    7.5130   26.4370 C.3   690  LYS690      0.0206
     51  CE        34.0870    6.1330   27.0040 C.3   690  LYS690      0.1093
     52  NZ        34.1800    6.1270   28.4940 N.3   690  LYS690     -0.1314
     53  N         27.9640    6.3080   24.0810 N.3   695  LEU695     -0.1245
     54  CA        27.7110    7.4670   24.9620 C.3   695  LEU695      0.1561
     55  C         26.2360    7.9020   25.0470 C.2   695  LEU695      0.2260
     56  O         25.9230    8.8940   25.7080 O.2   695  LEU695     -0.2867
     57  CB        28.5750    8.6540   24.5150 C.3   695  LEU695      0.0270
     58  CG        30.0000    8.7530   25.0540 C.3   695  LEU695      0.0019
     59  CD1       30.7180    9.9040   24.3540 C.3   695  LEU695      0.0001
     60  CD2       30.0330    8.9530   26.5710 C.3   695  LEU695      0.0001
     61  N         24.8860    8.1070   28.7460 N.3   698  ASP698     -0.1239
     62  CA        25.3190    9.2940   29.4810 C.3   698  ASP698      0.1674
     63  C         24.5750   10.5590   29.0490 C.2   698  ASP698      0.2266
     64  O         24.2550   11.3920   29.8920 O.2   698  ASP698     -0.2867
     65  CB        26.8260    9.5050   29.3360 C.3   698  ASP698      0.1410
     66  CG        27.6200    8.3670   29.9230 C.2   698  ASP698      0.3668
     67  OD1       27.5700    7.2510   29.3570 O.co2 698  ASP698     -0.2456
     68  OD2       28.2840    8.5850   30.9500 O.co2 698  ASP698     -0.2456
     69  N         27.0010   18.9280   32.3680 N.3   724  TYR724     -0.1241
     70  CA        27.9870   19.1170   31.3020 C.3   724  TYR724      0.1605
     71  C         27.5050   18.5280   29.9750 C.2   724  TYR724      0.2264
     72  O         26.6350   17.6500   29.9480 O.2   724  TYR724     -0.2867
     73  CB        29.3540   18.5210   31.7040 C.3   724  TYR724      0.0534
     74  CG        29.3550   17.0180   31.9540 C.ar  724  TYR724     -0.0201
     75  CD1       29.4800   16.1130   30.8950 C.ar  724  TYR724     -0.0009
     76  CD2       29.2310   16.5010   33.2470 C.ar  724  TYR724     -0.0009
     77  CE1       29.4720   14.7360   31.1110 C.ar  724  TYR724      0.0417
     78  CE2       29.2210   15.1190   33.4740 C.ar  724  TYR724      0.0417
     79  CZ        29.3440   14.2420   32.4000 C.ar  724  TYR724      0.1957
     80  OH        29.3440   12.8770   32.5990 O.3   724  TYR724     -0.2866
     81  N         32.4870   14.7560   25.0170 N.3   736  ILE736     -0.1231
     82  CA        32.1090   15.1150   26.3770 C.3   736  ILE736      0.1692
     83  C         32.7670   16.4590   26.6770 C.2   736  ILE736      0.2592
     84  O         33.9310   16.6780   26.3210 O.2   736  ILE736     -0.2718
     85  CB        32.5930   14.0710   27.4010 C.3   736  ILE736      0.0266
     86  CG1       32.0940   12.6700   27.0220 C.3   736  ILE736      0.0019
     87  CG2       32.1190   14.4470   28.8070 C.3   736  ILE736      0.0020
     88  CD1       32.6860   11.5600   27.8530 C.3   736  ILE736      0.0001
     89  N         32.0140   17.3510   27.3180 N.am  737  GLU737     -0.1966
     90  CA        32.5210   18.6600   27.7100 C.3   737  GLU737      0.1733
     91  C         33.4760   18.4450   28.8620 C.2   737  GLU737      0.2616
     92  O         33.1520   17.7110   29.7880 O.2   737  GLU737     -0.2715
     93  CB        31.3760   19.5790   28.1540 C.3   737  GLU737      0.0429
     94  CG        31.8010   20.8890   28.8370 C.3   737  GLU737      0.1163
     95  CD        30.6440   21.8620   29.0790 C.2   737  GLU737      0.3649
     96  OE1       29.4680   21.4300   29.1070 O.co2 737  GLU737     -0.2457
     97  OE2       30.9210   23.0740   29.2500 O.co2 737  GLU737     -0.2457
     98  N         34.6470   19.0710   28.8030 N.am  738  VAL738     -0.1963
     99  CA        35.5400   19.1200   29.9500 C.3   738  VAL738      0.1727
    100  C         35.0230   20.2200   30.8660 C.2   738  VAL738      0.2616
    101  O         34.6920   21.3050   30.3960 O.2   738  VAL738     -0.2715
    102  CB        36.9940   19.4090   29.5320 C.3   738  VAL738      0.0290
    103  CG1       37.9030   19.5580   30.7530 C.3   738  VAL738      0.0023
    104  CG2       37.5140   18.2890   28.6390 C.3   738  VAL738      0.0023
    105  N         34.9300   19.9200   32.1590 N.am  739  VAL739     -0.1977
    106  CA        34.6070   20.9140   33.1850 C.3   739  VAL739      0.1596
    107  C         35.9120   21.2860   33.8740 C.2   739  VAL739      0.2287
    108  O         36.5320   20.4450   34.5260 O.2   739  VAL739     -0.2864
    109  CB        33.6070   20.3580   34.2170 C.3   739  VAL739      0.0276
    110  CG1       33.4590   21.2820   35.4150 C.3   739  VAL739      0.0022
    111  CG2       32.2500   20.1240   33.5690 C.3   739  VAL739      0.0022
    112  N         38.7320   23.0930   36.4210 N.3   741  ARG741     -0.1231
    113  CA        38.8860   23.2970   37.8610 C.3   741  ARG741      0.1694
    114  C         38.0850   22.2670   38.6770 C.2   741  ARG741      0.2593
    115  O         37.4930   22.6060   39.7060 O.2   741  ARG741     -0.2718
    116  CB        38.4670   24.7310   38.2400 C.3   741  ARG741      0.0321
    117  CG        39.0670   25.8380   37.3740 C.3   741  ARG741      0.0489
    118  CD        38.4270   27.1870   37.6810 C.3   741  ARG741      0.2205
    119  NE        38.5610   28.1320   36.5760 N.pl3 741  ARG741     -0.0865
    120  CZ        38.2250   29.4380   36.6360 C.cat 741  ARG741      0.5346
    121  NH1       37.6270   29.9460   37.7160 N.pl3 741  ARG741      0.1354
    122  NH2       38.4450   30.2250   35.5840 N.pl3 741  ARG741      0.1354
    123  N         38.0490   21.0220   38.1960 N.am  742  SER742     -0.1938
    124  CA        37.4200   19.9110   38.9210 C.3   742  SER742      0.2055
    125  C         38.3410   18.6930   38.9600 C.2   742  SER742      0.2643
    126  O         39.2450   18.5600   38.1310 O.2   742  SER742     -0.2714
    127  CB        36.0690   19.5390   38.2990 C.3   742  SER742      0.2130
    128  OG        36.2190   18.9890   37.0020 O.3   742  SER742     -0.2179
    129  N         38.1100   17.8240   39.9410 N.am  743  ASP743     -0.1957
    130  CA        38.8620   16.5720   40.0870 C.3   743  ASP743      0.1840
    131  C         37.9940   15.5350   40.7890 C.2   743  ASP743      0.2622
    132  O         37.0610   15.8880   41.5150 O.2   743  ASP743     -0.2715
    133  CB        40.1650   16.8100   40.8680 C.3   743  ASP743      0.1450
    134  CG        41.2400   15.7430   40.6020 C.2   743  ASP743      0.3671
    135  OD1       40.9500   14.6930   39.9880 O.co2 743  ASP743     -0.2456
    136  OD2       42.4000   15.9590   41.0270 O.co2 743  ASP743     -0.2456
    137  N         38.2980   14.2610   40.5520 N.am  744  THR744     -0.1951
    138  CA        37.5600   13.1570   41.1690 C.3   744  THR744      0.1897
    139  C         37.8780   13.1110   42.6540 C.2   744  THR744      0.2313
    140  O         38.9850   13.4640   43.0690 O.2   744  THR744     -0.2863
    141  CB        37.9110   11.7810   40.5530 C.3   744  THR744      0.1794
    142  OG1       39.3010   11.4940   40.7580 O.3   744  THR744     -0.2208
    143  CG2       37.5960   11.7460   39.0600 C.3   744  THR744      0.0378
    144  N         41.1680   11.1430   43.6850 N.3   747  ASN747     -0.1240
    145  CA        42.4440   11.8630   43.5210 C.3   747  ASN747      0.1653
    146  C         42.7080   12.9020   44.6120 C.2   747  ASN747      0.2266
    147  O         43.8410   13.0330   45.0830 O.2   747  ASN747     -0.2867
    148  CB        42.5210   12.5500   42.1450 C.3   747  ASN747      0.1155
    149  CG        42.6570   11.5640   40.9840 C.2   747  ASN747      0.2627
    150  OD1       43.0190   10.4000   41.1630 O.2   747  ASN747     -0.2716
    151  ND2       42.3770   12.0450   39.7770 N.am  747  ASN747     -0.0877
    152  N         32.8680   13.8000   41.1150 N.3   799  MET799     -0.1245
    153  CA        33.8230   14.9040   41.0320 C.3   799  MET799      0.1570
    154  C         33.3450   16.1130   41.8110 C.2   799  MET799      0.2261
    155  O         32.1560   16.2350   42.1330 O.2   799  MET799     -0.2867
    156  CB        34.0360   15.3200   39.5810 C.3   799  MET799      0.0387
    157  CG        34.4660   14.1970   38.6720 C.3   799  MET799      0.0595
    158  SD        35.1150   14.8100   37.1160 S.3   799  MET799     -0.1393
    159  CE        36.7510   15.3530   37.6180 C.3   799  MET799      0.0692
    160  N         29.4940   17.0430   41.4540 N.3   807  PHE807     -0.1241
    161  CA        28.7500   16.4750   40.3240 C.3   807  PHE807      0.1605
    162  C         29.2700   15.0840   39.9630 C.2   807  PHE807      0.2264
    163  O         30.3980   14.7240   40.3030 O.2   807  PHE807     -0.2867
    164  CB        28.7710   17.4090   39.1020 C.3   807  PHE807      0.0534
    165  CG        30.1140   17.5170   38.4480 C.ar  807  PHE807     -0.0203
    166  CD1       31.0950   18.3570   38.9770 C.ar  807  PHE807     -0.0042
    167  CD2       30.4120   16.7650   37.3140 C.ar  807  PHE807     -0.0042
    168  CE1       32.3510   18.4500   38.3860 C.ar  807  PHE807     -0.0003
    169  CE2       31.6670   16.8570   36.7140 C.ar  807  PHE807     -0.0003
    170  CZ        32.6380   17.7040   37.2510 C.ar  807  PHE807     -0.0000
    171  N         29.9200   11.8450   37.1200 N.3   809  ILE809     -0.1231
    172  CA        30.3160   11.5510   35.7360 C.3   809  ILE809      0.1692
    173  C         30.0690   10.0860   35.4000 C.2   809  ILE809      0.2592
    174  O         29.8600    9.2690   36.2960 O.2   809  ILE809     -0.2718
    175  CB        31.8120   11.8690   35.4830 C.3   809  ILE809      0.0266
    176  CG1       32.7480   10.9650   36.3070 C.3   809  ILE809      0.0019
    177  CG2       32.0960   13.3350   35.7900 C.3   809  ILE809      0.0020
    178  CD1       34.1650   10.9360   35.7860 C.3   809  ILE809      0.0001
    179  N         30.1080    9.7650   34.1090 N.am  810  ASP810     -0.1974
    180  CA        30.1950    8.3780   33.6440 C.3   810  ASP810      0.1709
    181  C         29.0060    7.5100   34.1070 C.2   810  ASP810      0.2293
    182  O         29.1570    6.6110   34.9360 O.2   810  ASP810     -0.2864
    183  CB        31.5470    7.7860   34.0900 C.3   810  ASP810      0.1436
    184  CG        31.9350    6.5350   33.3270 C.2   810  ASP810      0.3671
    185  OD1       31.2060    6.1100   32.4060 O.co2 810  ASP810     -0.2456
    186  OD2       32.9970    5.9680   33.6560 O.co2 810  ASP810     -0.2456
@<TRIPOS>BOND
     1    47    46    2
     2    46    45    1
     3    44    45    1
     4    45    48    1
     5    53    54    1
     6    39    38    2
     7    38    37    1
     8    48    49    1
     9    59    58    1
    10    57    54    1
    11    57    58    1
    12    16    17    1
    13    16    15    1
    14    16    19    1
    15    17    18    2
    16    54    55    1
    17    49    50    1
    18    25    24    2
    19    81    82    1
    20    24    23    1
    21    55    56    2
    22    58    60    1
    23    22    23    1
    24    37    36    1
    25    37    40    1
    26    15    21    1
    27    19    20    1
    28    23    26    1
    29    84    83    2
    30    82    83    1
    31    82    85    1
    32    50    51    1
    33    42    40    1
    34    83    89   am
    35    40    41    1
    36    21    20    1
    37    51    52    1
    38    86    85    1
    39    86    88    1
    40    26    27    1
    41    89    90    1
    42    85    87    1
    43    90    93    1
    44    90    91    1
    45    41    43    1
    46     1     2    1
    47    28    27   ar
    48    28    30   ar
    49    27    29   ar
    50    93    94    1
    51    12    11    2
    52     4     3    2
    53   104   102    1
    54    61    62    1
    55    98    91   am
    56    98    99    1
    57    94    95    1
    58    91    92    2
    59    63    62    1
    60    63    64    2
    61    30    31   ar
    62    95    96   ar
    63    95    97   ar
    64    29    32   ar
    65    29    31   ar
    66     2     3    1
    67     2     5    1
    68    65    62    1
    69    65    66    1
    70    67    66   ar
    71    11    10    1
    72   102    99    1
    73   102   103    1
    74     7     6    1
    75     7     8    1
    76     6     5    1
    77    32    34   ar
    78    31    33   ar
    79    66    68   ar
    80    72    71    2
    81    99   100    1
    82    71    70    1
    83   101   100    2
    84    13    10    1
    85    13    14    1
    86     9    10    1
    87   100   105   am
    88    34    35   ar
    89    33    35   ar
    90    75    77   ar
    91    75    74   ar
    92    77    79   ar
    93    70    73    1
    94    70    69    1
    95    73    74    1
    96    74    76   ar
    97   105   106    1
    98    79    80    1
    99    79    78   ar
   100   185   184   ar
   101   106   107    1
   102   106   109    1
   103    76    78   ar
   104   184   186   ar
   105   184   183    1
   106   111   109    1
   107   180   183    1
   108   180   181    1
   109   180   179    1
   110   107   108    2
   111   181   182    2
   112   179   173   am
   113   109   110    1
   114   173   172    1
   115   173   174    2
   116   175   172    1
   117   175   177    1
   118   175   176    1
   119   122   120    1
   120   172   171    1
   121   178   176    1
   122   112   113    1
   123   119   120    2
   124   119   118    1
   125   120   121    1
   126   169   170   ar
   127   169   167   ar
   128   128   127    1
   129   158   159    1
   130   158   157    1
   131   170   168   ar
   132   167   165   ar
   133   117   118    1
   134   117   116    1
   135   113   116    1
   136   113   114    1
   137   126   125    2
   138   123   114   am
   139   123   124    1
   140   127   124    1
   141   168   166   ar
   142   165   166   ar
   143   165   164    1
   144   157   156    1
   145   114   115    2
   146   124   125    1
   147   125   129   am
   148   143   141    1
   149   164   161    1
   150   156   153    1
   151   151   149   am
   152   129   130    1
   153   162   163    2
   154   162   161    1
   155   135   134   ar
   156   130   131    1
   157   130   133    1
   158   161   160    1
   159   137   131   am
   160   137   138    1
   161   141   142    1
   162   141   138    1
   163   134   133    1
   164   134   136   ar
   165   131   132    2
   166   149   150    2
   167   149   148    1
   168   153   152    1
   169   153   154    1
   170   138   139    1
   171   154   155    2
   172   148   145    1
   173   139   140    2
   174   145   144    1
   175   145   146    1
   176   146   147    2
