@<TRIPOS>MOLECULE
tmp/5dxvA00.pdb
 202 198 0 0 0
SMALL
GASTEIGER

@<TRIPOS>ATOM
      1  N         19.7660  -50.5750  -14.5190 N.3     6  ALA6       -0.1231
      2  CA        19.4860  -49.5660  -13.5350 C.3     6  ALA6        0.1694
      3  C         20.1370  -48.2720  -13.8450 C.2     6  ALA6        0.2592
      4  O         21.1520  -48.2270  -14.5530 O.2     6  ALA6       -0.2718
      5  CB        19.9510  -50.0020  -12.1940 C.3     6  ALA6        0.0304
      6  N         19.6040  -47.2090  -13.2170 N.am    7  ALA7       -0.1966
      7  CA        20.1950  -45.8440  -13.2470 C.3     7  ALA7        0.1728
      8  C         20.6150  -45.4940  -11.8760 C.2     7  ALA7        0.2616
      9  O         19.7380  -45.6260  -10.9990 O.2     7  ALA7       -0.2715
     10  CB        19.1380  -44.8970  -13.7690 C.3     7  ALA7        0.0334
     11  N         21.8890  -45.1040  -11.6850 N.am    8  LEU8       -0.1977
     12  CA        22.5170  -44.8980  -10.3520 C.3     8  LEU8        0.1596
     13  C         23.1540  -43.5380  -10.2930 C.2     8  LEU8        0.2287
     14  O         23.9970  -43.2240  -11.1340 O.2     8  LEU8       -0.2864
     15  CB        23.6900  -45.8730  -10.0810 C.3     8  LEU8        0.0297
     16  CG        23.3080  -47.3040  -10.3060 C.3     8  LEU8        0.0022
     17  CD1       24.4650  -48.1510   -9.9330 C.3     8  LEU8        0.0001
     18  CD2       22.0580  -47.6360   -9.4650 C.3     8  LEU8        0.0001
     19  N         17.0130  -49.8650    1.3670 N.3    16  ASP16      -0.1225
     20  CA        16.4120  -51.1730    0.8740 C.3    16  ASP16       0.1805
     21  C         15.7670  -51.0720   -0.4980 C.2    16  ASP16       0.2598
     22  O         15.5710  -52.0520   -1.2120 O.2    16  ASP16      -0.2718
     23  CB        15.3220  -51.6240    1.8660 C.3    16  ASP16       0.1424
     24  CG        15.9040  -52.0160    3.2450 C.2    16  ASP16       0.3668
     25  OD1       17.0900  -52.4310    3.1520 O.co2  16  ASP16      -0.2456
     26  OD2       15.2560  -51.8390    4.3670 O.co2  16  ASP16      -0.2456
     27  N         15.2850  -49.9060   -0.7600 N.am   17  THR17      -0.1939
     28  CA        14.6020  -49.6620   -2.0620 C.3    17  THR17       0.2028
     29  C         15.5080  -49.3190   -3.2330 C.2    17  THR17       0.2642
     30  O         15.0420  -49.1880   -4.3950 O.2    17  THR17      -0.2714
     31  CB        13.4370  -48.5600   -1.9340 C.3    17  THR17       0.1808
     32  OG1       14.0150  -47.3220   -1.5960 O.3    17  THR17      -0.2208
     33  CG2       12.4460  -48.9510   -0.9360 C.3    17  THR17       0.0379
     34  N         16.8170  -49.2150   -3.0230 N.am   18  HIS18      -0.1959
     35  CA        17.8290  -48.7970   -3.9990 C.3    18  HIS18       0.1787
     36  C         18.4930  -50.0210   -4.6370 C.2    18  HIS18       0.2620
     37  O         18.5630  -51.0430   -4.0560 O.2    18  HIS18      -0.2715
     38  CB        18.9320  -48.0110   -3.3290 C.3    18  HIS18       0.0785
     39  CG        18.4830  -46.7230   -2.7280 C.ar   18  HIS18       0.0821
     40  ND1       18.8160  -45.4900   -3.2620 N.ar   18  HIS18      -0.2267
     41  CD2       17.8650  -46.4720   -1.5530 C.ar   18  HIS18       0.1154
     42  CE1       18.3120  -44.5410   -2.4940 C.ar   18  HIS18       0.1986
     43  NE2       17.6870  -45.1140   -1.4780 N.ar   18  HIS18      -0.2212
     44  N         19.0880  -49.7770   -5.8070 N.am   19  PHE19      -0.1974
     45  CA        19.9840  -50.7360   -6.4000 C.3    19  PHE19       0.1639
     46  C         21.0620  -51.0700   -5.3340 C.2    19  PHE19       0.2290
     47  O         21.5920  -50.1380   -4.7390 O.2    19  PHE19      -0.2864
     48  CB        20.5860  -50.1300   -7.6810 C.3    19  PHE19       0.0560
     49  CG        21.3530  -51.1160   -8.5050 C.ar   19  PHE19      -0.0200
     50  CD1       20.6760  -51.9430   -9.3830 C.ar   19  PHE19      -0.0042
     51  CD2       22.7080  -51.2950   -8.3330 C.ar   19  PHE19      -0.0042
     52  CE1       21.3960  -52.8860  -10.0890 C.ar   19  PHE19      -0.0003
     53  CE2       23.4340  -52.2830   -9.0180 C.ar   19  PHE19      -0.0003
     54  CZ        22.7660  -53.0880   -9.8920 C.ar   19  PHE19      -0.0000
     55  N          9.4260  -55.9330   -9.7030 N.3    60  GLY60      -0.1210
     56  CA         8.5340  -56.1390   -8.5280 C.3    60  GLY60       0.1956
     57  C          7.2900  -55.3410   -8.6660 C.2    60  GLY60       0.2612
     58  O          7.1710  -54.4810   -9.4640 O.2    60  GLY60      -0.2717
     59  N          6.3250  -55.6450   -7.8300 N.am   61  ARG61      -0.1965
     60  CA         5.0320  -54.9230   -7.8960 C.3    61  ARG61       0.1729
     61  C          5.1680  -53.4420   -7.7410 C.2    61  ARG61       0.2616
     62  O          4.4740  -52.7570   -8.4310 O.2    61  ARG61      -0.2715
     63  CB         4.0840  -55.4940   -6.8540 C.3    61  ARG61       0.0348
     64  CG         2.6780  -54.8850   -7.0110 C.3    61  ARG61       0.0492
     65  CD         1.7390  -55.2860   -5.8760 C.3    61  ARG61       0.2205
     66  NE         2.2190  -55.2600   -4.4970 N.pl3  61  ARG61      -0.0865
     67  CZ         2.2960  -54.1800   -3.6940 C.cat  61  ARG61       0.5346
     68  NH1        1.9720  -52.9510   -4.1060 N.pl3  61  ARG61       0.1354
     69  NH2        2.7620  -54.3450   -2.4610 N.pl3  61  ARG61       0.1354
     70  N          6.0600  -52.9360   -6.8690 N.am   62  HIS62      -0.1959
     71  CA         6.1570  -51.4430   -6.7210 C.3    62  HIS62       0.1787
     72  C          6.5630  -50.7850   -8.0160 C.2    62  HIS62       0.2620
     73  O          6.0200  -49.7780   -8.4790 O.2    62  HIS62      -0.2715
     74  CB         7.0510  -51.0100   -5.5670 C.3    62  HIS62       0.0785
     75  CG         6.5580  -51.4360   -4.2300 C.ar   62  HIS62       0.0821
     76  ND1        5.2160  -51.5040   -3.9230 N.ar   62  HIS62      -0.2267
     77  CD2        7.2220  -51.8310   -3.1130 C.ar   62  HIS62       0.1154
     78  CE1        5.0710  -51.9620   -2.6890 C.ar   62  HIS62       0.1986
     79  NE2        6.2710  -52.1770   -2.1750 N.ar   62  HIS62      -0.2212
     80  N          7.5940  -51.3960   -8.6360 N.am   63  THR63      -0.1951
     81  CA         8.0660  -50.9110   -9.8830 C.3    63  THR63       0.1897
     82  C          7.0250  -50.9820  -11.0340 C.2    63  THR63       0.2313
     83  O          6.9070  -50.0870  -11.8470 O.2    63  THR63      -0.2863
     84  CB         9.4250  -51.6000  -10.3290 C.3    63  THR63       0.1794
     85  OG1       10.4470  -51.2930   -9.3590 O.3    63  THR63      -0.2208
     86  CG2        9.7710  -51.1760  -11.6630 C.3    63  THR63       0.0378
     87  N          4.7150  -48.1490  -10.5390 N.3    66  SER66      -0.1217
     88  CA         5.3400  -46.8900  -11.0530 C.3    66  SER66       0.1889
     89  C          5.3200  -46.8080  -12.5940 C.2    66  SER66       0.2288
     90  O          5.3620  -45.7480  -13.1590 O.2    66  SER66      -0.2866
     91  CB         6.7750  -46.6440  -10.4590 C.3    66  SER66       0.2089
     92  OG         7.7490  -47.6070  -10.8890 O.3    66  SER66      -0.2183
     93  N          6.6420  -59.8680   -9.9680 N.3    79  LEU79      -0.1231
     94  CA         6.7430  -60.5510   -8.7140 C.3    79  LEU79       0.1693
     95  C          5.8240  -59.9270   -7.6930 C.2    79  LEU79       0.2593
     96  O          5.8600  -58.7200   -7.4910 O.2    79  LEU79      -0.2718
     97  CB         8.0960  -60.3720   -8.1470 C.3    79  LEU79       0.0284
     98  CG         8.9680  -61.4620   -8.6530 C.3    79  LEU79       0.0019
     99  CD1       10.4180  -61.0670   -8.5020 C.3    79  LEU79       0.0001
    100  CD2        8.6970  -62.7590   -7.8690 C.3    79  LEU79       0.0001
    101  N          4.9430  -60.7380   -7.1140 N.am   80  SER80      -0.1938
    102  CA         4.0180  -60.2850   -6.0120 C.3    80  SER80       0.2055
    103  C          3.5930  -61.5280   -5.2410 C.2    80  SER80       0.2644
    104  O          3.3990  -62.5490   -5.8590 O.2    80  SER80      -0.2714
    105  CB         2.7860  -59.6170   -6.6260 C.3    80  SER80       0.2130
    106  OG         1.8120  -59.3630   -5.5680 O.3    80  SER80      -0.2179
    107  N          3.4830  -61.4640   -3.8980 N.am   81  SER81      -0.1935
    108  CA         2.8700  -62.5630   -3.1240 C.3    81  SER81       0.2055
    109  C          1.3590  -62.7090   -3.3760 C.2    81  SER81       0.2642
    110  O          0.8420  -63.7650   -3.0600 O.2    81  SER81      -0.2714
    111  CB         3.0840  -62.3290   -1.6300 C.3    81  SER81       0.2130
    112  OG         2.4540  -61.1020   -1.2630 O.3    81  SER81      -0.2179
    113  N          0.6890  -61.7230   -3.9700 N.am   82  GLN82      -0.1976
    114  CA        -0.7560  -61.7240   -4.1720 C.3    82  GLN82       0.1601
    115  C         -1.1380  -62.0210   -5.5920 C.2    82  GLN82       0.2287
    116  O         -0.3600  -61.8730   -6.5350 O.2    82  GLN82      -0.2864
    117  CB        -1.3540  -60.3640   -3.7720 C.3    82  GLN82       0.0394
    118  CG        -1.1720  -60.0380   -2.3080 C.3    82  GLN82       0.0908
    119  CD        -1.5210  -61.2130   -1.3620 C.2    82  GLN82       0.2608
    120  OE1       -2.6170  -61.7170   -1.3920 O.2    82  GLN82      -0.2717
    121  NE2       -0.5650  -61.6340   -0.5270 N.am   82  GLN82      -0.0878
    122  N          4.8920  -65.5610   -7.9140 N.3    93  LYS93      -0.1231
    123  CA         4.9360  -65.4310   -6.4720 C.3    93  LYS93       0.1693
    124  C          6.2810  -65.7720   -5.8330 C.2    93  LYS93       0.2593
    125  O          6.4640  -65.7550   -4.5980 O.2    93  LYS93      -0.2718
    126  CB         3.8150  -66.3320   -5.8430 C.3    93  LYS93       0.0285
    127  CG         2.3990  -65.9030   -6.1640 C.3    93  LYS93       0.0035
    128  CD         1.3940  -66.9780   -5.7570 C.3    93  LYS93       0.0206
    129  CE         0.0290  -66.3950   -5.3440 C.3    93  LYS93       0.1093
    130  NZ        -0.8600  -65.9580   -6.4670 N.3    93  LYS93      -0.1314
    131  N          7.3590  -65.9930   -6.6780 N.am   94  SER94      -0.1938
    132  CA         8.6780  -66.2650   -6.2180 C.3    94  SER94       0.2055
    133  C          9.6970  -66.0360   -7.4420 C.2    94  SER94       0.2642
    134  O          9.2900  -65.9490   -8.5940 O.2    94  SER94      -0.2714
    135  CB         8.9700  -67.6720   -5.7390 C.3    94  SER94       0.2130
    136  OG         8.7800  -68.6240   -6.8260 O.3    94  SER94      -0.2179
    137  N         10.9130  -65.8320   -7.0090 N.am   95  VAL95      -0.1977
    138  CA        12.1130  -65.6840   -7.8950 C.3    95  VAL95       0.1596
    139  C         12.1530  -66.8900   -8.8490 C.2    95  VAL95       0.2287
    140  O         12.3220  -66.7370  -10.0560 O.2    95  VAL95      -0.2864
    141  CB        13.3890  -65.4650   -7.0580 C.3    95  VAL95       0.0276
    142  CG1       14.6500  -65.5870   -7.9290 C.3    95  VAL95       0.0022
    143  CG2       13.3570  -64.0830   -6.3890 C.3    95  VAL95       0.0022
    144  N         14.5010  -55.2980  -14.1680 N.3   111  ILE111     -0.1231
    145  CA        14.4140  -53.8600  -14.2420 C.3   111  ILE111      0.1692
    146  C         14.0870  -53.1160  -12.9390 C.2   111  ILE111      0.2593
    147  O         13.9450  -51.8760  -12.9970 O.2   111  ILE111     -0.2718
    148  CB        13.4530  -53.4240  -15.3880 C.3   111  ILE111      0.0266
    149  CG1       11.9930  -53.7120  -15.0550 C.3   111  ILE111      0.0019
    150  CG2       13.8340  -54.1170  -16.6590 C.3   111  ILE111      0.0020
    151  CD1       11.0110  -52.9630  -16.0220 C.3   111  ILE111      0.0001
    152  N         13.9720  -53.8290  -11.8160 N.am  112  GLY112     -0.1942
    153  CA        13.8340  -53.2090  -10.4850 C.3   112  GLY112      0.2014
    154  C         12.6430  -53.7550   -9.7340 C.2   112  GLY112      0.2639
    155  O         11.9160  -54.6370  -10.2520 O.2   112  GLY112     -0.2714
    156  N         12.3800  -53.2940   -8.5040 N.am  113  GLY113     -0.1939
    157  CA        13.1030  -52.3000   -7.8280 C.3   113  GLY113      0.2014
    158  C         14.1010  -52.7990   -6.8530 C.2   113  GLY113      0.2639
    159  O         14.6960  -53.8370   -7.0450 O.2   113  GLY113     -0.2714
    160  N         14.3500  -52.0500   -5.8050 N.am  114  GLY114     -0.1939
    161  CA        15.4020  -52.4370   -4.9010 C.3   114  GLY114      0.2014
    162  C         15.2920  -53.8480   -4.3320 C.2   114  GLY114      0.2639
    163  O         16.2970  -54.5870   -4.2650 O.2   114  GLY114     -0.2714
    164  N         14.1230  -54.2790   -3.8480 N.am  115  ARG115     -0.1963
    165  CA        14.0170  -55.5960   -3.2330 C.3   115  ARG115      0.1729
    166  C         14.3330  -56.6760   -4.3370 C.2   115  ARG115      0.2616
    167  O         14.9510  -57.7180   -4.1000 O.2   115  ARG115     -0.2715
    168  CB        12.6130  -55.8260   -2.6450 C.3   115  ARG115      0.0348
    169  CG        12.4280  -57.1720   -1.9530 C.3   115  ARG115      0.0492
    170  CD        11.0410  -57.4110   -1.3670 C.3   115  ARG115      0.2205
    171  NE         9.9700  -56.8790   -2.2170 N.pl3 115  ARG115     -0.0865
    172  CZ         9.2890  -57.6480   -3.0410 C.cat 115  ARG115      0.5346
    173  NH1        9.5510  -58.9330   -3.1320 N.pl3 115  ARG115      0.1354
    174  NH2        8.3350  -57.1480   -3.8050 N.pl3 115  ARG115      0.1354
    175  N         13.8440  -56.4190   -5.5530 N.am  116  VAL116     -0.1963
    176  CA        14.0120  -57.3430   -6.6960 C.3   116  VAL116      0.1727
    177  C         15.4550  -57.3510   -7.1910 C.2   116  VAL116      0.2616
    178  O         16.0290  -58.4200   -7.3980 O.2   116  VAL116     -0.2715
    179  CB        13.0040  -57.1010   -7.8010 C.3   116  VAL116      0.0290
    180  CG1       13.2720  -57.8960   -9.0620 C.3   116  VAL116      0.0023
    181  CG2       11.6110  -57.4050   -7.2770 C.3   116  VAL116      0.0023
    182  N         16.0760  -56.1860   -7.3110 N.am  117  TYR117     -0.1974
    183  CA        17.4700  -56.1670   -7.6470 C.3   117  TYR117      0.1639
    184  C         18.3400  -56.9250   -6.6350 C.2   117  TYR117      0.2290
    185  O         19.2300  -57.6430   -6.9890 O.2   117  TYR117     -0.2864
    186  CB        18.0100  -54.7350   -7.6470 C.3   117  TYR117      0.0560
    187  CG        17.5920  -53.8110   -8.7930 C.ar  117  TYR117     -0.0198
    188  CD1       17.6680  -54.2330  -10.1420 C.ar  117  TYR117     -0.0009
    189  CD2       17.1930  -52.4920   -8.5430 C.ar  117  TYR117     -0.0009
    190  CE1       17.4440  -53.3520  -11.1940 C.ar  117  TYR117      0.0417
    191  CE2       16.9450  -51.5820   -9.6130 C.ar  117  TYR117      0.0417
    192  CZ        17.0210  -52.0260  -10.9060 C.ar  117  TYR117      0.1957
    193  OH        16.8010  -51.0970  -11.8320 O.3   117  TYR117     -0.2866
    194  N         17.6310  -59.5050   -4.8210 N.3   119  GLN119     -0.1245
    195  CA        17.4600  -60.9720   -4.9520 C.3   119  GLN119      0.1566
    196  C         18.0890  -61.4910   -6.2310 C.2   119  GLN119      0.2260
    197  O         18.6160  -62.6480   -6.2220 O.2   119  GLN119     -0.2867
    198  CB        16.0050  -61.3510   -4.8970 C.3   119  GLN119      0.0367
    199  CG        15.3870  -61.1260   -3.5060 C.3   119  GLN119      0.0905
    200  CD        13.9450  -61.1550   -3.5310 C.2   119  GLN119      0.2608
    201  OE1       13.2670  -60.1100   -3.8160 O.2   119  GLN119     -0.2717
    202  NE2       13.3960  -62.3480   -3.3950 N.am  119  GLN119     -0.0878
@<TRIPOS>BOND
     1   150   148    1
     2   151   149    1
     3   148   149    1
     4   148   145    1
     5     4     3    2
     6     1     2    1
     7   145   144    1
     8   145   146    1
     9     3     2    1
    10     3     6   am
    11    10     7    1
    12     2     5    1
    13     7     6    1
    14     7     8    1
    15    90    89    2
    16   147   146    2
    17   146   152   am
    18    89    88    1
    19     8    11   am
    20     8     9    2
    21    83    82    2
    22   193   192    1
    23   152   153    1
    24    11    12    1
    25    86    84    1
    26   190   192   ar
    27   190   188   ar
    28    14    13    2
    29    88    87    1
    30    88    91    1
    31    82    81    1
    32   192   191   ar
    33    92    91    1
    34   153   154    1
    35    12    13    1
    36    12    15    1
    37    84    81    1
    38    84    85    1
    39    16    15    1
    40    16    17    1
    41    16    18    1
    42   155   154    2
    43   188   187   ar
    44    52    54   ar
    45    52    50   ar
    46   140   139    2
    47    93    94    1
    48    54    53   ar
    49    81    80    1
    50   154   156   am
    51    55    56    1
    52   191   189   ar
    53    58    57    2
    54    50    49   ar
    55   180   179    1
    56    53    51   ar
    57   139   138    1
    58   187   189   ar
    59   187   186    1
    60    94    97    1
    61    94    95    1
    62    57    56    1
    63    57    59   am
    64    98    99    1
    65    98    97    1
    66    98   100    1
    67    80    72   am
    68   134   133    2
    69    49    51   ar
    70    49    48    1
    71   156   157    1
    72    73    72    2
    73    62    61    2
    74    72    71    1
    75   142   141    1
    76   122   123    1
    77    60    59    1
    78    60    61    1
    79    60    63    1
    80   138   141    1
    81   138   137    1
    82   157   158    1
    83   179   181    1
    84   179   176    1
    85    61    70   am
    86    95    96    2
    87    95   101   am
    88    48    45    1
    89   186   183    1
    90   183   182    1
    91   183   184    1
    92   133   137   am
    93   133   132    1
    94   178   177    2
    95   182   177   am
    96   177   176    1
    97   101   102    1
    98   141   143    1
    99   159   158    2
   100    64    63    1
   101    64    65    1
   102   185   184    2
   103    70    71    1
   104   158   160   am
   105   136   135    1
   106    71    74    1
   107   176   175    1
   108   131   132    1
   109   131   124   am
   110   105   102    1
   111   105   106    1
   112   116   115    2
   113   123   126    1
   114   123   124    1
   115   130   129    1
   116    45    44    1
   117    45    46    1
   118   196   197    2
   119   196   195    1
   120   132   135    1
   121   127   126    1
   122   127   128    1
   123   102   103    1
   124    65    66    1
   125   104   103    2
   126   124   125    2
   127    44    36   am
   128   160   161    1
   129   128   129    1
   130   115   114    1
   131    74    75    1
   132   175   166   am
   133    46    47    2
   134   103   107   am
   135   195   198    1
   136   195   194    1
   137   161   162    1
   138   198   199    1
   139    36    37    2
   140    36    35    1
   141    66    67    2
   142    30    29    2
   143   166   167    2
   144   166   165    1
   145   162   163    2
   146   162   164   am
   147    75    76   ar
   148    75    77   ar
   149   114   113    1
   150   114   117    1
   151    68    67    1
   152    35    38    1
   153    35    34    1
   154   113   109   am
   155    76    78   ar
   156   107   108    1
   157   164   165    1
   158   201   200    2
   159   174   172    1
   160   117   118    1
   161    67    69    1
   162   200   199    1
   163   200   202   am
   164   109   108    1
   165   109   110    2
   166    38    39    1
   167    40    39   ar
   168    40    42   ar
   169    29    34   am
   170    29    28    1
   171   165   168    1
   172   173   172    1
   173   108   111    1
   174    77    79   ar
   175   172   171    2
   176    39    41   ar
   177    78    79   ar
   178   168   169    1
   179    42    43   ar
   180   118   119    1
   181   171   170    1
   182    28    31    1
   183    28    27    1
   184   169   170    1
   185    31    32    1
   186    31    33    1
   187   111   112    1
   188    41    43   ar
   189   120   119    2
   190   119   121   am
   191    22    21    2
   192    27    21   am
   193    21    20    1
   194    20    19    1
   195    20    23    1
   196    23    24    1
   197    25    24   ar
   198    24    26   ar
