@<TRIPOS>MOLECULE
tmp/5dxyA01.pdb
 188 181 0 0 0
SMALL
GASTEIGER

@<TRIPOS>ATOM
      1  N         59.3320   93.8310  101.0760 N.3    23  PRO23      -0.2116
      2  CA        57.8750   93.8320  101.2390 C.3    23  PRO23       0.1372
      3  C         57.3420   95.2400  101.5090 C.2    23  PRO23       0.2244
      4  O         57.8660   95.9120  102.3890 O.2    23  PRO23      -0.2868
      5  CB        57.6470   92.9170  102.4540 C.3    23  PRO23       0.0268
      6  CG        58.9730   92.8970  103.1910 C.3    23  PRO23       0.0207
      7  CD        60.0180   93.0380  102.1150 C.3    23  PRO23       0.0892
      8  N         53.6490   97.2740  101.9970 N.3    25  THR25      -0.1218
      9  CA        52.2200   97.5560  102.1000 C.3    25  THR25       0.1862
     10  C         51.8550   98.8020  101.2990 C.2    25  THR25       0.2287
     11  O         52.4270   99.8700  101.5370 O.2    25  THR25      -0.2866
     12  CB        51.8190   97.7470  103.5810 C.3    25  THR25       0.1770
     13  OG1       51.9970   96.5030  104.2760 O.3    25  THR25      -0.2211
     14  CG2       50.3700   98.2030  103.7140 C.3    25  THR25       0.0375
     15  N         52.8850   92.7120  102.8120 N.3    56  GLY56      -0.1225
     16  CA        52.2820   91.9120  103.8620 C.3    56  GLY56       0.1811
     17  C         50.9020   91.4600  103.4430 C.2    56  GLY56       0.2280
     18  O         50.1030   92.2570  102.9640 O.2    56  GLY56      -0.2866
     19  N         45.5280   97.6240  108.0570 N.3    66  PHE66      -0.1241
     20  CA        45.5960   98.6490  107.0050 C.3    66  PHE66       0.1605
     21  C         44.4080   98.4240  106.0570 C.2    66  PHE66       0.2264
     22  O         43.8960   97.3050  105.9520 O.2    66  PHE66      -0.2867
     23  CB        46.9120   98.5610  106.2200 C.3    66  PHE66       0.0534
     24  CG        48.0550   99.3200  106.8230 C.ar   66  PHE66      -0.0203
     25  CD1       48.7210   98.8330  107.9390 C.ar   66  PHE66      -0.0042
     26  CD2       48.5040  100.5040  106.2390 C.ar   66  PHE66      -0.0042
     27  CE1       49.7950   99.5200  108.4840 C.ar   66  PHE66      -0.0003
     28  CE2       49.5850  101.1940  106.7760 C.ar   66  PHE66      -0.0003
     29  CZ        50.2220  100.7100  107.8980 C.ar   66  PHE66      -0.0000
     30  N         54.6670   87.4710  101.6020 N.3    98  GLN98      -0.1245
     31  CA        54.8880   87.7360  103.0260 C.3    98  GLN98       0.1566
     32  C         53.6050   87.5490  103.8280 C.2    98  GLN98       0.2260
     33  O         52.6070   88.2200  103.5860 O.2    98  GLN98      -0.2867
     34  CB        55.4430   89.1450  103.2650 C.3    98  GLN98       0.0367
     35  CG        55.8340   89.3280  104.7430 C.3    98  GLN98       0.0905
     36  CD        56.1530   90.7550  105.1230 C.2    98  GLN98       0.2608
     37  OE1       55.3030   91.6370  105.0230 O.2    98  GLN98      -0.2717
     38  NE2       57.3730   90.9860  105.6000 N.am   98  GLN98      -0.0878
     39  N         51.3550   87.9960  107.0010 N.3   100  TRP100     -0.1241
     40  CA        51.2930   89.1390  107.9100 C.3   100  TRP100      0.1605
     41  C         50.1020   89.0930  108.8690 C.2   100  TRP100      0.2264
     42  O         48.9450   89.0190  108.4410 O.2   100  TRP100     -0.2867
     43  CB        51.2250   90.4240  107.0650 C.3   100  TRP100      0.0550
     44  CG        51.3140   91.7440  107.7910 C.ar  100  TRP100      0.0003
     45  CD1       51.9540   92.0150  108.9740 C.ar  100  TRP100      0.0946
     46  CD2       50.7470   92.9880  107.3490 C.ar  100  TRP100      0.0152
     47  NE1       51.8200   93.3580  109.2850 N.ar  100  TRP100     -0.2442
     48  CE2       51.0830   93.9710  108.3070 C.ar  100  TRP100      0.0810
     49  CE3       49.9830   93.3620  106.2380 C.ar  100  TRP100      0.0012
     50  CZ2       50.6800   95.3090  108.1800 C.ar  100  TRP100      0.0191
     51  CZ3       49.5910   94.6920  106.1130 C.ar  100  TRP100      0.0001
     52  CH2       49.9390   95.6420  107.0770 C.ar  100  TRP100      0.0015
     53  N         56.3740   87.3600  108.4610 N.3   177  HIS177     -0.1241
     54  CA        56.5660   88.7220  108.9420 C.3   177  HIS177      0.1621
     55  C         56.6560   88.7010  110.4670 C.2   177  HIS177      0.2264
     56  O         55.6290   88.6440  111.1540 O.2   177  HIS177     -0.2867
     57  CB        55.4270   89.6290  108.4710 C.3   177  HIS177      0.0745
     58  CG        55.6670   91.0970  108.7130 C.ar  177  HIS177      0.0817
     59  ND1       56.5620   91.5690  109.6520 N.ar  177  HIS177     -0.2268
     60  CD2       55.1300   92.1900  108.1220 C.ar  177  HIS177      0.1154
     61  CE1       56.5600   92.8930  109.6350 C.ar  177  HIS177      0.1986
     62  NE2       55.6930   93.2950  108.7210 N.ar  177  HIS177     -0.2212
     63  N         58.6950   94.7300  113.0340 N.3   180  HIS180     -0.1241
     64  CA        57.9670   96.0020  113.0690 C.3   180  HIS180      0.1621
     65  C         56.7950   96.0710  114.0320 C.2   180  HIS180      0.2264
     66  O         55.8290   96.7780  113.7850 O.2   180  HIS180     -0.2867
     67  CB        57.4830   96.3570  111.6580 C.3   180  HIS180      0.0745
     68  CG        58.6010   96.4310  110.6770 C.ar  180  HIS180      0.0817
     69  ND1       58.5000   95.9780  109.3800 N.ar  180  HIS180     -0.2268
     70  CD2       59.8730   96.8680  110.8260 C.ar  180  HIS180      0.1154
     71  CE1       59.6580   96.1470  108.7680 C.ar  180  HIS180      0.1986
     72  NE2       60.5090   96.6850  109.6240 N.ar  180  HIS180     -0.2212
     73  N         54.5090   93.9590  114.9660 N.3   182  TYR182     -0.1241
     74  CA        53.2640   93.2670  114.6680 C.3   182  TYR182      0.1605
     75  C         53.1640   92.0060  115.5310 C.2   182  TYR182      0.2264
     76  O         53.9170   91.8790  116.4880 O.2   182  TYR182     -0.2867
     77  CB        53.1670   92.9850  113.1700 C.3   182  TYR182      0.0534
     78  CG        53.0370   94.2940  112.4030 C.ar  182  TYR182     -0.0201
     79  CD1       51.9440   95.1200  112.6080 C.ar  182  TYR182     -0.0009
     80  CD2       54.0110   94.7030  111.4910 C.ar  182  TYR182     -0.0009
     81  CE1       51.8080   96.3250  111.9240 C.ar  182  TYR182      0.0417
     82  CE2       53.8850   95.9080  110.8020 C.ar  182  TYR182      0.0417
     83  CZ        52.7830   96.7140  111.0300 C.ar  182  TYR182      0.1957
     84  OH        52.6300   97.9180  110.3620 O.3   182  TYR182     -0.2866
     85  N         61.4380   87.1730  108.5240 N.3   229  ARG229     -0.1245
     86  CA        61.8780   88.5580  108.6790 C.3   229  ARG229      0.1563
     87  C         61.7620   89.0160  110.1220 C.2   229  ARG229      0.2260
     88  O         60.7070   88.8850  110.7300 O.2   229  ARG229     -0.2867
     89  CB        61.0650   89.5090  107.7940 C.3   229  ARG229      0.0307
     90  CG        61.7640   90.8740  107.6590 C.3   229  ARG229      0.0489
     91  CD        61.0130   91.8690  106.7930 C.3   229  ARG229      0.2205
     92  NE        61.9490   92.7160  106.0550 N.pl3 229  ARG229     -0.0865
     93  CZ        61.6890   93.9440  105.6070 C.cat 229  ARG229      0.5346
     94  NH1       60.5350   94.5320  105.8830 N.pl3 229  ARG229      0.1354
     95  NH2       62.6110   94.5970  104.9040 N.pl3 229  ARG229      0.1354
     96  N         59.3590  101.2680  117.0120 N.3   236  HIS236     -0.1241
     97  CA        58.1090  101.5570  116.3100 C.3   236  HIS236      0.1621
     98  C         56.9220  100.9300  117.0290 C.2   236  HIS236      0.2264
     99  O         56.9640   99.7510  117.3850 O.2   236  HIS236     -0.2867
    100  CB        58.1640  101.0530  114.8630 C.3   236  HIS236      0.0745
    101  CG        56.8820  101.2450  114.1080 C.ar  236  HIS236      0.0817
    102  ND1       56.3870  102.4910  113.7840 N.ar  236  HIS236     -0.2268
    103  CD2       55.9900  100.3480  113.6160 C.ar  236  HIS236      0.1154
    104  CE1       55.2490  102.3550  113.1250 C.ar  236  HIS236      0.1986
    105  NE2       54.9860  101.0650  113.0100 N.ar  236  HIS236     -0.2212
    106  N         66.6140  100.9430  113.9660 N.3   275  ARG275     -0.1245
    107  CA        66.0780  102.2780  113.7700 C.3   275  ARG275      0.1563
    108  C         65.1290  102.6710  114.8950 C.2   275  ARG275      0.2260
    109  O         64.1640  101.9580  115.1960 O.2   275  ARG275     -0.2867
    110  CB        65.3650  102.3850  112.4190 C.3   275  ARG275      0.0307
    111  CG        64.6450  103.7080  112.2460 C.3   275  ARG275      0.0489
    112  CD        64.5090  104.1170  110.7930 C.3   275  ARG275      0.2205
    113  NE        63.7630  105.3690  110.6960 N.pl3 275  ARG275     -0.0865
    114  CZ        62.4970  105.4630  110.2990 C.cat 275  ARG275      0.5346
    115  NH1       61.8240  104.3780  109.9230 N.pl3 275  ARG275      0.1354
    116  NH2       61.9090  106.6520  110.2590 N.pl3 275  ARG275      0.1354
    117  N         62.7660  105.8540  116.0700 N.3   277  THR277     -0.1218
    118  CA        62.0940  107.1260  115.7950 C.3   277  THR277      0.1862
    119  C         60.5800  106.9340  115.7980 C.2   277  THR277      0.2287
    120  O         60.0810  105.8360  115.5370 O.2   277  THR277     -0.2866
    121  CB        62.5170  107.7350  114.4390 C.3   277  THR277      0.1770
    122  OG1       62.0220  109.0760  114.3490 O.3   277  THR277     -0.2211
    123  CG2       61.9970  106.9190  113.2630 C.3   277  THR277      0.0375
    124  N         66.9700   98.3190  104.8910 N.3   300  GLY300     -0.1210
    125  CA        66.8340   99.4900  105.7410 C.3   300  GLY300      0.1956
    126  C         67.8990  100.5210  105.4540 C.2   300  GLY300      0.2612
    127  O         69.0160  100.4300  105.9660 O.2   300  GLY300     -0.2717
    128  N         67.5490  101.4910  104.6120 N.am  301  GLY301     -0.1956
    129  CA        68.4260  102.6040  104.3030 C.3   301  GLY301      0.1869
    130  C         69.5420  102.2860  103.3350 C.2   301  GLY301      0.2309
    131  O         70.4790  103.0690  103.1920 O.2   301  GLY301     -0.2863
    132  N         61.6430  101.8620   99.8450 N.3   323  ARG323     -0.1245
    133  CA        61.1460  103.1150   99.2890 C.3   323  ARG323      0.1563
    134  C         61.6290  103.4050   97.8610 C.2   323  ARG323      0.2260
    135  O         60.8370  103.8400   97.0410 O.2   323  ARG323     -0.2867
    136  CB        61.4970  104.2600  100.2390 C.3   323  ARG323      0.0307
    137  CG        60.7650  104.1410  101.5830 C.3   323  ARG323      0.0489
    138  CD        61.3940  105.0670  102.6360 C.3   323  ARG323      0.2205
    139  NE        62.7080  104.5860  103.0420 N.pl3 323  ARG323     -0.0865
    140  CZ        63.6540  105.3380  103.6030 C.cat 323  ARG323      0.5346
    141  NH1       63.4380  106.6290  103.8410 N.pl3 323  ARG323      0.1354
    142  NH2       64.8260  104.7980  103.9230 N.pl3 323  ARG323      0.1354
    143  N         60.4820  109.4260   95.4220 N.3   344  TYR344     -0.1241
    144  CA        59.1960  108.8240   95.7120 C.3   344  TYR344      0.1605
    145  C         58.2850  109.8460   96.3650 C.2   344  TYR344      0.2264
    146  O         58.7420  110.7570   97.0570 O.2   344  TYR344     -0.2867
    147  CB        59.3490  107.5910   96.6130 C.3   344  TYR344      0.0534
    148  CG        60.2710  107.7770   97.7940 C.ar  344  TYR344     -0.0201
    149  CD1       59.8170  108.3710   98.9720 C.ar  344  TYR344     -0.0009
    150  CD2       61.5960  107.3440   97.7430 C.ar  344  TYR344     -0.0009
    151  CE1       60.6570  108.5400  100.0530 C.ar  344  TYR344      0.0417
    152  CE2       62.4420  107.5110   98.8220 C.ar  344  TYR344      0.0417
    153  CZ        61.9620  108.1030   99.9750 C.ar  344  TYR344      0.1957
    154  OH        62.7900  108.2700  101.0480 O.3   344  TYR344     -0.2866
    155  N         55.7210  110.1070   99.1260 N.3   346  ARG346     -0.1245
    156  CA        55.1930  109.4560  100.3100 C.3   346  ARG346      0.1563
    157  C         53.6820  109.6610  100.4690 C.2   346  ARG346      0.2260
    158  O         53.0020  108.8280  101.0660 O.2   346  ARG346     -0.2867
    159  CB        55.9550  109.9650  101.5340 C.3   346  ARG346      0.0307
    160  CG        55.5050  109.4400  102.8590 C.3   346  ARG346      0.0489
    161  CD        56.5430  109.7730  103.9230 C.3   346  ARG346      0.2205
    162  NE        57.6880  108.8580  103.9060 N.pl3 346  ARG346     -0.0865
    163  CZ        57.6440  107.6190  104.3990 C.cat 346  ARG346      0.5346
    164  NH1       56.5080  107.1440  104.9100 N.pl3 346  ARG346      0.1354
    165  NH2       58.7240  106.8490  104.3680 N.pl3 346  ARG346      0.1354
    166  N         51.9490  106.5100   99.2420 N.3   349  PHE349     -0.1227
    167  CA        52.3370  105.1840   99.7140 C.3   349  PHE349      0.1736
    168  C         51.1280  104.3040  100.0330 C.2   349  PHE349      0.2595
    169  O         51.1120  103.1090   99.7050 O.2   349  PHE349     -0.2718
    170  CB        53.2090  105.2890  100.9620 C.3   349  PHE349      0.0547
    171  CG        54.6530  105.5840  100.6830 C.ar  349  PHE349     -0.0202
    172  CD1       55.1030  105.8110   99.3850 C.ar  349  PHE349     -0.0042
    173  CD2       55.5680  105.6300  101.7320 C.ar  349  PHE349     -0.0042
    174  CE1       56.4520  106.0690   99.1380 C.ar  349  PHE349     -0.0003
    175  CE2       56.9090  105.8880  101.4960 C.ar  349  PHE349     -0.0003
    176  CZ        57.3530  106.1120  100.1960 C.ar  349  PHE349     -0.0000
    177  N         50.1300  104.8810  100.7050 N.am  350  TYR350     -0.1976
    178  CA        49.0320  104.0770  101.2530 C.3   350  TYR350      0.1639
    179  C         47.6420  104.4730  100.7520 C.2   350  TYR350      0.2290
    180  O         46.6260  104.0370  101.3060 O.2   350  TYR350     -0.2864
    181  CB        49.0450  104.1560  102.7880 C.3   350  TYR350      0.0560
    182  CG        50.3790  103.8480  103.4260 C.ar  350  TYR350     -0.0198
    183  CD1       50.8630  102.5470  103.4750 C.ar  350  TYR350     -0.0009
    184  CD2       51.1500  104.8560  104.0090 C.ar  350  TYR350     -0.0009
    185  CE1       52.0880  102.2580  104.0670 C.ar  350  TYR350      0.0417
    186  CE2       52.3720  104.5710  104.6080 C.ar  350  TYR350      0.0417
    187  CZ        52.8280  103.2640  104.6380 C.ar  350  TYR350      0.1957
    188  OH        54.0350  102.9640  105.2220 O.3   350  TYR350     -0.2866
@<TRIPOS>BOND
     1   143   144    1
     2   144   145    1
     3   144   147    1
     4   145   146    2
     5   147   148    1
     6   135   134    2
     7   150   148   ar
     8   150   152   ar
     9   148   149   ar
    10   134   133    1
    11   152   153   ar
    12   149   151   ar
    13   155   156    1
    14   174   172   ar
    15   174   176   ar
    16   166   167    1
    17   133   132    1
    18   133   136    1
    19   172   171   ar
    20   169   168    2
    21   167   168    1
    22   167   170    1
    23   153   151   ar
    24   153   154    1
    25   168   177   am
    26   176   175   ar
    27   136   137    1
    28   156   157    1
    29   156   159    1
    30   157   158    2
    31   171   170    1
    32   171   173   ar
    33   177   178    1
    34   179   178    1
    35   179   180    2
    36     1     2    1
    37     1     7    1
    38     2     3    1
    39     2     5    1
    40   178   181    1
    41    10    11    2
    42    10     9    1
    43   175   173   ar
    44     3     4    2
    45   159   160    1
    46   137   138    1
    47    30    31    1
    48     8     9    1
    49     9    12    1
    50     7     6    1
    51     5     6    1
    52   138   139    1
    53   181   182    1
    54    15    16    1
    55   160   161    1
    56    18    17    2
    57    31    34    1
    58    31    32    1
    59   139   140    2
    60   131   130    2
    61    34    35    1
    62   130   129    1
    63   182   183   ar
    64   182   184   ar
    65    17    16    1
    66   183   185   ar
    67    12    14    1
    68    12    13    1
    69    33    32    2
    70   140   141    1
    71   140   142    1
    72   162   161    1
    73   162   163    2
    74   184   186   ar
    75   185   187   ar
    76   129   128    1
    77   165   163    1
    78   163   164    1
    79   186   187   ar
    80   128   126   am
    81   187   188    1
    82    35    36    1
    83   124   125    1
    84    95    93    1
    85    37    36    2
    86    36    38   am
    87   126   125    1
    88   126   127    2
    89    93    94    1
    90    93    92    2
    91    22    21    2
    92    92    91    1
    93    21    20    1
    94    51    49   ar
    95    51    52   ar
    96    23    24    1
    97    23    20    1
    98    49    46   ar
    99    26    28   ar
   100    26    24   ar
   101    28    29   ar
   102    91    90    1
   103    24    25   ar
   104    39    40    1
   105    20    19    1
   106    43    44    1
   107    43    40    1
   108    52    50   ar
   109    46    44   ar
   110    46    48   ar
   111    90    89    1
   112    44    45   ar
   113    89    86    1
   114    29    27   ar
   115    40    41    1
   116    25    27   ar
   117    60    58   ar
   118    60    62   ar
   119    50    48   ar
   120    48    47   ar
   121    42    41    2
   122    53    54    1
   123    57    58    1
   124    57    54    1
   125    85    86    1
   126    86    87    1
   127    58    59   ar
   128    62    61   ar
   129    71    69   ar
   130    71    72   ar
   131    54    55    1
   132    45    47   ar
   133    69    68   ar
   134    72    70   ar
   135    61    59   ar
   136   115   114    1
   137    87    88    2
   138   116   114    1
   139   114   113    2
   140    84    83    1
   141    55    56    2
   142    68    70   ar
   143    68    67    1
   144   113   112    1
   145   112   111    1
   146    82    83   ar
   147    82    80   ar
   148    83    81   ar
   149    80    78   ar
   150    67    64    1
   151    81    79   ar
   152   111   110    1
   153    78    79   ar
   154    78    77    1
   155   110   107    1
   156   105   104   ar
   157   105   103   ar
   158    63    64    1
   159    64    65    1
   160   104   102   ar
   161    77    74    1
   162   123   121    1
   163   103   101   ar
   164   107   106    1
   165   107   108    1
   166   102   101   ar
   167    66    65    2
   168   101   100    1
   169   122   121    1
   170   121   118    1
   171    74    73    1
   172    74    75    1
   173   100    97    1
   174   108   109    2
   175    75    76    2
   176   120   119    2
   177   118   119    1
   178   118   117    1
   179    97    96    1
   180    97    98    1
   181    98    99    2
