@<TRIPOS>MOLECULE
tmp/5dy2A00.pdb
 235 232 0 0 0
SMALL
GASTEIGER

@<TRIPOS>ATOM
      1  N        114.8610   14.8220   13.9900 N.3    22  ALA22      -0.1231
      2  CA       114.4830   14.7110   15.3990 C.3    22  ALA22       0.1679
      3  C        112.9620   14.6880   15.5470 C.2    22  ALA22       0.2434
      4  O        112.2550   15.2730   14.7180 O.2    22  ALA22      -0.2733
      5  CB       115.0750   15.8800   16.1930 C.3    22  ALA22       0.0304
      6  N        112.4550   14.0570   16.6150 N.am   23  PRO23      -0.2718
      7  CA       111.0160   14.1010   16.9020 C.3    23  PRO23       0.1535
      8  C        110.5610   15.5320   17.1910 C.2    23  PRO23       0.2598
      9  O        111.1920   16.2390   17.9660 O.2    23  PRO23      -0.2715
     10  CB       110.8790   13.1920   18.1360 C.3    23  PRO23       0.0310
     11  CG       112.2290   13.2540   18.8060 C.3    23  PRO23       0.0237
     12  CD       113.2080   13.3270   17.6530 C.3    23  PRO23       0.0939
     13  N        109.4890   15.9580   16.5340 N.am   24  LEU24      -0.1964
     14  CA       108.9830   17.3200   16.6540 C.3    24  LEU24       0.1728
     15  C        107.4580   17.3340   16.7300 C.2    24  LEU24       0.2617
     16  O        106.7770   17.0900   15.7360 O.2    24  LEU24      -0.2715
     17  CB       109.4300   18.1760   15.4620 C.3    24  LEU24       0.0311
     18  CG       110.9230   18.4390   15.2860 C.3    24  LEU24       0.0022
     19  CD1      111.2300   18.7630   13.8380 C.3    24  LEU24       0.0001
     20  CD2      111.3460   19.5870   16.1900 C.3    24  LEU24       0.0001
     21  N        106.9370   17.6190   17.9160 N.am   25  THR25      -0.1937
     22  CA       105.5100   17.8320   18.1180 C.3    25  THR25       0.2028
     23  C        105.0850   19.0680   17.3350 C.2    25  THR25       0.2642
     24  O        105.6850   20.1400   17.4860 O.2    25  THR25      -0.2714
     25  CB       105.2060   18.0100   19.6270 C.3    25  THR25       0.1808
     26  OG1      105.3710   16.7500   20.2930 O.3    25  THR25      -0.2208
     27  CG2      103.7860   18.5280   19.8670 C.3    25  THR25       0.0379
     28  N        104.0570   18.9240   16.5010 N.am   26  ARG26      -0.1977
     29  CA       103.6170   20.0210   15.6380 C.3    26  ARG26       0.1597
     30  C        102.0940   20.2520   15.6710 C.2    26  ARG26       0.2287
     31  O        101.6140   21.2580   15.1560 O.2    26  ARG26      -0.2864
     32  CB       104.0540   19.7820   14.1890 C.3    26  ARG26       0.0334
     33  CG       105.5660   19.6000   13.9920 C.3    26  ARG26       0.0492
     34  CD       106.4000   20.8090   14.4330 C.3    26  ARG26       0.2205
     35  NE       105.9270   22.0580   13.8420 N.pl3  26  ARG26      -0.0865
     36  CZ       106.1400   22.4210   12.5810 C.cat  26  ARG26       0.5346
     37  NH1      106.8630   21.6510   11.7720 N.pl3  26  ARG26       0.1354
     38  NH2      105.6540   23.5720   12.1280 N.pl3  26  ARG26       0.1354
     39  N        106.2030   13.0320   18.9040 N.3    56  GLY56      -0.1225
     40  CA       105.7130   12.1990   19.9970 C.3    56  GLY56       0.1811
     41  C        104.2840   11.7620   19.7170 C.2    56  GLY56       0.2280
     42  O        103.4470   12.5530   19.2790 O.2    56  GLY56      -0.2866
     43  N        107.8930    7.7660   17.6010 N.3    98  GLN98      -0.1245
     44  CA       108.2020    8.0500   19.0060 C.3    98  GLN98       0.1566
     45  C        106.9670    7.8760   19.9010 C.2    98  GLN98       0.2260
     46  O        105.9500    8.5460   19.7260 O.2    98  GLN98      -0.2867
     47  CB       108.7760    9.4630   19.2000 C.3    98  GLN98       0.0367
     48  CG       109.2840    9.6600   20.6410 C.3    98  GLN98       0.0905
     49  CD       109.6550   11.0840   20.9870 C.2    98  GLN98       0.2608
     50  OE1      108.8160   11.9780   20.9690 O.2    98  GLN98      -0.2717
     51  NE2      110.9210   11.2870   21.3440 N.am   98  GLN98      -0.0878
     52  N        105.0820    8.4000   23.2660 N.3   100  TRP100     -0.1241
     53  CA       105.1330    9.5350   24.1880 C.3   100  TRP100      0.1605
     54  C        104.0250    9.5400   25.2330 C.2   100  TRP100      0.2264
     55  O        102.8410    9.5250   24.8840 O.2   100  TRP100     -0.2867
     56  CB       105.0330   10.8260   23.3740 C.3   100  TRP100      0.0550
     57  CG       105.2550   12.1300   24.0830 C.ar  100  TRP100      0.0003
     58  CD1      105.9980   12.3680   25.2090 C.ar  100  TRP100      0.0946
     59  CD2      104.7430   13.3960   23.6610 C.ar  100  TRP100      0.0152
     60  NE1      105.9730   13.7190   25.5100 N.ar  100  TRP100     -0.2442
     61  CE2      105.2060   14.3640   24.5720 C.ar  100  TRP100      0.0810
     62  CE3      103.9310   13.8010   22.5970 C.ar  100  TRP100      0.0012
     63  CZ2      104.8910   15.7160   24.4470 C.ar  100  TRP100      0.0191
     64  CZ3      103.6180   15.1400   22.4780 C.ar  100  TRP100      0.0001
     65  CH2      104.0930   16.0790   23.3990 C.ar  100  TRP100      0.0015
     66  N        110.1490    7.7180   24.3080 N.3   177  HIS177     -0.1241
     67  CA       110.4320    9.0650   24.7940 C.3   177  HIS177      0.1621
     68  C        110.6270    9.0100   26.3130 C.2   177  HIS177      0.2264
     69  O        109.6520    8.9550   27.0730 O.2   177  HIS177     -0.2867
     70  CB       109.3010   10.0260   24.4220 C.3   177  HIS177      0.0745
     71  CG       109.6370   11.4730   24.6280 C.ar  177  HIS177      0.0817
     72  ND1      110.6200   11.8990   25.4960 N.ar  177  HIS177     -0.2268
     73  CD2      109.1130   12.5950   24.0730 C.ar  177  HIS177      0.1154
     74  CE1      110.6890   13.2200   25.4680 C.ar  177  HIS177      0.1986
     75  NE2      109.7850   13.6680   24.6120 N.ar  177  HIS177     -0.2212
     76  N        113.0890   14.9290   28.7710 N.3   180  HIS180     -0.1241
     77  CA       112.4290   16.2320   28.8690 C.3   180  HIS180      0.1621
     78  C        111.3110   16.3350   29.9050 C.2   180  HIS180      0.2264
     79  O        110.3330   17.0660   29.7170 O.2   180  HIS180     -0.2867
     80  CB       111.9020   16.6250   27.4890 C.3   180  HIS180      0.0745
     81  CG       112.9410   16.5390   26.4170 C.ar  180  HIS180      0.0817
     82  ND1      112.6320   16.3070   25.0940 N.ar  180  HIS180     -0.2268
     83  CD2      114.2910   16.6520   26.4760 C.ar  180  HIS180      0.1154
     84  CE1      113.7480   16.2770   24.3830 C.ar  180  HIS180      0.1986
     85  NE2      114.7690   16.4830   25.1970 N.ar  180  HIS180     -0.2212
     86  N        109.0370   14.3070   30.9570 N.3   182  TYR182     -0.1241
     87  CA       107.7530   13.6490   30.7570 C.3   182  TYR182      0.1605
     88  C        107.6780   12.4020   31.6510 C.2   182  TYR182      0.2264
     89  O        108.4850   12.2830   32.5830 O.2   182  TYR182     -0.2867
     90  CB       107.5470   13.3670   29.2630 C.3   182  TYR182      0.0534
     91  CG       107.3680   14.6710   28.5040 C.ar  182  TYR182     -0.0201
     92  CD1      106.3030   15.5210   28.7950 C.ar  182  TYR182     -0.0009
     93  CD2      108.2820   15.0790   27.5390 C.ar  182  TYR182     -0.0009
     94  CE1      106.1300   16.7200   28.1210 C.ar  182  TYR182      0.0417
     95  CE2      108.1170   16.2800   26.8660 C.ar  182  TYR182      0.0417
     96  CZ       107.0440   17.0870   27.1580 C.ar  182  TYR182      0.1957
     97  OH       106.8690   18.2820   26.4910 O.3   182  TYR182     -0.2866
     98  N        115.1840    7.4930   23.9500 N.3   229  ARG229     -0.1245
     99  CA       115.6500    8.8730   24.0660 C.3   229  ARG229      0.1563
    100  C        115.6420    9.3260   25.5250 C.2   229  ARG229      0.2260
    101  O        114.6390    9.1890   26.2210 O.2   229  ARG229     -0.2867
    102  CB       114.7890    9.8160   23.2050 C.3   229  ARG229      0.0307
    103  CG       115.4550   11.1940   23.0170 C.3   229  ARG229      0.0489
    104  CD       114.6300   12.1850   22.1850 C.3   229  ARG229      0.2205
    105  NE       115.4950   12.9530   21.2850 N.pl3 229  ARG229     -0.0865
    106  CZ       115.2020   14.1660   20.8130 C.cat 229  ARG229      0.5346
    107  NH1      114.0960   14.7870   21.1930 N.pl3 229  ARG229      0.1354
    108  NH2      116.0340   14.7660   19.9710 N.pl3 229  ARG229      0.1354
    109  N        119.6950   14.0840   24.1220 N.3   268  THR268     -0.1218
    110  CA       119.7260   15.5110   23.8280 C.3   268  THR268      0.1862
    111  C        120.6040   16.2410   24.8280 C.2   268  THR268      0.2287
    112  O        120.7800   15.8000   25.9710 O.2   268  THR268     -0.2866
    113  CB       118.3330   16.1460   23.8450 C.3   268  THR268      0.1770
    114  OG1      117.7810   16.0940   25.1690 O.3   268  THR268     -0.2211
    115  CG2      117.4160   15.4180   22.8890 C.3   268  THR268      0.0375
    116  N        121.6020   27.4700   19.3830 N.3   277  HIS277     -0.1241
    117  CA       122.3520   26.7160   18.3800 C.3   277  HIS277      0.1621
    118  C        123.8430   26.9000   18.5960 C.2   277  HIS277      0.2264
    119  O        124.2880   27.9880   18.9650 O.2   277  HIS277     -0.2867
    120  CB       122.0110   27.1700   16.9610 C.3   277  HIS277      0.0745
    121  CG       120.5720   26.9990   16.5940 C.ar  277  HIS277      0.0817
    122  ND1      120.0550   25.7960   16.1680 N.ar  277  HIS277     -0.2268
    123  CD2      119.5470   27.8840   16.5620 C.ar  277  HIS277      0.1154
    124  CE1      118.7680   25.9440   15.9000 C.ar  277  HIS277      0.1986
    125  NE2      118.4370   27.2020   16.1250 N.ar  277  HIS277     -0.2212
    126  N        121.7080   15.0700   19.7870 N.3   308  CYS308     -0.1221
    127  CA       120.8190   16.1290   19.3380 C.3   308  CYS308      0.1808
    128  C        120.8640   17.2970   20.3000 C.2   308  CYS308      0.2602
    129  O        121.1620   17.1340   21.4870 O.2   308  CYS308     -0.2717
    130  CB       119.3880   15.5990   19.2110 C.3   308  CYS308      0.0970
    131  SG       118.2130   16.7050   18.3530 S.3   308  CYS308     -0.0800
    132  N        120.5660   18.4800   19.7860 N.am  309  GLY309     -0.1942
    133  CA       120.4510   19.6540   20.6200 C.3   309  GLY309      0.2014
    134  C        121.4700   20.7010   20.2490 C.2   309  GLY309      0.2639
    135  O        122.6330   20.6270   20.6680 O.2   309  GLY309     -0.2714
    136  N        121.0390   21.6560   19.4290 N.am  310  GLY310     -0.1939
    137  CA       121.8880   22.7690   19.0320 C.3   310  GLY310      0.2014
    138  C        122.9670   22.4310   18.0260 C.2   310  GLY310      0.2638
    139  O        123.8940   23.2210   17.8240 O.2   310  GLY310     -0.2714
    140  N        122.8850   21.2650   17.3910 N.am  311  TYR311     -0.1973
    141  CA       123.9140   20.9150   16.4170 C.3   311  TYR311      0.1639
    142  C        123.7430   21.7290   15.1430 C.2   311  TYR311      0.2290
    143  O        122.6490   21.9140   14.6190 O.2   311  TYR311     -0.2864
    144  CB       123.9230   19.3990   16.1260 C.3   311  TYR311      0.0560
    145  CG       124.5580   18.6450   17.2690 C.ar  311  TYR311     -0.0198
    146  CD1      123.8180   18.3130   18.3960 C.ar  311  TYR311     -0.0009
    147  CD2      125.9200   18.3160   17.2530 C.ar  311  TYR311     -0.0009
    148  CE1      124.4080   17.6640   19.4700 C.ar  311  TYR311      0.0417
    149  CE2      126.5090   17.6550   18.3210 C.ar  311  TYR311      0.0417
    150  CZ       125.7490   17.3370   19.4260 C.ar  311  TYR311      0.1957
    151  OH       126.3180   16.6880   20.5050 O.3   311  TYR311     -0.2866
    152  N        120.9170   14.2050   15.0600 N.3   329  ALA329     -0.1231
    153  CA       119.5540   14.6380   14.7690 C.3   329  ALA329      0.1694
    154  C        119.4360   16.1530   14.8320 C.2   329  ALA329      0.2592
    155  O        120.1530   16.8270   15.5790 O.2   329  ALA329     -0.2718
    156  CB       118.5710   13.9840   15.7150 C.3   329  ALA329      0.0304
    157  N        118.5350   16.6690   14.0030 N.am  330  PHE330     -0.1962
    158  CA       118.2090   18.0890   13.9250 C.3   330  PHE330      0.1771
    159  C        116.7110   18.3160   14.0940 C.2   330  PHE330      0.2620
    160  O        115.8880   17.6450   13.4500 O.2   330  PHE330     -0.2715
    161  CB       118.6690   18.6520   12.5830 C.3   330  PHE330      0.0574
    162  CG       120.1440   18.5200   12.3480 C.ar  330  PHE330     -0.0200
    163  CD1      120.6710   17.3590   11.8060 C.ar  330  PHE330     -0.0042
    164  CD2      121.0020   19.5650   12.6640 C.ar  330  PHE330     -0.0042
    165  CE1      122.0340   17.2350   11.5770 C.ar  330  PHE330     -0.0003
    166  CE2      122.3780   19.4450   12.4380 C.ar  330  PHE330     -0.0003
    167  CZ       122.8870   18.2870   11.8970 C.ar  330  PHE330     -0.0000
    168  N        116.3690   19.2610   14.9660 N.am  331  GLY331     -0.1940
    169  CA       114.9820   19.5900   15.2520 C.3   331  GLY331      0.2014
    170  C        114.5250   20.8500   14.5400 C.2   331  GLY331      0.2639
    171  O        113.9100   20.7690   13.4750 O.2   331  GLY331     -0.2714
    172  N        114.8330   22.0130   15.1170 N.am  332  ARG332     -0.1963
    173  CA       114.3170   23.2730   14.5920 C.3   332  ARG332      0.1729
    174  C        114.6840   23.5130   13.1200 C.2   332  ARG332      0.2616
    175  O        113.8640   24.0000   12.3540 O.2   332  ARG332     -0.2715
    176  CB       114.8040   24.4260   15.4690 C.3   332  ARG332      0.0348
    177  CG       114.1100   24.4420   16.8310 C.3   332  ARG332      0.0492
    178  CD       114.8210   25.3630   17.7880 C.3   332  ARG332      0.2205
    179  NE       116.1190   24.7970   18.1630 N.pl3 332  ARG332     -0.0865
    180  CZ       117.0920   25.4840   18.7550 C.cat 332  ARG332      0.5346
    181  NH1      116.9350   26.7790   19.0290 N.pl3 332  ARG332      0.1354
    182  NH2      118.2250   24.8780   19.0650 N.pl3 332  ARG332      0.1354
    183  N        115.9020   23.1660   12.7050 N.am  333  TYR333     -0.1974
    184  CA       116.2630   23.3520   11.3040 C.3   333  TYR333      0.1639
    185  C        115.3850   22.5220   10.3650 C.2   333  TYR333      0.2290
    186  O        115.0970   22.9240    9.2370 O.2   333  TYR333     -0.2864
    187  CB       117.7380   22.9990   11.0720 C.3   333  TYR333      0.0560
    188  CG       118.7290   23.9730   11.6630 C.ar  333  TYR333     -0.0198
    189  CD1      118.4000   25.3110   11.8420 C.ar  333  TYR333     -0.0009
    190  CD2      119.9970   23.5490   12.0420 C.ar  333  TYR333     -0.0009
    191  CE1      119.3170   26.2140   12.3890 C.ar  333  TYR333      0.0417
    192  CE2      120.9170   24.4430   12.5880 C.ar  333  TYR333      0.0417
    193  CZ       120.5670   25.7650   12.7620 C.ar  333  TYR333      0.1957
    194  OH       121.4860   26.6490   13.3050 O.3   333  TYR333     -0.2866
    195  N        112.2250   21.8270   10.8810 N.3   335  VAL335     -0.1245
    196  CA       110.9320   22.5000   10.7520 C.3   335  VAL335      0.1561
    197  C        110.8740   23.3060    9.4520 C.2   335  VAL335      0.2260
    198  O        109.9250   23.1740    8.6710 O.2   335  VAL335     -0.2867
    199  CB       110.6370   23.4370   11.9540 C.3   335  VAL335      0.0252
    200  CG1      109.4050   24.3070   11.6840 C.3   335  VAL335      0.0019
    201  CG2      110.4320   22.6060   13.2220 C.3   335  VAL335      0.0019
    202  N        108.7600   30.2140   14.9700 N.3   355  ARG355     -0.1245
    203  CA       108.2900   29.6110   16.2080 C.3   355  ARG355      0.1563
    204  C        106.7940   29.8230   16.4160 C.2   355  ARG355      0.2260
    205  O        106.1690   29.0530   17.1300 O.2   355  ARG355     -0.2867
    206  CB       109.0710   30.1710   17.3980 C.3   355  ARG355      0.0307
    207  CG       110.5360   29.7400   17.4470 C.3   355  ARG355      0.0489
    208  CD       111.2010   30.3270   18.6840 C.3   355  ARG355      0.2205
    209  NE       112.5920   29.9120   18.8620 N.pl3 355  ARG355     -0.0865
    210  CZ       112.9760   28.8070   19.5010 C.cat 355  ARG355      0.5346
    211  NH1      112.0730   27.9800   20.0080 N.pl3 355  ARG355      0.1354
    212  NH2      114.2680   28.5210   19.6190 N.pl3 355  ARG355      0.1354
    213  N        104.9580   26.7360   15.2460 N.3   358  PHE358     -0.1227
    214  CA       105.3970   25.4240   15.7280 C.3   358  PHE358      0.1736
    215  C        104.1870   24.5480   16.0920 C.2   358  PHE358      0.2595
    216  O        104.1550   23.3560   15.7680 O.2   358  PHE358     -0.2718
    217  CB       106.3160   25.5530   16.9540 C.3   358  PHE358      0.0547
    218  CG       107.7770   25.8140   16.6320 C.ar  358  PHE358     -0.0202
    219  CD1      108.2290   25.9740   15.3260 C.ar  358  PHE358     -0.0042
    220  CD2      108.7040   25.8830   17.6730 C.ar  358  PHE358     -0.0042
    221  CE1      109.5950   26.2140   15.0650 C.ar  358  PHE358     -0.0003
    222  CE2      110.0550   26.1090   17.4210 C.ar  358  PHE358     -0.0003
    223  CZ       110.5010   26.2700   16.1170 C.ar  358  PHE358     -0.0000
    224  N        103.2080   25.1390   16.7790 N.am  359  TYR359     -0.1976
    225  CA       102.1490   24.3680   17.4430 C.3   359  TYR359      0.1639
    226  C        100.7380   24.7980   17.0520 C.2   359  TYR359      0.2290
    227  O         99.7660   24.4240   17.7050 O.2   359  TYR359     -0.2864
    228  CB       102.2910   24.4770   18.9600 C.3   359  TYR359      0.0560
    229  CG       103.6600   24.1410   19.4860 C.ar  359  TYR359     -0.0198
    230  CD1      104.1640   22.8530   19.4040 C.ar  359  TYR359     -0.0009
    231  CD2      104.4450   25.1120   20.0810 C.ar  359  TYR359     -0.0009
    232  CE1      105.4130   22.5410   19.9020 C.ar  359  TYR359      0.0417
    233  CE2      105.7020   24.8150   20.5680 C.ar  359  TYR359      0.0417
    234  CZ       106.1790   23.5260   20.4830 C.ar  359  TYR359      0.1957
    235  OH       107.4260   23.2240   20.9850 O.3   359  TYR359     -0.2866
@<TRIPOS>BOND
     1   198   197    2
     2   186   185    2
     3   197   196    1
     4   185   184    1
     5   196   195    1
     6   196   199    1
     7   187   184    1
     8   187   188    1
     9   184   183    1
    10   165   163   ar
    11   165   167   ar
    12   188   189   ar
    13   188   190   ar
    14   200   199    1
    15    37    36    1
    16   163   162   ar
    17   189   191   ar
    18   167   166   ar
    19   199   201    1
    20   190   192   ar
    21    38    36    1
    22   162   161    1
    23   162   164   ar
    24   175   174    2
    25   191   193   ar
    26   166   164   ar
    27    36    35    2
    28   161   158    1
    29   192   193   ar
    30   183   174   am
    31   193   194    1
    32   174   173    1
    33   160   159    2
    34   171   170    2
    35    19    18    1
    36    35    34    1
    37   158   157    1
    38   158   159    1
    39     1     2    1
    40    33    32    1
    41    33    34    1
    42   157   154   am
    43   159   168   am
    44    32    29    1
    45   170   172   am
    46   170   169    1
    47   173   172    1
    48   173   176    1
    49   143   142    2
    50     4     3    2
    51   153   154    1
    52   153   152    1
    53   153   156    1
    54   154   155    2
    55   168   169    1
    56   202   203    1
    57   221   219   ar
    58   221   223   ar
    59   142   141    1
    60    31    30    2
    61   213   214    1
    62    18    17    1
    63    18    20    1
    64   219   218   ar
    65     2     3    1
    66     2     5    1
    67    17    14    1
    68   176   177    1
    69     3     6   am
    70    29    30    1
    71    29    28    1
    72   214   215    1
    73   214   217    1
    74    16    15    2
    75   216   215    2
    76   124   125   ar
    77   124   122   ar
    78   215   224   am
    79   223   222   ar
    80   125   123   ar
    81   144   141    1
    82   144   145    1
    83   122   121   ar
    84   203   204    1
    85   203   206    1
    86   204   205    2
    87   141   140    1
    88    28    23   am
    89    13    14    1
    90    13     8   am
    91   123   121   ar
    92   121   120    1
    93     6     7    1
    94     6    12    1
    95   218   217    1
    96   218   220   ar
    97    14    15    1
    98    15    21   am
    99   224   225    1
   100   177   178    1
   101     7     8    1
   102     7    10    1
   103   120   117    1
   104   226   225    1
   105   226   227    2
   106     8     9    2
   107   147   145   ar
   108   147   149   ar
   109   145   146   ar
   110    23    24    2
   111    23    22    1
   112   140   138   am
   113   206   207    1
   114   222   220   ar
   115   225   228    1
   116   207   208    1
   117    43    44    1
   118    12    11    1
   119   178   179    1
   120   139   138    2
   121    21    22    1
   122   138   137    1
   123    22    25    1
   124    10    11    1
   125   179   180    2
   126   149   150   ar
   127   131   130    1
   128   117   118    1
   129   117   116    1
   130   146   148   ar
   131   118   119    2
   132   208   209    1
   133   180   181    1
   134   180   182    1
   135   209   210    2
   136    39    40    1
   137   228   229    1
   138    44    47    1
   139    44    45    1
   140   137   136    1
   141    47    48    1
   142   130   127    1
   143    42    41    2
   144   127   126    1
   145   127   128    1
   146   230   229   ar
   147   230   232   ar
   148   150   148   ar
   149   150   151    1
   150   136   134   am
   151   229   231   ar
   152   210   212    1
   153   210   211    1
   154    25    27    1
   155    25    26    1
   156    41    40    1
   157    46    45    2
   158   132   128   am
   159   132   133    1
   160   232   234   ar
   161   108   106    1
   162   231   233   ar
   163   134   133    1
   164   134   135    2
   165   128   129    2
   166   234   233   ar
   167   234   235    1
   168    48    49    1
   169   106   107    1
   170   106   105    2
   171    50    49    2
   172    49    51   am
   173   105   104    1
   174   104   103    1
   175    64    62   ar
   176    64    65   ar
   177    62    59   ar
   178   115   113    1
   179   103   102    1
   180   102    99    1
   181    52    53    1
   182    56    57    1
   183    56    53    1
   184    65    63   ar
   185    59    57   ar
   186    59    61   ar
   187   110   113    1
   188   110   109    1
   189   110   111    1
   190   113   114    1
   191    98    99    1
   192    99   100    1
   193    73    75   ar
   194    73    71   ar
   195    57    58   ar
   196    53    54    1
   197    66    67    1
   198    84    82   ar
   199    84    85   ar
   200    70    71    1
   201    70    67    1
   202    63    61   ar
   203    61    60   ar
   204    75    74   ar
   205    71    72   ar
   206    67    68    1
   207   111   112    2
   208    55    54    2
   209    82    81   ar
   210    85    83   ar
   211    58    60   ar
   212    74    72   ar
   213   100   101    2
   214    68    69    2
   215    81    83   ar
   216    81    80    1
   217    97    96    1
   218    95    96   ar
   219    95    93   ar
   220    96    94   ar
   221    80    77    1
   222    93    91   ar
   223    94    92   ar
   224    91    92   ar
   225    91    90    1
   226    76    77    1
   227    77    78    1
   228    90    87    1
   229    79    78    2
   230    87    86    1
   231    87    88    1
   232    88    89    2
