@<TRIPOS>MOLECULE
tmp/5dy2A01.pdb
 100 97 0 0 0
SMALL
GASTEIGER

@<TRIPOS>ATOM
      1  N        106.9370   17.6190   17.9160 N.3    25  THR25      -0.1218
      2  CA       105.5100   17.8320   18.1180 C.3    25  THR25       0.1862
      3  C        105.0850   19.0680   17.3350 C.2    25  THR25       0.2287
      4  O        105.6850   20.1400   17.4860 O.2    25  THR25      -0.2866
      5  CB       105.2060   18.0100   19.6270 C.3    25  THR25       0.1770
      6  OG1      105.3710   16.7500   20.2930 O.3    25  THR25      -0.2211
      7  CG2      103.7860   18.5280   19.8670 C.3    25  THR25       0.0375
      8  N        106.2030   13.0320   18.9040 N.3    56  GLY56      -0.1225
      9  CA       105.7130   12.1990   19.9970 C.3    56  GLY56       0.1811
     10  C        104.2840   11.7620   19.7170 C.2    56  GLY56       0.2280
     11  O        103.4470   12.5530   19.2790 O.2    56  GLY56      -0.2866
     12  N         99.3370   18.0830   24.7320 N.3    66  PHE66      -0.1241
     13  CA        99.3490   19.0510   23.6300 C.3    66  PHE66       0.1605
     14  C         98.0950   18.7980   22.7960 C.2    66  PHE66       0.2264
     15  O         97.5730   17.6780   22.7780 O.2    66  PHE66      -0.2867
     16  CB       100.6000   18.8950   22.7440 C.3    66  PHE66       0.0534
     17  CG       101.8170   19.6420   23.2110 C.ar   66  PHE66      -0.0203
     18  CD1      102.6390   19.1170   24.1950 C.ar   66  PHE66      -0.0042
     19  CD2      102.1810   20.8490   22.6130 C.ar   66  PHE66      -0.0042
     20  CE1      103.7770   19.7900   24.5980 C.ar   66  PHE66      -0.0003
     21  CE2      103.3300   21.5280   23.0100 C.ar   66  PHE66      -0.0003
     22  CZ       104.1220   21.0060   24.0040 C.ar   66  PHE66      -0.0000
     23  N        107.8930    7.7660   17.6010 N.3    98  GLN98      -0.1245
     24  CA       108.2020    8.0500   19.0060 C.3    98  GLN98       0.1566
     25  C        106.9670    7.8760   19.9010 C.2    98  GLN98       0.2260
     26  O        105.9500    8.5460   19.7260 O.2    98  GLN98      -0.2867
     27  CB       108.7760    9.4630   19.2000 C.3    98  GLN98       0.0367
     28  CG       109.2840    9.6600   20.6410 C.3    98  GLN98       0.0905
     29  CD       109.6550   11.0840   20.9870 C.2    98  GLN98       0.2608
     30  OE1      108.8160   11.9780   20.9690 O.2    98  GLN98      -0.2717
     31  NE2      110.9210   11.2870   21.3440 N.am   98  GLN98      -0.0878
     32  N        105.0820    8.4000   23.2660 N.3   100  TRP100     -0.1241
     33  CA       105.1330    9.5350   24.1880 C.3   100  TRP100      0.1605
     34  C        104.0250    9.5400   25.2330 C.2   100  TRP100      0.2264
     35  O        102.8410    9.5250   24.8840 O.2   100  TRP100     -0.2867
     36  CB       105.0330   10.8260   23.3740 C.3   100  TRP100      0.0550
     37  CG       105.2550   12.1300   24.0830 C.ar  100  TRP100      0.0003
     38  CD1      105.9980   12.3680   25.2090 C.ar  100  TRP100      0.0946
     39  CD2      104.7430   13.3960   23.6610 C.ar  100  TRP100      0.0152
     40  NE1      105.9730   13.7190   25.5100 N.ar  100  TRP100     -0.2442
     41  CE2      105.2060   14.3640   24.5720 C.ar  100  TRP100      0.0810
     42  CE3      103.9310   13.8010   22.5970 C.ar  100  TRP100      0.0012
     43  CZ2      104.8910   15.7160   24.4470 C.ar  100  TRP100      0.0191
     44  CZ3      103.6180   15.1400   22.4780 C.ar  100  TRP100      0.0001
     45  CH2      104.0930   16.0790   23.3990 C.ar  100  TRP100      0.0015
     46  N        110.1490    7.7180   24.3080 N.3   177  HIS177     -0.1241
     47  CA       110.4320    9.0650   24.7940 C.3   177  HIS177      0.1621
     48  C        110.6270    9.0100   26.3130 C.2   177  HIS177      0.2264
     49  O        109.6520    8.9550   27.0730 O.2   177  HIS177     -0.2867
     50  CB       109.3010   10.0260   24.4220 C.3   177  HIS177      0.0745
     51  CG       109.6370   11.4730   24.6280 C.ar  177  HIS177      0.0817
     52  ND1      110.6200   11.8990   25.4960 N.ar  177  HIS177     -0.2268
     53  CD2      109.1130   12.5950   24.0730 C.ar  177  HIS177      0.1154
     54  CE1      110.6890   13.2200   25.4680 C.ar  177  HIS177      0.1986
     55  NE2      109.7850   13.6680   24.6120 N.ar  177  HIS177     -0.2212
     56  N        113.0890   14.9290   28.7710 N.3   180  HIS180     -0.1241
     57  CA       112.4290   16.2320   28.8690 C.3   180  HIS180      0.1621
     58  C        111.3110   16.3350   29.9050 C.2   180  HIS180      0.2264
     59  O        110.3330   17.0660   29.7170 O.2   180  HIS180     -0.2867
     60  CB       111.9020   16.6250   27.4890 C.3   180  HIS180      0.0745
     61  CG       112.9410   16.5390   26.4170 C.ar  180  HIS180      0.0817
     62  ND1      112.6320   16.3070   25.0940 N.ar  180  HIS180     -0.2268
     63  CD2      114.2910   16.6520   26.4760 C.ar  180  HIS180      0.1154
     64  CE1      113.7480   16.2770   24.3830 C.ar  180  HIS180      0.1986
     65  NE2      114.7690   16.4830   25.1970 N.ar  180  HIS180     -0.2212
     66  N        109.0370   14.3070   30.9570 N.3   182  TYR182     -0.1241
     67  CA       107.7530   13.6490   30.7570 C.3   182  TYR182      0.1605
     68  C        107.6780   12.4020   31.6510 C.2   182  TYR182      0.2264
     69  O        108.4850   12.2830   32.5830 O.2   182  TYR182     -0.2867
     70  CB       107.5470   13.3670   29.2630 C.3   182  TYR182      0.0534
     71  CG       107.3680   14.6710   28.5040 C.ar  182  TYR182     -0.0201
     72  CD1      106.3030   15.5210   28.7950 C.ar  182  TYR182     -0.0009
     73  CD2      108.2820   15.0790   27.5390 C.ar  182  TYR182     -0.0009
     74  CE1      106.1300   16.7200   28.1210 C.ar  182  TYR182      0.0417
     75  CE2      108.1170   16.2800   26.8660 C.ar  182  TYR182      0.0417
     76  CZ       107.0440   17.0870   27.1580 C.ar  182  TYR182      0.1957
     77  OH       106.8690   18.2820   26.4910 O.3   182  TYR182     -0.2866
     78  N        115.1840    7.4930   23.9500 N.3   229  ARG229     -0.1245
     79  CA       115.6500    8.8730   24.0660 C.3   229  ARG229      0.1563
     80  C        115.6420    9.3260   25.5250 C.2   229  ARG229      0.2260
     81  O        114.6390    9.1890   26.2210 O.2   229  ARG229     -0.2867
     82  CB       114.7890    9.8160   23.2050 C.3   229  ARG229      0.0307
     83  CG       115.4550   11.1940   23.0170 C.3   229  ARG229      0.0489
     84  CD       114.6300   12.1850   22.1850 C.3   229  ARG229      0.2205
     85  NE       115.4950   12.9530   21.2850 N.pl3 229  ARG229     -0.0865
     86  CZ       115.2020   14.1660   20.8130 C.cat 229  ARG229      0.5346
     87  NH1      114.0960   14.7870   21.1930 N.pl3 229  ARG229      0.1354
     88  NH2      116.0340   14.7660   19.9710 N.pl3 229  ARG229      0.1354
     89  N        103.2080   25.1390   16.7790 N.3   359  TYR359     -0.1241
     90  CA       102.1490   24.3680   17.4430 C.3   359  TYR359      0.1605
     91  C        100.7380   24.7980   17.0520 C.2   359  TYR359      0.2264
     92  O         99.7660   24.4240   17.7050 O.2   359  TYR359     -0.2867
     93  CB       102.2910   24.4770   18.9600 C.3   359  TYR359      0.0534
     94  CG       103.6600   24.1410   19.4860 C.ar  359  TYR359     -0.0201
     95  CD1      104.1640   22.8530   19.4040 C.ar  359  TYR359     -0.0009
     96  CD2      104.4450   25.1120   20.0810 C.ar  359  TYR359     -0.0009
     97  CE1      105.4130   22.5410   19.9020 C.ar  359  TYR359      0.0417
     98  CE2      105.7020   24.8150   20.5680 C.ar  359  TYR359      0.0417
     99  CZ       106.1790   23.5260   20.4830 C.ar  359  TYR359      0.1957
    100  OH       107.4260   23.2240   20.9850 O.3   359  TYR359     -0.2866
@<TRIPOS>BOND
     1    89    90    1
     2    91    90    1
     3    91    92    2
     4     3     4    2
     5     3     2    1
     6    90    93    1
     7    23    24    1
     8     1     2    1
     9     2     5    1
    10     8     9    1
    11    93    94    1
    12    24    27    1
    13    24    25    1
    14    27    28    1
    15    11    10    2
    16    95    94   ar
    17    95    97   ar
    18    94    96   ar
    19     5     7    1
    20     5     6    1
    21    10     9    1
    22    26    25    2
    23    97    99   ar
    24    88    86    1
    25    96    98   ar
    26    99    98   ar
    27    99   100    1
    28    28    29    1
    29    86    87    1
    30    86    85    2
    31    30    29    2
    32    29    31   am
    33    85    84    1
    34    84    83    1
    35    44    42   ar
    36    44    45   ar
    37    42    39   ar
    38    19    21   ar
    39    19    17   ar
    40    16    17    1
    41    16    13    1
    42    15    14    2
    43    14    13    1
    44    21    22   ar
    45    83    82    1
    46    82    79    1
    47    17    18   ar
    48    32    33    1
    49    36    37    1
    50    36    33    1
    51    45    43   ar
    52    13    12    1
    53    39    37   ar
    54    39    41   ar
    55    78    79    1
    56    22    20   ar
    57    79    80    1
    58    53    55   ar
    59    53    51   ar
    60    37    38   ar
    61    33    34    1
    62    18    20   ar
    63    46    47    1
    64    64    62   ar
    65    64    65   ar
    66    50    51    1
    67    50    47    1
    68    43    41   ar
    69    41    40   ar
    70    55    54   ar
    71    51    52   ar
    72    47    48    1
    73    35    34    2
    74    62    61   ar
    75    65    63   ar
    76    38    40   ar
    77    54    52   ar
    78    80    81    2
    79    48    49    2
    80    61    63   ar
    81    61    60    1
    82    77    76    1
    83    75    76   ar
    84    75    73   ar
    85    76    74   ar
    86    60    57    1
    87    73    71   ar
    88    74    72   ar
    89    71    72   ar
    90    71    70    1
    91    56    57    1
    92    57    58    1
    93    70    67    1
    94    59    58    2
    95    67    66    1
    96    67    68    1
    97    68    69    2
