@<TRIPOS>MOLECULE
tmp/5dy3A01.pdb
 113 111 0 0 0
SMALL
GASTEIGER

@<TRIPOS>ATOM
      1  N        111.4010  175.2250   16.6200 N.3    23  PRO23      -0.2116
      2  CA       109.9540  175.2560   16.8430 C.3    23  PRO23       0.1372
      3  C        109.4950  176.6670   17.2010 C.2    23  PRO23       0.2244
      4  O        110.0890  177.3230   18.0500 O.2    23  PRO23      -0.2868
      5  CB       109.7580  174.2740   18.0070 C.3    23  PRO23       0.0268
      6  CG       111.0800  174.2240   18.6900 C.3    23  PRO23       0.0207
      7  CD       112.0950  174.3720   17.6050 C.3    23  PRO23       0.0892
      8  N        105.8190  178.8930   17.7560 N.3    25  THR25      -0.1218
      9  CA       104.3810  179.1390   17.8170 C.3    25  THR25       0.1862
     10  C        104.0020  180.3630   16.9870 C.2    25  THR25       0.2287
     11  O        104.5310  181.4590   17.2070 O.2    25  THR25      -0.2866
     12  CB       103.9220  179.3450   19.2690 C.3    25  THR25       0.1770
     13  OG1      104.0640  178.1100   19.9790 O.3    25  THR25      -0.2211
     14  CG2      102.4760  179.7840   19.3150 C.3    25  THR25       0.0375
     15  N         97.6850  179.1180   23.7720 N.3    66  PHE66      -0.1241
     16  CA        97.7590  180.1230   22.7090 C.3    66  PHE66       0.1605
     17  C         96.5560  179.8900   21.7920 C.2    66  PHE66       0.2264
     18  O         96.0420  178.7650   21.7250 O.2    66  PHE66      -0.2867
     19  CB        99.0620  179.9920   21.8940 C.3    66  PHE66       0.0534
     20  CG       100.2350  180.7500   22.4470 C.ar   66  PHE66      -0.0203
     21  CD1      100.9690  180.2500   23.5160 C.ar   66  PHE66      -0.0042
     22  CD2      100.6390  181.9450   21.8570 C.ar   66  PHE66      -0.0042
     23  CE1      102.0730  180.9460   24.0140 C.ar   66  PHE66      -0.0003
     24  CE2      101.7400  182.6430   22.3430 C.ar   66  PHE66      -0.0003
     25  CZ       102.4520  182.1480   23.4270 C.ar   66  PHE66      -0.0000
     26  N        106.7300  168.8960   17.1510 N.3    98  GLN98      -0.1245
     27  CA       106.9490  169.1550   18.5690 C.3    98  GLN98       0.1566
     28  C        105.6640  168.9840   19.3790 C.2    98  GLN98       0.2260
     29  O        104.6680  169.6750   19.1340 O.2    98  GLN98      -0.2867
     30  CB       107.5180  170.5620   18.8090 C.3    98  GLN98       0.0367
     31  CG       107.9480  170.7420   20.2730 C.3    98  GLN98       0.0905
     32  CD       108.2520  172.1830   20.6350 C.2    98  GLN98       0.2608
     33  OE1      107.3750  173.0370   20.5700 O.2    98  GLN98      -0.2717
     34  NE2      109.5020  172.4600   21.0130 N.am   98  GLN98      -0.0878
     35  N        103.5080  169.4580   22.6170 N.3   100  TRP100     -0.1241
     36  CA       103.5000  170.5960   23.5300 C.3   100  TRP100      0.1605
     37  C        102.3290  170.5730   24.4970 C.2   100  TRP100      0.2264
     38  O        101.1810  170.5590   24.0730 O.2   100  TRP100     -0.2867
     39  CB       103.4440  171.8830   22.6960 C.3   100  TRP100      0.0550
     40  CG       103.6110  173.1730   23.4360 C.ar  100  TRP100      0.0003
     41  CD1      104.2820  173.3890   24.6030 C.ar  100  TRP100      0.0946
     42  CD2      103.1210  174.4490   23.0120 C.ar  100  TRP100      0.0152
     43  NE1      104.2300  174.7310   24.9370 N.ar  100  TRP100     -0.2442
     44  CE2      103.5180  175.3960   23.9770 C.ar  100  TRP100      0.0810
     45  CE3      102.3700  174.8730   21.9150 C.ar  100  TRP100      0.0012
     46  CZ2      103.1970  176.7490   23.8700 C.ar  100  TRP100      0.0191
     47  CZ3      102.0520  176.2200   21.8070 C.ar  100  TRP100      0.0001
     48  CH2      102.4630  177.1380   22.7810 C.ar  100  TRP100      0.0015
     49  N        108.5440  168.7040   23.9990 N.3   177  HIS177     -0.1241
     50  CA       108.7510  170.0460   24.5240 C.3   177  HIS177      0.1621
     51  C        108.8320  169.9940   26.0550 C.2   177  HIS177      0.2264
     52  O        107.8060  169.9400   26.7390 O.2   177  HIS177     -0.2867
     53  CB       107.6230  170.9830   24.0660 C.3   177  HIS177      0.0745
     54  CG       107.9090  172.4300   24.3070 C.ar  177  HIS177      0.0817
     55  ND1      108.8170  172.8680   25.2520 N.ar  177  HIS177     -0.2268
     56  CD2      107.4240  173.5430   23.7090 C.ar  177  HIS177      0.1154
     57  CE1      108.8620  174.1860   25.2390 C.ar  177  HIS177      0.1986
     58  NE2      108.0250  174.6220   24.3150 N.ar  177  HIS177     -0.2212
     59  N        111.0790  175.9280   28.7350 N.3   180  HIS180     -0.1241
     60  CA       110.4210  177.2400   28.7980 C.3   180  HIS180      0.1621
     61  C        109.2050  177.3430   29.7110 C.2   180  HIS180      0.2264
     62  O        108.2350  178.0420   29.3910 O.2   180  HIS180     -0.2867
     63  CB       110.0250  177.6750   27.3880 C.3   180  HIS180      0.0745
     64  CG       111.1570  177.6030   26.4120 C.ar  180  HIS180      0.0817
     65  ND1      110.9650  177.4550   25.0560 N.ar  180  HIS180     -0.2268
     66  CD2      112.4990  177.6380   26.6020 C.ar  180  HIS180      0.1154
     67  CE1      112.1410  177.4090   24.4500 C.ar  180  HIS180      0.1986
     68  NE2      113.0870  177.5160   25.3660 N.ar  180  HIS180     -0.2212
     69  N        106.8640  175.2990   30.5820 N.3   182  TYR182     -0.1241
     70  CA       105.6080  174.6200   30.2840 C.3   182  TYR182      0.1605
     71  C        105.4800  173.3600   31.1560 C.2   182  TYR182      0.2264
     72  O        106.1970  173.2420   32.1370 O.2   182  TYR182     -0.2867
     73  CB       105.5140  174.3360   28.7860 C.3   182  TYR182      0.0534
     74  CG       105.3920  175.6430   28.0220 C.ar  182  TYR182     -0.0201
     75  CD1      104.2860  176.4620   28.1980 C.ar  182  TYR182     -0.0009
     76  CD2      106.3950  176.0720   27.1510 C.ar  182  TYR182     -0.0009
     77  CE1      104.1570  177.6660   27.5190 C.ar  182  TYR182      0.0417
     78  CE2      106.2780  177.2800   26.4740 C.ar  182  TYR182      0.0417
     79  CZ       105.1540  178.0720   26.6620 C.ar  182  TYR182      0.1957
     80  OH       105.0140  179.2780   25.9970 O.3   182  TYR182     -0.2866
     81  N        113.5400  168.4500   24.0570 N.3   229  ARG229     -0.1245
     82  CA       113.9990  169.8200   24.2480 C.3   229  ARG229      0.1563
     83  C        113.8830  170.2760   25.7060 C.2   229  ARG229      0.2260
     84  O        112.8230  170.1550   26.3110 O.2   229  ARG229     -0.2867
     85  CB       113.2070  170.7780   23.3580 C.3   229  ARG229      0.0307
     86  CG       113.8530  172.1760   23.2660 C.3   229  ARG229      0.0489
     87  CD       113.0470  173.1570   22.4080 C.3   229  ARG229      0.2205
     88  NE       113.9460  173.9440   21.5690 N.pl3 229  ARG229     -0.0865
     89  CZ       113.6930  175.1660   21.1100 C.cat 229  ARG229      0.5346
     90  NH1      112.5780  175.7940   21.4440 N.pl3 229  ARG229      0.1354
     91  NH2      114.5860  175.7780   20.3450 N.pl3 229  ARG229      0.1354
     92  N        111.8800  181.9600   31.8200 N.3   236  HIS236     -0.1241
     93  CA       110.5860  182.3620   31.2510 C.3   236  HIS236      0.1621
     94  C        109.3520  181.9420   32.0570 C.2   236  HIS236      0.2264
     95  O        109.1820  180.7660   32.3760 O.2   236  HIS236     -0.2867
     96  CB       110.4580  181.8050   29.8260 C.3   236  HIS236      0.0745
     97  CG       109.3090  182.3810   29.0200 C.ar  236  HIS236      0.0817
     98  ND1      109.1870  183.7070   28.7790 N.ar  236  HIS236     -0.2268
     99  CD2      108.2140  181.8200   28.4420 C.ar  236  HIS236      0.1154
    100  CE1      108.1030  183.9000   28.0340 C.ar  236  HIS236      0.1986
    101  NE2      107.5000  182.7950   27.7900 N.ar  236  HIS236     -0.2212
    102  N        102.1920  186.3130   16.3080 N.3   359  TYR359     -0.1241
    103  CA       101.0820  185.5270   16.8480 C.3   359  TYR359      0.1605
    104  C         99.7070  185.9400   16.3700 C.2   359  TYR359      0.2264
    105  O         98.7020  185.5100   16.9340 O.2   359  TYR359     -0.2867
    106  CB       101.0800  185.5940   18.3710 C.3   359  TYR359      0.0534
    107  CG       102.4210  185.3450   19.0050 C.ar  359  TYR359     -0.0201
    108  CD1      103.0420  184.1060   18.9200 C.ar  359  TYR359     -0.0009
    109  CD2      103.0630  186.3520   19.7080 C.ar  359  TYR359     -0.0009
    110  CE1      104.2760  183.8890   19.5170 C.ar  359  TYR359      0.0417
    111  CE2      104.2830  186.1410   20.3040 C.ar  359  TYR359      0.0417
    112  CZ       104.8880  184.9190   20.2120 C.ar  359  TYR359      0.1957
    113  OH       106.1150  184.7450   20.8260 O.3   359  TYR359     -0.2866
@<TRIPOS>BOND
     1   102   103    1
     2   104   103    1
     3   104   105    2
     4     1     2    1
     5     1     7    1
     6     2     3    1
     7     2     5    1
     8   103   106    1
     9    10    11    2
    10    10     9    1
    11    26    27    1
    12     3     4    2
    13     7     6    1
    14     8     9    1
    15     9    12    1
    16     5     6    1
    17   106   107    1
    18    27    30    1
    19    27    28    1
    20    30    31    1
    21   108   107   ar
    22   108   110   ar
    23   107   109   ar
    24    29    28    2
    25    12    14    1
    26    12    13    1
    27   110   112   ar
    28   109   111   ar
    29   112   111   ar
    30   112   113    1
    31    31    32    1
    32    91    89    1
    33    33    32    2
    34    32    34   am
    35    89    90    1
    36    89    88    2
    37    88    87    1
    38    18    17    2
    39    17    16    1
    40    47    45   ar
    41    47    48   ar
    42    22    24   ar
    43    22    20   ar
    44    19    20    1
    45    19    16    1
    46    45    42   ar
    47    24    25   ar
    48    87    86    1
    49    20    21   ar
    50    35    36    1
    51    39    40    1
    52    39    36    1
    53    16    15    1
    54    48    46   ar
    55    42    40   ar
    56    42    44   ar
    57    86    85    1
    58    85    82    1
    59    25    23   ar
    60    40    41   ar
    61    21    23   ar
    62    36    37    1
    63    56    54   ar
    64    56    58   ar
    65    46    44   ar
    66    44    43   ar
    67    49    50    1
    68    81    82    1
    69    53    54    1
    70    53    50    1
    71    38    37    2
    72    82    83    1
    73    54    55   ar
    74    58    57   ar
    75    67    65   ar
    76    67    68   ar
    77    50    51    1
    78    41    43   ar
    79    65    64   ar
    80    57    55   ar
    81    68    66   ar
    82    83    84    2
    83    80    79    1
    84    51    52    2
    85    64    66   ar
    86    64    63    1
    87    78    79   ar
    88    78    76   ar
    89    79    77   ar
    90    76    74   ar
    91    63    60    1
    92    77    75   ar
    93   101   100   ar
    94   101    99   ar
    95    74    75   ar
    96    74    73    1
    97   100    98   ar
    98    99    97   ar
    99    59    60    1
   100    98    97   ar
   101    73    70    1
   102    60    61    1
   103    97    96    1
   104    62    61    2
   105    96    93    1
   106    70    69    1
   107    70    71    1
   108    71    72    2
   109    93    92    1
   110    93    94    1
   111    94    95    2
