@<TRIPOS>MOLECULE
tmp/5dy5A00.pdb
 230 226 0 0 0
SMALL
GASTEIGER

@<TRIPOS>ATOM
      1  N         -2.9910    6.9600   26.3390 N.3    41  ILE41      -0.1231
      2  CA        -1.8780    6.4310   25.5430 C.3    41  ILE41       0.1678
      3  C         -1.5390    7.4610   24.4660 C.2    41  ILE41       0.2434
      4  O         -2.2830    7.5960   23.4960 O.2    41  ILE41      -0.2733
      5  CB        -2.2280    5.0700   24.9000 C.3    41  ILE41       0.0265
      6  CG1       -2.6690    4.0830   25.9940 C.3    41  ILE41       0.0019
      7  CG2       -1.0330    4.5260   24.1130 C.3    41  ILE41       0.0020
      8  CD1       -2.9890    2.6820   25.5120 C.3    41  ILE41       0.0001
      9  N         -0.4200    8.2000   24.6330 N.am   42  PRO42      -0.2729
     10  CA        -0.0180    9.1610   23.6050 C.3    42  PRO42       0.1401
     11  C          0.3820    8.5320   22.2730 C.2    42  PRO42       0.2269
     12  O          0.7550    7.3600   22.2130 O.2    42  PRO42      -0.2865
     13  CB         1.1950    9.8680   24.2280 C.3    42  PRO42       0.0296
     14  CG         1.0680    9.6470   25.6890 C.3    42  PRO42       0.0237
     15  CD         0.4490    8.2940   25.8230 C.3    42  PRO42       0.0939
     16  N          2.8910    7.8400   19.8870 N.3    44  PHE44      -0.1227
     17  CA         4.3630    7.8030   19.8260 C.3    44  PHE44       0.1736
     18  C          4.9130    8.2460   18.4680 C.2    44  PHE44       0.2595
     19  O          6.0280    8.7610   18.3970 O.2    44  PHE44      -0.2718
     20  CB         4.9350    6.4350   20.2660 C.3    44  PHE44       0.0547
     21  CG         4.8700    5.3470   19.2190 C.ar   44  PHE44      -0.0202
     22  CD1        5.7730    5.3160   18.1590 C.ar   44  PHE44      -0.0042
     23  CD2        3.9460    4.3200   19.3250 C.ar   44  PHE44      -0.0042
     24  CE1        5.7220    4.3050   17.2100 C.ar   44  PHE44      -0.0003
     25  CE2        3.8910    3.3060   18.3780 C.ar   44  PHE44      -0.0003
     26  CZ         4.7820    3.2970   17.3230 C.ar   44  PHE44      -0.0000
     27  N          4.1260    8.0690   17.4040 N.am   45  ARG45      -0.1980
     28  CA         4.5200    8.5090   16.0590 C.3    45  ARG45       0.1597
     29  C          4.3120   10.0170   15.8150 C.2    45  ARG45       0.2287
     30  O          4.7040   10.5190   14.7540 O.2    45  ARG45      -0.2864
     31  CB         3.7710    7.7170   14.9760 C.3    45  ARG45       0.0334
     32  CG         3.8280    6.2010   15.1080 C.3    45  ARG45       0.0492
     33  CD         3.2260    5.4750   13.9070 C.3    45  ARG45       0.2205
     34  NE         2.9730    4.0630   14.2180 N.pl3  45  ARG45      -0.0865
     35  CZ         1.8870    3.5740   14.8270 C.cat  45  ARG45       0.5346
     36  NH1        0.8720    4.3560   15.1960 N.pl3  45  ARG45       0.1354
     37  NH2        1.8100    2.2710   15.0720 N.pl3  45  ARG45       0.1354
     38  N          9.0960   12.1420   21.2850 N.3    51  LEU51      -0.1245
     39  CA         9.8440   10.8950   21.4730 C.3    51  LEU51       0.1561
     40  C         11.3410   11.0910   21.2050 C.2    51  LEU51       0.2260
     41  O         12.1550   10.3740   21.7750 O.2    51  LEU51      -0.2867
     42  CB         9.2840    9.7710   20.5880 C.3    51  LEU51       0.0270
     43  CG         9.8120    8.3450   20.8190 C.3    51  LEU51       0.0019
     44  CD1        9.4360    7.8150   22.1920 C.3    51  LEU51       0.0001
     45  CD2        9.2770    7.4090   19.7520 C.3    51  LEU51       0.0001
     46  N         15.8910    2.8200   17.2950 N.3    66  ILE66      -0.1231
     47  CA        14.9390    2.2400   18.2530 C.3    66  ILE66       0.1692
     48  C         13.8010    1.4450   17.5720 C.2    66  ILE66       0.2592
     49  O         13.2760    0.4950   18.1560 O.2    66  ILE66      -0.2718
     50  CB        14.3750    3.3300   19.2140 C.3    66  ILE66       0.0266
     51  CG1       13.8060    2.7110   20.4980 C.3    66  ILE66       0.0019
     52  CG2       13.3400    4.2180   18.5290 C.3    66  ILE66       0.0020
     53  CD1       14.8630    2.2770   21.4880 C.3    66  ILE66       0.0001
     54  N         13.4580    1.8240   16.3380 N.am   67  PHE67      -0.1976
     55  CA        12.3970    1.1770   15.5590 C.3    67  PHE67       0.1639
     56  C         12.8750    0.0490   14.6320 C.2    67  PHE67       0.2290
     57  O         12.0460   -0.6540   14.0540 O.2    67  PHE67      -0.2864
     58  CB        11.6810    2.2230   14.7040 C.3    67  PHE67       0.0560
     59  CG        10.9740    3.2850   15.4960 C.ar   67  PHE67      -0.0200
     60  CD1        9.8700    2.9650   16.2800 C.ar   67  PHE67      -0.0042
     61  CD2       11.3780    4.6130   15.4290 C.ar   67  PHE67      -0.0042
     62  CE1        9.2000    3.9410   17.0020 C.ar   67  PHE67      -0.0003
     63  CE2       10.7100    5.5950   16.1480 C.ar   67  PHE67      -0.0003
     64  CZ         9.6220    5.2580   16.9380 C.ar   67  PHE67      -0.0000
     65  N         15.1170   -0.4760   23.6260 N.3    79  PHE79      -0.1241
     66  CA        13.7110   -0.7750   23.3600 C.3    79  PHE79       0.1605
     67  C         12.9440   -1.1270   24.6370 C.2    79  PHE79       0.2264
     68  O         11.8820   -0.5620   24.8990 O.2    79  PHE79      -0.2867
     69  CB        13.5410   -1.9120   22.3480 C.3    79  PHE79       0.0534
     70  CG        12.1130   -2.3580   22.2140 C.ar   79  PHE79      -0.0203
     71  CD1       11.2250   -1.6340   21.4280 C.ar   79  PHE79      -0.0042
     72  CD2       11.6360   -3.4520   22.9320 C.ar   79  PHE79      -0.0042
     73  CE1        9.8990   -2.0170   21.3260 C.ar   79  PHE79      -0.0003
     74  CE2       10.3070   -3.8350   22.8420 C.ar   79  PHE79      -0.0003
     75  CZ         9.4370   -3.1180   22.0340 C.ar   79  PHE79      -0.0000
     76  N         12.6080    1.7740   27.0490 N.3    82  LEU82      -0.1231
     77  CA        11.5650    2.6480   26.5080 C.3    82  LEU82       0.1693
     78  C         10.1670    2.0590   26.7250 C.2    82  LEU82       0.2591
     79  O          9.2490    2.7790   27.1250 O.2    82  LEU82      -0.2718
     80  CB        11.7930    2.9160   25.0130 C.3    82  LEU82       0.0284
     81  CG        10.7520    3.7790   24.2860 C.3    82  LEU82       0.0019
     82  CD1       10.7140    5.1770   24.8780 C.3    82  LEU82       0.0001
     83  CD2       11.0350    3.8290   22.7900 C.3    82  LEU82       0.0001
     84  N         10.0140    0.7590   26.4530 N.am   83  ALA83      -0.1980
     85  CA         8.7400    0.0630   26.6510 C.3    83  ALA83       0.1597
     86  C          8.2600    0.1390   28.1000 C.2    83  ALA83       0.2287
     87  O          7.0670    0.2850   28.3370 O.2    83  ALA83      -0.2864
     88  CB         8.8320   -1.3890   26.1950 C.3    83  ALA83       0.0319
     89  N          7.0030    3.7580   28.5520 N.3    86  LEU86      -0.1231
     90  CA         5.7390    3.9880   27.8480 C.3    86  LEU86       0.1693
     91  C          4.6180    2.9940   28.1790 C.2    86  LEU86       0.2592
     92  O          3.5230    3.1180   27.6300 O.2    86  LEU86      -0.2718
     93  CB         5.9850    3.9850   26.3310 C.3    86  LEU86       0.0284
     94  CG         6.9970    5.0020   25.7930 C.3    86  LEU86       0.0019
     95  CD1        7.1630    4.8370   24.2910 C.3    86  LEU86       0.0001
     96  CD2        6.5790    6.4250   26.1340 C.3    86  LEU86       0.0001
     97  N          4.8600    2.0210   29.0580 N.am   87  TYR87      -0.1963
     98  CA         3.8350    1.0100   29.3740 C.3    87  TYR87       0.1756
     99  C          2.5990    1.7090   29.9610 C.2    87  TYR87       0.2461
    100  O          2.7270    2.4120   30.9650 O.2    87  TYR87      -0.2730
    101  CB         4.3520   -0.0510   30.3650 C.3    87  TYR87       0.0574
    102  CG         3.6850   -1.3960   30.1970 C.ar   87  TYR87      -0.0198
    103  CD1        2.3780   -1.6170   30.6410 C.ar   87  TYR87      -0.0009
    104  CD2        4.3580   -2.4590   29.5850 C.ar   87  TYR87      -0.0009
    105  CE1        1.7680   -2.8530   30.4750 C.ar   87  TYR87       0.0417
    106  CE2        3.7570   -3.6910   29.4180 C.ar   87  TYR87       0.0417
    107  CZ         2.4630   -3.8860   29.8560 C.ar   87  TYR87       0.1957
    108  OH         1.8790   -5.1180   29.6800 O.3    87  TYR87      -0.2866
    109  N          1.4150    1.5460   29.3280 N.am   88  PRO88      -0.2727
    110  CA         0.2260    2.2200   29.8630 C.3    88  PRO88       0.1402
    111  C         -0.1040    1.8430   31.3090 C.2    88  PRO88       0.2269
    112  O         -0.0190    0.6700   31.6740 O.2    88  PRO88      -0.2865
    113  CB        -0.8930    1.7650   28.9200 C.3    88  PRO88       0.0296
    114  CG        -0.1980    1.4880   27.6340 C.3    88  PRO88       0.0237
    115  CD         1.1270    0.9010   28.0300 C.3    88  PRO88       0.0939
    116  N         -5.5970   -0.0830   31.2220 N.3    91  PHE91      -0.1241
    117  CA        -6.1030   -0.5620   29.9410 C.3    91  PHE91       0.1605
    118  C         -7.6300   -0.5750   29.9330 C.2    91  PHE91       0.2264
    119  O         -8.2630   -1.6300   29.9960 O.2    91  PHE91      -0.2867
    120  CB        -5.5320   -1.9460   29.6350 C.3    91  PHE91       0.0534
    121  CG        -4.0640   -1.9310   29.3370 C.ar   91  PHE91      -0.0203
    122  CD1       -3.1260   -1.9900   30.3690 C.ar   91  PHE91      -0.0042
    123  CD2       -3.6100   -1.8360   28.0230 C.ar   91  PHE91      -0.0042
    124  CE1       -1.7670   -1.9640   30.0950 C.ar   91  PHE91      -0.0003
    125  CE2       -2.2510   -1.8120   27.7420 C.ar   91  PHE91      -0.0003
    126  CZ        -1.3270   -1.8790   28.7780 C.ar   91  PHE91      -0.0000
    127  N         -0.8850   -0.7070   18.8320 N.3   117  ILE117     -0.1231
    128  CA        -0.2120   -1.8820   19.3970 C.3   117  ILE117      0.1692
    129  C         -0.6340   -2.1360   20.8500 C.2   117  ILE117      0.2592
    130  O         -0.1030   -3.0390   21.5020 O.2   117  ILE117     -0.2718
    131  CB         1.3310   -1.7460   19.2720 C.3   117  ILE117      0.0266
    132  CG1        1.8790   -0.5840   20.1220 C.3   117  ILE117      0.0019
    133  CG2        1.7050   -1.5650   17.8060 C.3   117  ILE117      0.0020
    134  CD1        3.3540   -0.2900   19.9310 C.3   117  ILE117      0.0001
    135  N         -1.6240   -1.3800   21.3260 N.am  118  ASP118     -0.1960
    136  CA        -1.9920   -1.3430   22.7500 C.3   118  ASP118      0.1840
    137  C         -2.9430   -2.4470   23.2380 C.2   118  ASP118      0.2622
    138  O         -3.1970   -2.5460   24.4410 O.2   118  ASP118     -0.2715
    139  CB        -2.5670    0.0440   23.1180 C.3   118  ASP118      0.1450
    140  CG        -3.8490    0.4070   22.3450 C.2   118  ASP118      0.3671
    141  OD1       -4.6170   -0.4890   21.9330 O.co2 118  ASP118     -0.2456
    142  OD2       -4.0960    1.6200   22.1640 O.co2 118  ASP118     -0.2456
    143  N         -3.4620   -3.2660   22.3160 N.am  119  THR119     -0.1951
    144  CA        -4.3800   -4.3890   22.6140 C.3   119  THR119      0.1897
    145  C         -5.8080   -3.9940   23.0340 C.2   119  THR119      0.2313
    146  O         -6.6100   -4.8720   23.3320 O.2   119  THR119     -0.2863
    147  CB        -3.8230   -5.3740   23.6780 C.3   119  THR119      0.1794
    148  OG1       -4.0300   -4.8500   25.0030 O.3   119  THR119     -0.2208
    149  CG2       -2.3390   -5.6650   23.4480 C.3   119  THR119      0.0378
    150  N          0.4430   -2.7480   12.4370 N.3   135  HIS135     -0.1241
    151  CA         1.7830   -2.5760   12.9980 C.3   135  HIS135      0.1621
    152  C          2.0680   -3.6230   14.0860 C.2   135  HIS135      0.2264
    153  O          2.9780   -3.4600   14.8950 O.2   135  HIS135     -0.2867
    154  CB         1.9420   -1.1450   13.5190 C.3   135  HIS135      0.0745
    155  CG         1.9460   -0.1220   12.4270 C.ar  135  HIS135      0.0817
    156  ND1        3.0080    0.0330   11.5600 N.ar  135  HIS135     -0.2268
    157  CD2        1.0080    0.7700   12.0330 C.ar  135  HIS135      0.1154
    158  CE1        2.7270    0.9810   10.6850 C.ar  135  HIS135      0.1986
    159  NE2        1.5190    1.4430   10.9480 N.ar  135  HIS135     -0.2212
    160  N          1.4870   -5.8310   21.0490 N.3   138  PHE138     -0.1241
    161  CA         2.0920   -6.3540   22.2760 C.3   138  PHE138      0.1605
    162  C          1.3720   -7.5790   22.8540 C.2   138  PHE138      0.2264
    163  O          1.8830   -8.1880   23.8000 O.2   138  PHE138     -0.2867
    164  CB         2.1340   -5.2730   23.3660 C.3   138  PHE138      0.0534
    165  CG         3.3670   -4.4210   23.3440 C.ar  138  PHE138     -0.0203
    166  CD1        4.5160   -4.8310   24.0050 C.ar  138  PHE138     -0.0042
    167  CD2        3.3650   -3.1870   22.7020 C.ar  138  PHE138     -0.0042
    168  CE1        5.6590   -4.0390   24.0000 C.ar  138  PHE138     -0.0003
    169  CE2        4.5020   -2.3890   22.6960 C.ar  138  PHE138     -0.0003
    170  CZ         5.6520   -2.8170   23.3430 C.ar  138  PHE138     -0.0000
    171  N          1.2240  -11.6900   26.9880 N.3   154  LEU154     -0.1245
    172  CA         1.5530  -10.3470   27.4610 C.3   154  LEU154      0.1561
    173  C          1.9070  -10.3000   28.9570 C.2   154  LEU154      0.2260
    174  O          2.7810   -9.5270   29.3510 O.2   154  LEU154     -0.2867
    175  CB         0.4240   -9.3610   27.1440 C.3   154  LEU154      0.0270
    176  CG         0.6210   -7.9030   27.5920 C.3   154  LEU154      0.0019
    177  CD1        1.9250   -7.3040   27.0750 C.3   154  LEU154      0.0001
    178  CD2       -0.5600   -7.0640   27.1460 C.3   154  LEU154      0.0001
    179  N          9.4380   -6.6710   31.2840 N.3   161  ILE161     -0.1245
    180  CA         9.5720   -5.2260   31.0680 C.3   161  ILE161      0.1561
    181  C          9.6760   -4.4390   32.3900 C.2   161  ILE161      0.2260
    182  O         10.5690   -3.6010   32.5430 O.2   161  ILE161     -0.2867
    183  CB         8.4300   -4.6770   30.1690 C.3   161  ILE161      0.0252
    184  CG1        8.6280   -5.1770   28.7260 C.3   161  ILE161      0.0019
    185  CG2        8.3940   -3.1510   30.1680 C.3   161  ILE161      0.0019
    186  CD1        7.4250   -5.0070   27.8250 C.3   161  ILE161      0.0001
    187  N          5.1010   -6.6830   17.6490 N.3   180  ILE180     -0.1231
    188  CA         5.0040   -5.4070   16.9520 C.3   180  ILE180      0.1692
    189  C          5.9770   -5.4330   15.7670 C.2   180  ILE180      0.2592
    190  O          7.0230   -6.0810   15.8420 O.2   180  ILE180     -0.2718
    191  CB         5.2520   -4.2090   17.9060 C.3   180  ILE180      0.0266
    192  CG1        6.7140   -4.1460   18.3980 C.3   180  ILE180      0.0019
    193  CG2        4.2600   -4.2610   19.0650 C.3   180  ILE180      0.0020
    194  CD1        6.9640   -3.1400   19.4970 C.3   180  ILE180      0.0001
    195  N          5.6280   -4.7390   14.6850 N.am  181  VAL181     -0.1966
    196  CA         6.4020   -4.7910   13.4410 C.3   181  VAL181      0.1727
    197  C          7.4580   -3.6780   13.4400 C.2   181  VAL181      0.2616
    198  O          7.1300   -2.4950   13.3620 O.2   181  VAL181     -0.2715
    199  CB         5.4890   -4.6990   12.1930 C.3   181  VAL181      0.0290
    200  CG1        6.2970   -4.8290   10.9030 C.3   181  VAL181      0.0023
    201  CG2        4.4250   -5.7880   12.2340 C.3   181  VAL181      0.0023
    202  N          8.7220   -4.0760   13.5530 N.am  182  PHE182     -0.1960
    203  CA         9.8580   -3.1540   13.5180 C.3   182  PHE182      0.1771
    204  C         10.1670   -2.8710   12.0540 C.2   182  PHE182      0.2619
    205  O          9.8130   -3.6760   11.1860 O.2   182  PHE182     -0.2715
    206  CB        11.1000   -3.7960   14.1640 C.3   182  PHE182      0.0574
    207  CG        11.0850   -3.8180   15.6780 C.ar  182  PHE182     -0.0200
    208  CD1       10.1440   -4.5690   16.3780 C.ar  182  PHE182     -0.0042
    209  CD2       12.0540   -3.1300   16.4020 C.ar  182  PHE182     -0.0042
    210  CE1       10.1420   -4.5980   17.7640 C.ar  182  PHE182     -0.0003
    211  CE2       12.0640   -3.1590   17.7930 C.ar  182  PHE182     -0.0003
    212  CZ        11.1030   -3.8920   18.4760 C.ar  182  PHE182     -0.0000
    213  N         10.8370   -1.7500   11.7790 N.am  183  PHE183     -0.1974
    214  CA        11.4070   -1.5050   10.4440 C.3   183  PHE183      0.1639
    215  C         12.3630   -2.6500   10.1230 C.2   183  PHE183      0.2290
    216  O         13.1610   -3.0490   10.9760 O.2   183  PHE183     -0.2864
    217  CB        12.1920   -0.1870   10.3730 C.3   183  PHE183      0.0560
    218  CG        11.3390    1.0500   10.3540 C.ar  183  PHE183     -0.0200
    219  CD1       10.4110    1.2650    9.3430 C.ar  183  PHE183     -0.0042
    220  CD2       11.5050    2.0290   11.3190 C.ar  183  PHE183     -0.0042
    221  CE1        9.6310    2.4160    9.3220 C.ar  183  PHE183     -0.0003
    222  CE2       10.7340    3.1860   11.3080 C.ar  183  PHE183     -0.0003
    223  CZ         9.7920    3.3810   10.3080 C.ar  183  PHE183     -0.0000
    224  N          0.9910    7.1640    7.4330 N.3   214  VAL214     -0.1245
    225  CA         1.9110    6.0290    7.5090 C.3   214  VAL214      0.1561
    226  C          1.3560    4.8140    6.7620 C.2   214  VAL214      0.2260
    227  O          0.1770    4.4750    6.8970 O.2   214  VAL214     -0.2867
    228  CB         2.1950    5.6500    8.9830 C.3   214  VAL214      0.0252
    229  CG1        3.2310    4.5320    9.0800 C.3   214  VAL214      0.0019
    230  CG2        2.6670    6.8720    9.7550 C.3   214  VAL214      0.0019
@<TRIPOS>BOND
     1   226   227    2
     2   226   225    1
     3   224   225    1
     4   225   228    1
     5   228   229    1
     6   228   230    1
     7   221   219   ar
     8   221   223   ar
     9   219   218   ar
    10   215   214    1
    11   215   216    2
    12   223   222   ar
    13   218   217    1
    14   218   220   ar
    15   217   214    1
    16   214   213    1
    17   158   159   ar
    18   158   156   ar
    19   200   199    1
    20   159   157   ar
    21   205   204    2
    22   222   220   ar
    23   156   155   ar
    24   213   204   am
    25   157   155   ar
    26   204   203    1
    27   199   201    1
    28   199   196    1
    29   155   154    1
    30   150   151    1
    31   151   154    1
    32   151   152    1
    33   198   197    2
    34   197   196    1
    35   197   202   am
    36   196   195    1
    37   203   202    1
    38   203   206    1
    39    33    34    1
    40    33    32    1
    41    57    56    2
    42   152   153    2
    43   206   207    1
    44    34    35    2
    45    56    55    1
    46   195   189   am
    47    58    59    1
    48    58    55    1
    49    30    29    2
    50    35    37    1
    51    35    36    1
    52    31    32    1
    53    31    28    1
    54    61    59   ar
    55    61    63   ar
    56    59    60   ar
    57    55    54    1
    58   207   208   ar
    59   207   209   ar
    60   189   190    2
    61   189   188    1
    62    29    28    1
    63    28    27    1
    64    63    64   ar
    65    60    62   ar
    66    54    48   am
    67   208   210   ar
    68   209   211   ar
    69    64    62   ar
    70   188   187    1
    71   188   191    1
    72    24    26   ar
    73    24    22   ar
    74    46    47    1
    75    26    25   ar
    76    27    18   am
    77    48    49    2
    78    48    47    1
    79   210   212   ar
    80   211   212   ar
    81   133   131    1
    82   191   192    1
    83   191   193    1
    84    22    21   ar
    85    47    50    1
    86    25    23   ar
    87    19    18    2
    88   192   194    1
    89    18    17    1
    90    52    50    1
    91   127   128    1
    92    50    51    1
    93    21    23   ar
    94    21    20    1
    95   131   128    1
    96   131   132    1
    97   128   129    1
    98    45    43    1
    99    17    16    1
   100    17    20    1
   101   134   132    1
   102    51    53    1
   103    42    43    1
   104    42    39    1
   105    43    44    1
   106   129   135   am
   107   129   130    2
   108   160   161    1
   109    40    39    1
   110    40    41    2
   111    38    39    1
   112   135   136    1
   113    73    71   ar
   114    73    75   ar
   115    71    70   ar
   116   141   140   ar
   117    75    74   ar
   118   142   140   ar
   119    12    11    2
   120    70    69    1
   121    70    72   ar
   122    11    10    1
   123   161   162    1
   124   161   164    1
   125   143   144    1
   126   143   137   am
   127   140   139    1
   128    69    66    1
   129   144   145    1
   130   144   147    1
   131   169   167   ar
   132   169   170   ar
   133   167   165   ar
   134   136   139    1
   135   136   137    1
   136    83    81    1
   137    74    72   ar
   138   162   163    2
   139   145   146    2
   140   137   138    2
   141   170   168   ar
   142   165   164    1
   143   165   166   ar
   144    66    65    1
   145    66    67    1
   146   149   147    1
   147     4     3    2
   148    10    13    1
   149    10     9    1
   150   147   148    1
   151   168   166   ar
   152     7     5    1
   153    13    14    1
   154    81    82    1
   155    81    80    1
   156    95    94    1
   157     3     9   am
   158     3     2    1
   159     9    15    1
   160    67    68    2
   161     5     2    1
   162     5     6    1
   163    80    77    1
   164     8     6    1
   165     2     1    1
   166    14    15    1
   167    94    96    1
   168    94    93    1
   169    88    85    1
   170    93    90    1
   171    84    85    1
   172    84    78   am
   173    77    78    1
   174    77    76    1
   175    85    86    1
   176    78    79    2
   177   171   172    1
   178   177   176    1
   179   175   172    1
   180   175   176    1
   181   178   176    1
   182   172   173    1
   183    92    91    2
   184   114   115    1
   185   114   113    1
   186   125   123   ar
   187   125   126   ar
   188   186   184    1
   189    90    91    1
   190    90    89    1
   191   123   121   ar
   192   115   109    1
   193    86    87    2
   194    91    97   am
   195   184   183    1
   196   126   124   ar
   197   113   110    1
   198   173   174    2
   199    97    98    1
   200   109   110    1
   201   109    99   am
   202   121   120    1
   203   121   122   ar
   204    98    99    1
   205    98   101    1
   206   106   104   ar
   207   106   107   ar
   208   104   102   ar
   209   120   117    1
   210   108   107    1
   211   107   105   ar
   212   110   111    1
   213   118   117    1
   214   118   119    2
   215   117   116    1
   216    99   100    2
   217   124   122   ar
   218   185   183    1
   219   183   180    1
   220   102   101    1
   221   102   103   ar
   222   105   103   ar
   223   180   179    1
   224   180   181    1
   225   111   112    2
   226   181   182    2
