@<TRIPOS>MOLECULE
tmp/5dyaA00.pdb
 107 104 0 0 0
SMALL
GASTEIGER

@<TRIPOS>ATOM
      1  N         19.1340    8.0510   -4.8800 N.3    25  ILE25      -0.1231
      2  CA        18.2760    6.8790   -5.0130 C.3    25  ILE25       0.1692
      3  C         19.0820    5.6240   -5.3030 C.2    25  ILE25       0.2592
      4  O         18.5310    4.5150   -5.2320 O.2    25  ILE25      -0.2718
      5  CB        17.2210    7.0710   -6.1170 C.3    25  ILE25       0.0266
      6  CG1       17.9070    7.3260   -7.4640 C.3    25  ILE25       0.0019
      7  CG2       16.2420    8.1820   -5.7260 C.3    25  ILE25       0.0020
      8  CD1       16.9360    7.6160   -8.5970 C.3    25  ILE25       0.0001
      9  N         20.3610    5.7700   -5.6400 N.am   26  PHE26      -0.1976
     10  CA        21.2600    4.6620   -5.9350 C.3    26  PHE26       0.1639
     11  C         22.3220    4.4580   -4.8660 C.2    26  PHE26       0.2290
     12  O         23.1850    3.5920   -5.0310 O.2    26  PHE26      -0.2864
     13  CB        21.9710    4.8950   -7.2780 C.3    26  PHE26       0.0560
     14  CG        21.0410    5.0730   -8.4470 C.ar   26  PHE26      -0.0200
     15  CD1       20.2690    4.0170   -8.9000 C.ar   26  PHE26      -0.0042
     16  CD2       20.9520    6.2930   -9.1020 C.ar   26  PHE26      -0.0042
     17  CE1       19.4210    4.1720   -9.9840 C.ar   26  PHE26      -0.0003
     18  CE2       20.0930    6.4590  -10.1840 C.ar   26  PHE26      -0.0003
     19  CZ        19.3330    5.3890  -10.6250 C.ar   26  PHE26      -0.0000
     20  N         22.1200    3.6250   -1.5650 N.3    28  GLU28      -0.1245
     21  CA        21.8870    2.6260   -0.5350 C.3    28  GLU28       0.1567
     22  C         21.0800    1.4860   -1.1430 C.2    28  GLU28       0.2260
     23  O         20.4310    1.6640   -2.1770 O.2    28  GLU28      -0.2867
     24  CB        21.1530    3.2230    0.6760 C.3    28  GLU28       0.0388
     25  CG        22.0150    4.1310    1.5300 C.3    28  GLU28       0.1160
     26  CD        21.4360    4.3360    2.9160 C.2    28  GLU28       0.3649
     27  OE1       20.2380    4.0350    3.1100 O.co2  28  GLU28      -0.2457
     28  OE2       22.1780    4.7870    3.8150 O.co2  28  GLU28      -0.2457
     29  N         18.2080   -0.9280   -2.2330 N.3    30  VAL30      -0.1231
     30  CA        16.7780   -0.6910   -2.4310 C.3    30  VAL30       0.1678
     31  C         16.0560   -1.1550   -1.1730 C.2    30  VAL30       0.2434
     32  O         16.0920   -2.3510   -0.8430 O.2    30  VAL30      -0.2733
     33  CB        16.2460   -1.4120   -3.6810 C.3    30  VAL30       0.0265
     34  CG1       14.7560   -1.1380   -3.8620 C.3    30  VAL30       0.0020
     35  CG2       17.0190   -0.9780   -4.9140 C.3    30  VAL30       0.0020
     36  N         15.4220   -0.2500   -0.4280 N.am   31  PRO31      -0.2729
     37  CA        14.7860   -0.6510    0.8320 C.3    31  PRO31       0.1401
     38  C         13.6700   -1.6520    0.5960 C.2    31  PRO31       0.2269
     39  O         12.5760   -1.2940    0.1480 O.2    31  PRO31      -0.2865
     40  CB        14.2640    0.6740    1.4050 C.3    31  PRO31       0.0296
     41  CG        14.1350    1.5780    0.2230 C.3    31  PRO31       0.0237
     42  CD        15.2300    1.1810   -0.7230 C.3    31  PRO31       0.0939
     43  N          9.9510   -1.0030    1.2240 N.3    34  GLU34      -0.1231
     44  CA         9.0940   -0.3290    0.2580 C.3    34  GLU34       0.1699
     45  C          8.8370   -1.1780   -0.9790 C.2    34  GLU34       0.2592
     46  O          7.7550   -1.0920   -1.5700 O.2    34  GLU34      -0.2718
     47  CB         9.7170    1.0060   -0.1550 C.3    34  GLU34       0.0402
     48  CG        10.1960    1.8500    1.0100 C.3    34  GLU34       0.1161
     49  CD        10.1810    3.3300    0.6910 C.2    34  GLU34       0.3649
     50  OE1        9.3620    3.7450   -0.1580 O.co2  34  GLU34      -0.2457
     51  OE2       10.9850    4.0770    1.2890 O.co2  34  GLU34      -0.2457
     52  N          9.8050   -1.9930   -1.3830 N.am   35  VAL35      -0.1980
     53  CA         9.7100   -2.7400   -2.6330 C.3    35  VAL35       0.1595
     54  C          9.7950   -4.2340   -2.3380 C.2    35  VAL35       0.2287
     55  O         10.8060   -4.8710   -2.6610 O.2    35  VAL35      -0.2864
     56  CB        10.8090   -2.2970   -3.6100 C.3    35  VAL35       0.0276
     57  CG1       10.4710   -2.7350   -5.0000 C.3    35  VAL35       0.0022
     58  CG2       10.9940   -0.7830   -3.5540 C.3    35  VAL35       0.0022
     59  N         11.0860   -6.8550   -4.9300 N.3    38  TYR38      -0.1241
     60  CA        12.2390   -6.4090   -5.7110 C.3    38  TYR38       0.1605
     61  C         13.1560   -7.5670   -6.0950 C.2    38  TYR38       0.2264
     62  O         13.6900   -7.5980   -7.2100 O.2    38  TYR38      -0.2867
     63  CB        13.0120   -5.3470   -4.9330 C.3    38  TYR38       0.0534
     64  CG        14.1480   -4.7220   -5.7190 C.ar   38  TYR38      -0.0201
     65  CD1       13.9100   -3.7150   -6.6510 C.ar   38  TYR38      -0.0009
     66  CD2       15.4570   -5.1390   -5.5260 C.ar   38  TYR38      -0.0009
     67  CE1       14.9630   -3.1410   -7.3770 C.ar   38  TYR38       0.0417
     68  CE2       16.5070   -4.5750   -6.2370 C.ar   38  TYR38       0.0417
     69  CZ        16.2570   -3.5810   -7.1630 C.ar   38  TYR38       0.1957
     70  OH        17.3100   -3.0270   -7.8660 O.3    38  TYR38      -0.2866
     71  N         17.9450   -0.9920  -12.3620 N.3    77  CYS77      -0.1235
     72  CA        16.9220    0.0460  -12.3220 C.3    77  CYS77       0.1677
     73  C         16.0930    0.0590  -13.6010 C.2    77  CYS77       0.2270
     74  O         14.8700    0.2160  -13.5540 O.2    77  CYS77      -0.2867
     75  CB        17.5990    1.3950  -12.0950 C.3    77  CYS77       0.0956
     76  SG        16.4290    2.7570  -11.8240 S.3    77  CYS77      -0.0801
     77  N         13.7790   -3.1210  -13.3490 N.3    80  TYR80      -0.1227
     78  CA        12.6840   -3.1870  -12.3900 C.3    80  TYR80       0.1736
     79  C         11.6010   -2.1520  -12.6700 C.2    80  TYR80       0.2595
     80  O         10.4140   -2.4400  -12.4850 O.2    80  TYR80      -0.2718
     81  CB        13.1910   -3.0170  -10.9600 C.3    80  TYR80       0.0548
     82  CG        12.0560   -3.1880   -9.9800 C.ar   80  TYR80      -0.0200
     83  CD1       11.5450   -4.4530   -9.7060 C.ar   80  TYR80      -0.0009
     84  CD2       11.4690   -2.0960   -9.3680 C.ar   80  TYR80      -0.0009
     85  CE1       10.4910   -4.6290   -8.8310 C.ar   80  TYR80       0.0417
     86  CE2       10.4040   -2.2590   -8.4940 C.ar   80  TYR80       0.0417
     87  CZ         9.9260   -3.5310   -8.2290 C.ar   80  TYR80       0.1957
     88  OH         8.8700   -3.7020   -7.3630 O.3    80  TYR80      -0.2866
     89  N         11.9730   -0.9460  -13.0840 N.am   81  ASN81      -0.1974
     90  CA        11.0240    0.1600  -13.1710 C.3    81  ASN81       0.1688
     91  C         10.4820    0.3130  -14.5870 C.2    81  ASN81       0.2292
     92  O         11.2030    0.1030  -15.5640 O.2    81  ASN81      -0.2864
     93  CB        11.6840    1.4620  -12.7200 C.3    81  ASN81       0.1181
     94  CG        12.1470    1.4040  -11.2790 C.2    81  ASN81       0.2629
     95  OD1       11.3400    1.5070  -10.3560 O.2    81  ASN81      -0.2716
     96  ND2       13.4440    1.2270  -11.0790 N.am   81  ASN81      -0.0877
     97  N         12.2960    6.9490  -12.0940 N.3    87  PHE87      -0.1241
     98  CA        13.4240    6.0670  -11.7890 C.3    87  PHE87       0.1605
     99  C         14.0930    5.5570  -13.0570 C.2    87  PHE87       0.2264
    100  O         15.3280    5.5070  -13.1500 O.2    87  PHE87      -0.2867
    101  CB        12.9570    4.8780  -10.9530 C.3    87  PHE87       0.0534
    102  CG        12.6920    5.2070   -9.5190 C.ar   87  PHE87      -0.0203
    103  CD1       13.3170    6.2790   -8.9120 C.ar   87  PHE87      -0.0042
    104  CD2       11.8270    4.4280   -8.7720 C.ar   87  PHE87      -0.0042
    105  CE1       13.0790    6.5740   -7.5830 C.ar   87  PHE87      -0.0003
    106  CE2       11.5810    4.7220   -7.4440 C.ar   87  PHE87      -0.0003
    107  CZ        12.2090    5.7930   -6.8500 C.ar   87  PHE87      -0.0000
@<TRIPOS>BOND
     1    92    91    2
     2    91    90    1
     3    73    74    2
     4    73    72    1
     5    77    78    1
     6    90    89    1
     7    90    93    1
     8   100    99    2
     9    89    79   am
    10    99    98    1
    11    93    94    1
    12    79    80    2
    13    79    78    1
    14    78    81    1
    15    71    72    1
    16    72    75    1
    17    75    76    1
    18    97    98    1
    19    98   101    1
    20    94    96   am
    21    94    95    2
    22    81    82    1
    23   101   102    1
    24    19    18   ar
    25    19    17   ar
    26    18    16   ar
    27    17    15   ar
    28    82    83   ar
    29    82    84   ar
    30    83    85   ar
    31   102   103   ar
    32   102   104   ar
    33    84    86   ar
    34    16    14   ar
    35   103   105   ar
    36    15    14   ar
    37    85    87   ar
    38   104   106   ar
    39     8     6    1
    40    86    87   ar
    41    14    13    1
    42    87    88    1
    43    70    69    1
    44   105   107   ar
    45     6     5    1
    46   106   107   ar
    47    67    69   ar
    48    67    65   ar
    49    13    10    1
    50    62    61    2
    51    69    68   ar
    52    65    64   ar
    53    68    66   ar
    54     5     7    1
    55     5     2    1
    56    61    60    1
    57    10     9    1
    58    10    11    1
    59    64    66   ar
    60    64    63    1
    61    60    63    1
    62    60    59    1
    63     9     3   am
    64     3     4    2
    65     3     2    1
    66    12    11    2
    67     2     1    1
    68    57    56    1
    69    35    33    1
    70    34    33    1
    71    33    30    1
    72    56    58    1
    73    56    53    1
    74    55    54    2
    75    53    54    1
    76    53    52    1
    77    30    29    1
    78    30    31    1
    79    23    22    2
    80    46    45    2
    81    20    21    1
    82    52    45   am
    83    31    32    2
    84    31    36   am
    85    22    21    1
    86    45    44    1
    87    42    36    1
    88    42    41    1
    89    21    24    1
    90    36    37    1
    91    50    49   ar
    92    47    44    1
    93    47    48    1
    94    39    38    2
    95    41    40    1
    96    44    43    1
    97    38    37    1
    98    24    25    1
    99    49    48    1
   100    49    51   ar
   101    37    40    1
   102    25    26    1
   103    26    27   ar
   104    26    28   ar
