@<TRIPOS>MOLECULE
tmp/5dybA01.pdb
 194 182 0 0 0
SMALL
GASTEIGER

@<TRIPOS>ATOM
      1  N         25.8250    6.8860    3.8410 N.3    37  MET37      -0.1245
      2  CA        25.9590    8.2650    4.2930 C.3    37  MET37       0.1570
      3  C         26.7420    9.1010    3.2900 C.2    37  MET37       0.2261
      4  O         26.5130   10.3000    3.1650 O.2    37  MET37      -0.2867
      5  CB        26.6270    8.3250    5.6650 C.3    37  MET37       0.0387
      6  CG        25.8010    7.7000    6.7710 C.3    37  MET37       0.0595
      7  SD        24.0740    8.2150    6.7160 S.3    37  MET37      -0.1393
      8  CE        24.2120    9.9750    6.9650 C.3    37  MET37       0.0692
      9  N         24.1470    9.9950    0.5940 N.3    40  LEU40      -0.1231
     10  CA        23.1550   10.9190    1.1250 C.3    40  LEU40       0.1693
     11  C         23.7420   12.3020    1.3700 C.2    40  LEU40       0.2592
     12  O         23.0690   13.3080    1.1740 O.2    40  LEU40      -0.2718
     13  CB        22.5500   10.3850    2.4210 C.3    40  LEU40       0.0284
     14  CG        21.7390    9.0980    2.3090 C.3    40  LEU40       0.0019
     15  CD1       20.9190    8.8920    3.5750 C.3    40  LEU40       0.0001
     16  CD2       20.8460    9.1390    1.0820 C.3    40  LEU40       0.0001
     17  N         24.9970   12.3450    1.8030 N.am   41  THR41      -0.1953
     18  CA        25.6640   13.6130    2.0890 C.3    41  THR41       0.1897
     19  C         25.9130   14.4040    0.8090 C.2    41  THR41       0.2313
     20  O         25.6170   15.5980    0.7410 O.2    41  THR41      -0.2863
     21  CB        26.9940   13.3910    2.8320 C.3    41  THR41       0.1794
     22  OG1       26.7190   12.9380    4.1640 O.3    41  THR41      -0.2208
     23  CG2       27.7990   14.6770    2.9000 C.3    41  THR41       0.0378
     24  N         24.2700   14.0860   -1.9350 N.3    43  LEU43      -0.1231
     25  CA        22.9640   14.4640   -2.4530 C.3    43  LEU43       0.1693
     26  C         22.4130   15.6910   -1.7430 C.2    43  LEU43       0.2591
     27  O         22.0120   16.6600   -2.3920 O.2    43  LEU43      -0.2718
     28  CB        21.9800   13.2980   -2.3280 C.3    43  LEU43       0.0284
     29  CG        20.5320   13.6010   -2.7190 C.3    43  LEU43       0.0019
     30  CD1       20.4260   14.0250   -4.1830 C.3    43  LEU43       0.0001
     31  CD2       19.6240   12.4040   -2.4260 C.3    43  LEU43       0.0001
     32  N         22.3950   15.6370   -0.4120 N.am   44  ALA44      -0.1980
     33  CA        21.8920   16.7360    0.4040 C.3    44  ALA44       0.1597
     34  C         22.6480   18.0290    0.1220 C.2    44  ALA44       0.2287
     35  O         22.0460   19.1030    0.0620 O.2    44  ALA44      -0.2864
     36  CB        21.9860   16.3840    1.8800 C.3    44  ALA44       0.0319
     37  N         21.3510   19.3810   -3.0660 N.3    47  GLU47      -0.1245
     38  CA        19.9800   19.8190   -2.8150 C.3    47  GLU47       0.1567
     39  C         19.9310   21.1450   -2.0620 C.2    47  GLU47       0.2260
     40  O         19.0500   21.9710   -2.3020 O.2    47  GLU47      -0.2867
     41  CB        19.2150   18.7610   -2.0250 C.3    47  GLU47       0.0388
     42  CG        18.6650   17.6300   -2.8620 C.3    47  GLU47       0.1160
     43  CD        17.8630   16.6490   -2.0310 C.2    47  GLU47       0.3649
     44  OE1       18.3960   16.1190   -1.0320 O.co2  47  GLU47      -0.2457
     45  OE2       16.6870   16.4240   -2.3610 O.co2  47  GLU47      -0.2457
     46  N         16.4870   23.6030    7.3930 N.3    77  TRP77      -0.1227
     47  CA        17.0130   22.9090    6.2110 C.3    77  TRP77       0.1737
     48  C         16.7330   21.3990    6.1890 C.2    77  TRP77       0.2595
     49  O         16.2830   20.8730    5.1670 O.2    77  TRP77      -0.2718
     50  CB        18.5150   23.1580    6.0610 C.3    77  TRP77       0.0564
     51  CG        19.3880   22.5330    7.0970 C.ar   77  TRP77       0.0003
     52  CD1       19.7420   23.0690    8.2940 C.ar   77  TRP77       0.0946
     53  CD2       20.0640   21.2720    7.0040 C.ar   77  TRP77       0.0152
     54  NE1       20.5760   22.2120    8.9700 N.ar   77  TRP77      -0.2442
     55  CE2       20.7950   21.1030    8.1950 C.ar   77  TRP77       0.0810
     56  CE3       20.1110   20.2650    6.0350 C.ar   77  TRP77       0.0012
     57  CZ2       21.5680   19.9660    8.4430 C.ar   77  TRP77       0.0191
     58  CZ3       20.8780   19.1350    6.2830 C.ar   77  TRP77       0.0001
     59  CH2       21.5930   18.9970    7.4750 C.ar   77  TRP77       0.0015
     60  N         16.9660   20.7080    7.3030 N.am   78  LEU78      -0.1980
     61  CA        16.7570   19.2640    7.3150 C.3    78  LEU78       0.1596
     62  C         15.2580   18.9450    7.2660 C.2    78  LEU78       0.2287
     63  O         14.8500   17.9960    6.5930 O.2    78  LEU78      -0.2864
     64  CB        17.4230   18.6200    8.5350 C.3    78  LEU78       0.0297
     65  CG        17.5130   17.0860    8.5430 C.3    78  LEU78       0.0022
     66  CD1       18.0850   16.5520    7.2320 C.3    78  LEU78       0.0001
     67  CD2       18.3310   16.5620    9.7330 C.3    78  LEU78       0.0001
     68  N         14.4360   19.2850    3.6480 N.3    81  LEU81      -0.1231
     69  CA        14.9490   18.1360    2.9110 C.3    81  LEU81       0.1693
     70  C         14.0550   16.9400    3.1530 C.2    81  LEU81       0.2591
     71  O         13.7270   16.1950    2.2310 O.2    81  LEU81      -0.2718
     72  CB        16.3880   17.7980    3.3150 C.3    81  LEU81       0.0284
     73  CG        17.5220   18.6710    2.7740 C.3    81  LEU81       0.0019
     74  CD1       18.8620   18.0930    3.1960 C.3    81  LEU81       0.0001
     75  CD2       17.4440   18.8210    1.2590 C.3    81  LEU81       0.0001
     76  N         13.6510   16.7690    4.4050 N.am   82  MET82      -0.1979
     77  CA        12.8900   15.5890    4.7990 C.3    82  MET82       0.1605
     78  C         11.4670   15.5660    4.2540 C.2    82  MET82       0.2287
     79  O         10.9850   14.5070    3.8390 O.2    82  MET82      -0.2864
     80  CB        12.8690   15.4610    6.3220 C.3    82  MET82       0.0413
     81  CG        14.1350   14.8190    6.8910 C.3    82  MET82       0.0598
     82  SD        14.1040   14.6360    8.6870 S.3    82  MET82      -0.1393
     83  CE        15.6040   13.6980    8.9670 C.3    82  MET82       0.0692
     84  N         11.7800   14.5820    0.7670 N.3    85  LEU85      -0.1245
     85  CA        12.0310   13.1420    0.6600 C.3    85  LEU85       0.1561
     86  C         10.7390   12.3390    0.7950 C.2    85  LEU85       0.2260
     87  O         10.4450   11.4370    0.0010 O.2    85  LEU85      -0.2867
     88  CB        13.0320   12.7050    1.7350 C.3    85  LEU85       0.0270
     89  CG        13.3000   11.2100    1.9040 C.3    85  LEU85       0.0019
     90  CD1       13.8440   10.6250    0.6160 C.3    85  LEU85       0.0001
     91  CD2       14.2890   10.9870    3.0340 C.3    85  LEU85       0.0001
     92  N          8.2540   12.8170   -2.3540 N.3    88  ARG88      -0.1245
     93  CA         8.5380   12.0730   -3.5770 C.3    88  ARG88       0.1563
     94  C          8.6080   10.5650   -3.3250 C.2    88  ARG88       0.2260
     95  O          8.7330    9.7820   -4.2590 O.2    88  ARG88      -0.2867
     96  CB         9.8240   12.5870   -4.2270 C.3    88  ARG88       0.0307
     97  CG        11.0770   12.5160   -3.3810 C.3    88  ARG88       0.0489
     98  CD        12.2150   13.2620   -4.0930 C.3    88  ARG88       0.2205
     99  NE        13.5070   13.0080   -3.4670 N.pl3  88  ARG88      -0.0865
    100  CZ        14.0460   13.7750   -2.5250 C.cat  88  ARG88       0.5346
    101  NH1       13.4040   14.8500   -2.0960 N.pl3  88  ARG88       0.1354
    102  NH2       15.2250   13.4590   -2.0070 N.pl3  88  ARG88       0.1354
    103  N         15.1830    8.7220   -2.2280 N.3    98  PHE98      -0.1241
    104  CA        16.1290    9.8220   -2.0550 C.3    98  PHE98       0.1605
    105  C         16.4160   10.4720   -3.4010 C.2    98  PHE98       0.2264
    106  O         16.5460   11.6920   -3.5040 O.2    98  PHE98      -0.2867
    107  CB        17.4210    9.3300   -1.4020 C.3    98  PHE98       0.0534
    108  CG        17.2580    8.9580    0.0430 C.ar   98  PHE98      -0.0203
    109  CD1       17.4970    9.8880    1.0450 C.ar   98  PHE98      -0.0042
    110  CD2       16.8440    7.6870    0.4010 C.ar   98  PHE98      -0.0042
    111  CE1       17.3450    9.5460    2.3810 C.ar   98  PHE98      -0.0003
    112  CE2       16.6810    7.3420    1.7320 C.ar   98  PHE98      -0.0003
    113  CZ        16.9330    8.2720    2.7230 C.ar   98  PHE98      -0.0000
    114  N         19.8040    4.6590   12.6430 N.3   115  MET115     -0.1245
    115  CA        19.2230    5.1130   11.3880 C.3   115  MET115      0.1570
    116  C         17.8130    4.5800   11.1500 C.2   115  MET115      0.2261
    117  O         16.9270    5.3270   10.7300 O.2   115  MET115     -0.2867
    118  CB        20.1180    4.7170   10.2130 C.3   115  MET115      0.0387
    119  CG        19.4060    4.7780    8.8710 C.3   115  MET115      0.0595
    120  SD        20.4970    5.1440    7.4920 S.3   115  MET115     -0.1393
    121  CE        21.1990    6.6910    8.0490 C.3   115  MET115      0.0692
    122  N         14.7240    6.5850   12.4950 N.3   118  ILE118     -0.1231
    123  CA        14.4070    7.7620   11.6950 C.3   118  ILE118      0.1692
    124  C         13.8580    7.3540   10.3270 C.2   118  ILE118      0.2592
    125  O         12.9540    7.9930    9.7920 O.2   118  ILE118     -0.2718
    126  CB        15.6470    8.6620   11.5240 C.3   118  ILE118      0.0266
    127  CG1       16.2370    8.9930   12.9010 C.3   118  ILE118      0.0019
    128  CG2       15.2960    9.9310   10.7460 C.3   118  ILE118      0.0020
    129  CD1       17.5010    9.8210   12.8640 C.3   118  ILE118      0.0001
    130  N         14.4060    6.2740    9.7800 N.am  119  PHE119     -0.1976
    131  CA        13.9140    5.6900    8.5390 C.3   119  PHE119      0.1639
    132  C         12.4160    5.3460    8.6450 C.2   119  PHE119      0.2290
    133  O         11.6260    5.7490    7.7940 O.2   119  PHE119     -0.2864
    134  CB        14.7340    4.4410    8.1900 C.3   119  PHE119      0.0560
    135  CG        14.8220    4.1570    6.7200 C.ar  119  PHE119     -0.0200
    136  CD1       15.9570    4.5060    6.0030 C.ar  119  PHE119     -0.0042
    137  CD2       13.7780    3.5360    6.0550 C.ar  119  PHE119     -0.0042
    138  CE1       16.0480    4.2450    4.6480 C.ar  119  PHE119     -0.0003
    139  CE2       13.8570    3.2730    4.7030 C.ar  119  PHE119     -0.0003
    140  CZ        14.9960    3.6270    3.9950 C.ar  119  PHE119     -0.0000
    141  N         10.0420    8.3770    8.7120 N.3   122  LEU122     -0.1245
    142  CA         9.9310    8.9320    7.3670 C.3   122  LEU122      0.1561
    143  C          8.9720    8.1010    6.5160 C.2   122  LEU122      0.2260
    144  O          8.1370    8.6480    5.7990 O.2   122  LEU122     -0.2867
    145  CB        11.3090    9.0090    6.7080 C.3   122  LEU122      0.0270
    146  CG        12.2420   10.0580    7.3220 C.3   122  LEU122      0.0019
    147  CD1       13.6860    9.8620    6.8790 C.3   122  LEU122      0.0001
    148  CD2       11.7670   11.4720    6.9930 C.3   122  LEU122      0.0001
    149  N         17.3130   13.5070   13.3850 N.3   202  GLY202     -0.1225
    150  CA        18.2480   13.3810   12.2840 C.3   202  GLY202      0.1811
    151  C         19.4810   14.2100   12.5700 C.2   202  GLY202      0.2280
    152  O         20.6100   13.7890   12.3150 O.2   202  GLY202     -0.2866
    153  N         21.9010   12.5760   14.8030 N.3   205  HIS205     -0.1226
    154  CA        22.5190   11.4800   14.0570 C.3   205  HIS205      0.1752
    155  C         23.6610   12.0000   13.1810 C.2   205  HIS205      0.2595
    156  O         24.7340   11.4000   13.1280 O.2   205  HIS205     -0.2718
    157  CB        21.4790   10.7540   13.1990 C.3   205  HIS205      0.0759
    158  CG        21.9930    9.5100   12.5380 C.ar  205  HIS205      0.0818
    159  ND1       22.7520    9.5330   11.3870 N.ar  205  HIS205     -0.2268
    160  CD2       21.8510    8.2040   12.8670 C.ar  205  HIS205      0.1154
    161  CE1       23.0570    8.2960   11.0370 C.ar  205  HIS205      0.1986
    162  NE2       22.5220    7.4700   11.9180 N.ar  205  HIS205     -0.2212
    163  N         23.4240   13.1200   12.5030 N.am  206  LEU206     -0.1980
    164  CA        24.4400   13.7350   11.6520 C.3   206  LEU206      0.1596
    165  C         25.5990   14.2590   12.4880 C.2   206  LEU206      0.2287
    166  O         26.7550   14.2250   12.0650 O.2   206  LEU206     -0.2864
    167  CB        23.8370   14.8690   10.8170 C.3   206  LEU206      0.0297
    168  CG        22.8670   14.4200    9.7190 C.3   206  LEU206      0.0022
    169  CD1       22.2910   15.6030    8.9520 C.3   206  LEU206      0.0001
    170  CD2       23.5570   13.4400    8.7720 C.3   206  LEU206      0.0001
    171  N         27.6280   11.3190   13.2530 N.3   209  MET209     -0.1245
    172  CA        28.3910   10.9410   12.0710 C.3   209  MET209      0.1570
    173  C         29.6140   11.8320   11.9080 C.2   209  MET209      0.2261
    174  O         30.6830   11.3750   11.5070 O.2   209  MET209     -0.2867
    175  CB        27.5260   11.0200   10.8110 C.3   209  MET209      0.0387
    176  CG        28.2740   10.6130    9.5460 C.3   209  MET209      0.0595
    177  SD        27.3850   10.8940    8.0020 S.3   209  MET209     -0.1393
    178  CE        27.4550   12.6730    7.8640 C.3   209  MET209      0.0692
    179  N         32.0520   15.6080    5.5420 N.3   217  LEU217     -0.1245
    180  CA        30.9780   16.5640    5.3550 C.3   217  LEU217      0.1561
    181  C         31.4950   17.7440    4.5420 C.2   217  LEU217      0.2260
    182  O         32.6520   18.1410    4.6740 O.2   217  LEU217     -0.2867
    183  CB        30.4240   17.0440    6.7000 C.3   217  LEU217      0.0270
    184  CG        29.5450   16.0960    7.5230 C.3   217  LEU217      0.0019
    185  CD1       30.3520   14.9530    8.1220 C.3   217  LEU217      0.0001
    186  CD2       28.8190   16.8600    8.6200 C.3   217  LEU217      0.0001
    187  N         27.4700   21.8760    4.6960 N.3   221  LEU221     -0.1245
    188  CA        26.7510   20.9950    5.6110 C.3   221  LEU221      0.1561
    189  C         27.2600   21.1600    7.0340 C.2   221  LEU221      0.2260
    190  O         26.4800   21.1960    7.9810 O.2   221  LEU221     -0.2867
    191  CB        26.8850   19.5320    5.1870 C.3   221  LEU221      0.0270
    192  CG        25.7340   18.9490    4.3740 C.3   221  LEU221      0.0019
    193  CD1       25.6660   19.6360    3.0370 C.3   221  LEU221      0.0001
    194  CD2       25.9210   17.4590    4.1890 C.3   221  LEU221      0.0001
@<TRIPOS>BOND
     1    95    94    2
     2    96    93    1
     3    96    97    1
     4    30    29    1
     5    98    99    1
     6    98    97    1
     7    93    94    1
     8    93    92    1
     9   106   105    2
    10    99   100    2
    11   105   104    1
    12    37    38    1
    13    42    43    1
    14    42    41    1
    15    38    39    1
    16    38    41    1
    17    29    31    1
    18    29    28    1
    19   100   101    1
    20   100   102    1
    21    25    28    1
    22    25    24    1
    23    25    26    1
    24    27    26    2
    25    45    43   ar
    26    40    39    2
    27   103   104    1
    28   104   107    1
    29    43    44   ar
    30    26    32   am
    31   107   108    1
    32    32    33    1
    33    87    86    2
    34   108   110   ar
    35   108   109   ar
    36    35    34    2
    37    34    33    1
    38   110   112   ar
    39    33    36    1
    40     9    10    1
    41    90    89    1
    42    85    84    1
    43    85    86    1
    44    85    88    1
    45    20    19    2
    46    19    18    1
    47   109   111   ar
    48    16    14    1
    49    10    11    1
    50    10    13    1
    51    12    11    2
    52    75    73    1
    53    11    17   am
    54   112   113   ar
    55    88    89    1
    56    17    18    1
    57    89    91    1
    58    18    21    1
    59    71    70    2
    60    14    13    1
    61    14    15    1
    62   111   113   ar
    63    73    74    1
    64    73    72    1
    65    21    23    1
    66    21    22    1
    67    69    70    1
    68    69    72    1
    69    69    68    1
    70   193   192    1
    71    70    76   am
    72     4     3    2
    73     3     2    1
    74    79    78    2
    75     1     2    1
    76   140   138   ar
    77   140   139   ar
    78   194   192    1
    79    78    77    1
    80     2     5    1
    81   192   191    1
    82    76    77    1
    83   181   182    2
    84   181   180    1
    85   138   136   ar
    86   187   188    1
    87   139   137   ar
    88    77    80    1
    89    49    48    2
    90   191   188    1
    91   180   179    1
    92   180   183    1
    93   188   189    1
    94     5     6    1
    95   144   143    2
    96   136   135   ar
    97    56    58   ar
    98    56    53   ar
    99   137   135   ar
   100    50    47    1
   101    50    51    1
   102    48    47    1
   103    48    60   am
   104    47    46    1
   105    58    59   ar
   106    80    81    1
   107   143   142    1
   108    63    62    2
   109   183   184    1
   110   145   146    1
   111   145   142    1
   112     7     6    1
   113     7     8    1
   114   135   134    1
   115   147   146    1
   116    81    82    1
   117   148   146    1
   118    53    51   ar
   119    53    55   ar
   120   189   190    2
   121    51    52   ar
   122    66    65    1
   123    62    61    1
   124    60    61    1
   125    61    64    1
   126   142   141    1
   127    59    57   ar
   128   120   121    1
   129   120   119    1
   130   184   185    1
   131   184   186    1
   132   133   132    2
   133   178   177    1
   134   177   176    1
   135   134   131    1
   136    55    57   ar
   137    55    54   ar
   138    52    54   ar
   139    64    65    1
   140   131   132    1
   141   131   130    1
   142    65    67    1
   143    82    83    1
   144   170   168    1
   145   119   118    1
   146   169   168    1
   147   176   175    1
   148   168   167    1
   149   130   124   am
   150   125   124    2
   151   118   115    1
   152   124   123    1
   153   117   116    2
   154   128   126    1
   155   175   172    1
   156   167   164    1
   157   161   159   ar
   158   161   162   ar
   159   116   115    1
   160   159   158   ar
   161   115   114    1
   162   174   173    2
   163   126   123    1
   164   126   127    1
   165   164   165    1
   166   164   163    1
   167   123   122    1
   168   173   172    1
   169   162   160   ar
   170   166   165    2
   171   172   171    1
   172   150   151    1
   173   150   149    1
   174   152   151    2
   175   163   155   am
   176   158   160   ar
   177   158   157    1
   178   129   127    1
   179   156   155    2
   180   155   154    1
   181   157   154    1
   182   154   153    1
