@<TRIPOS>MOLECULE
tmp/5dydB00.pdb
 117 109 0 0 0
SMALL
GASTEIGER

@<TRIPOS>ATOM
      1  N          2.1360   -2.7390   37.6030 N.3    45  VAL45      -0.1245
      2  CA         1.1410   -3.5920   38.2320 C.3    45  VAL45       0.1561
      3  C         -0.2610   -3.0420   37.9830 C.2    45  VAL45       0.2260
      4  O         -1.2200   -3.8010   37.8440 O.2    45  VAL45      -0.2867
      5  CB         1.3970   -3.7290   39.7400 C.3    45  VAL45       0.0252
      6  CG1        0.4790   -4.7770   40.3370 C.3    45  VAL45       0.0019
      7  CG2        2.8530   -4.1050   39.9910 C.3    45  VAL45       0.0019
      8  N         -1.0850   -3.5820   34.0260 N.3    48  ILE48      -0.1231
      9  CA        -1.4800   -4.9560   33.7370 C.3    48  ILE48       0.1692
     10  C         -2.9680   -5.1540   33.9960 C.2    48  ILE48       0.2592
     11  O         -3.6710   -5.7700   33.1920 O.2    48  ILE48      -0.2718
     12  CB        -0.6700   -5.9630   34.5820 C.3    48  ILE48       0.0266
     13  CG1        0.8190   -5.8700   34.2420 C.3    48  ILE48       0.0019
     14  CG2       -1.1730   -7.3810   34.3620 C.3    48  ILE48       0.0020
     15  CD1        1.7040   -6.7240   35.1270 C.3    48  ILE48       0.0001
     16  N         -3.4480   -4.6200   35.1160 N.am   49  ASN49      -0.1974
     17  CA        -4.8570   -4.7360   35.4610 C.3    49  ASN49       0.1688
     18  C         -5.7040   -3.7360   34.6830 C.2    49  ASN49       0.2292
     19  O         -6.8930   -3.9550   34.4620 O.2    49  ASN49      -0.2864
     20  CB        -5.0510   -4.5570   36.9650 C.3    49  ASN49       0.1181
     21  CG        -4.4130   -5.6780   37.7660 C.2    49  ASN49       0.2629
     22  OD1       -4.9800   -6.7640   37.8950 O.2    49  ASN49      -0.2716
     23  ND2       -3.2250   -5.4230   38.3030 N.am   49  ASN49      -0.0877
     24  N         -6.4740   -5.3310   31.2280 N.3    52  LYS52      -0.1245
     25  CA        -7.5590   -6.3030   31.2880 C.3    52  LYS52       0.1561
     26  C         -8.9090   -5.6390   31.0580 C.2    52  LYS52       0.2260
     27  O         -9.8300   -6.2550   30.5250 O.2    52  LYS52      -0.2867
     28  CB        -7.5610   -7.0260   32.6320 C.3    52  LYS52       0.0271
     29  CG        -6.2850   -7.7870   32.9320 C.3    52  LYS52       0.0035
     30  CD        -6.4110   -8.5270   34.2480 C.3    52  LYS52       0.0206
     31  CE        -5.1220   -9.2380   34.6100 C.3    52  LYS52       0.1093
     32  NZ        -5.2350   -9.9320   35.9240 N.3    52  LYS52      -0.1314
     33  N         -9.1320   -6.8170   24.8250 N.3    57  PHE57      -0.1241
     34  CA        -7.8170   -7.2980   25.2470 C.3    57  PHE57       0.1605
     35  C         -7.8770   -8.6590   25.9350 C.2    57  PHE57       0.2264
     36  O         -7.0070   -9.5060   25.7250 O.2    57  PHE57      -0.2867
     37  CB        -7.1510   -6.2840   26.1830 C.3    57  PHE57       0.0534
     38  CG        -5.7440   -6.6520   26.5780 C.ar   57  PHE57      -0.0203
     39  CD1       -5.4920   -7.3240   27.7640 C.ar   57  PHE57      -0.0042
     40  CD2       -4.6730   -6.3250   25.7600 C.ar   57  PHE57      -0.0042
     41  CE1       -4.2000   -7.6610   28.1260 C.ar   57  PHE57      -0.0003
     42  CE2       -3.3770   -6.6610   26.1200 C.ar   57  PHE57      -0.0003
     43  CZ        -3.1440   -7.3300   27.3060 C.ar   57  PHE57      -0.0000
     44  N         -3.4370  -15.7980   26.5610 N.3    62  LEU62      -0.1245
     45  CA        -2.5030  -15.3090   27.5690 C.3    62  LEU62       0.1561
     46  C         -1.1520  -14.9610   26.9410 C.2    62  LEU62       0.2260
     47  O         -0.5440  -13.9460   27.2880 O.2    62  LEU62      -0.2867
     48  CB        -2.3330  -16.3430   28.6880 C.3    62  LEU62       0.0270
     49  CG        -1.5610  -15.9250   29.9420 C.3    62  LEU62       0.0019
     50  CD1       -2.2710  -16.4120   31.1990 C.3    62  LEU62       0.0001
     51  CD2       -0.1320  -16.4490   29.9020 C.3    62  LEU62       0.0001
     52  N         -1.4080  -11.5480   25.0840 N.3    65  GLN65      -0.1231
     53  CA        -1.4880  -10.4380   26.0250 C.3    65  GLN65       0.1698
     54  C         -0.1070  -10.1230   26.5940 C.2    65  GLN65       0.2592
     55  O          0.2580   -8.9580   26.7570 O.2    65  GLN65      -0.2718
     56  CB        -2.4750  -10.7600   27.1580 C.3    65  GLN65       0.0381
     57  CG        -3.9220  -10.9190   26.7050 C.3    65  GLN65       0.0905
     58  CD        -4.8460  -11.3820   27.8230 C.2    65  GLN65       0.2608
     59  OE1       -4.4660  -11.4000   28.9930 O.2    65  GLN65      -0.2717
     60  NE2       -6.0680  -11.7630   27.4620 N.am   65  GLN65      -0.0878
     61  N          0.6530  -11.1730   26.8890 N.am   66  VAL66      -0.1980
     62  CA         2.0120  -11.0380   27.4030 C.3    66  VAL66       0.1595
     63  C          2.8950  -10.2590   26.4290 C.2    66  VAL66       0.2287
     64  O          3.5730   -9.3050   26.8200 O.2    66  VAL66      -0.2864
     65  CB         2.6430  -12.4240   27.6860 C.3    66  VAL66       0.0276
     66  CG1        4.1580  -12.3190   27.8150 C.3    66  VAL66       0.0022
     67  CG2        2.0380  -13.0410   28.9370 C.3    66  VAL66       0.0022
     68  N          1.9500   -6.4820   25.9880 N.3    69  LEU69      -0.1231
     69  CA         2.4310   -5.6690   27.0990 C.3    69  LEU69       0.1693
     70  C          3.9530   -5.5570   27.0720 C.2    69  LEU69       0.2591
     71  O          4.5010   -4.4710   27.2700 O.2    69  LEU69      -0.2718
     72  CB         1.9650   -6.2410   28.4370 C.3    69  LEU69       0.0284
     73  CG         0.5060   -5.9530   28.7920 C.3    69  LEU69       0.0019
     74  CD1        0.0820   -6.7520   30.0120 C.3    69  LEU69       0.0001
     75  CD2        0.2900   -4.4630   29.0240 C.3    69  LEU69       0.0001
     76  N          4.6300   -6.6750   26.8170 N.am   70  GLU70      -0.1979
     77  CA         6.0880   -6.6970   26.7770 C.3    70  GLU70       0.1602
     78  C          6.6380   -5.6730   25.7910 C.2    70  GLU70       0.2287
     79  O          7.6660   -5.0440   26.0490 O.2    70  GLU70      -0.2864
     80  CB         6.5940   -8.0940   26.4130 C.3    70  GLU70       0.0415
     81  CG         6.6630   -9.0570   27.5820 C.3    70  GLU70       0.1163
     82  CD         7.1130  -10.4400   27.1630 C.2    70  GLU70       0.3649
     83  OE1        7.2870  -10.6610   25.9470 O.co2  70  GLU70      -0.2457
     84  OE2        7.2960  -11.3070   28.0440 O.co2  70  GLU70      -0.2457
     85  N         12.2240   -7.2850   39.5670 N.3   221  ASP221     -0.1225
     86  CA        12.1070   -8.6020   38.9540 C.3   221  ASP221      0.1805
     87  C         11.1370   -8.6070   37.7750 C.2   221  ASP221      0.2597
     88  O         11.2450   -9.4400   36.8740 O.2   221  ASP221     -0.2718
     89  CB        11.6740   -9.6300   39.9990 C.3   221  ASP221      0.1424
     90  CG        12.6310   -9.6980   41.1720 C.2   221  ASP221      0.3668
     91  OD1       13.8180   -9.3570   40.9850 O.co2 221  ASP221     -0.2456
     92  OD2       12.2000  -10.0870   42.2780 O.co2 221  ASP221     -0.2456
     93  N         10.1930   -7.6740   37.7800 N.am  222  LEU222     -0.1979
     94  CA         9.2290   -7.5710   36.6940 C.3   222  LEU222      0.1596
     95  C          9.8140   -6.8160   35.5050 C.2   222  LEU222      0.2287
     96  O          9.6320   -7.2180   34.3560 O.2   222  LEU222     -0.2864
     97  CB         7.9500   -6.8850   37.1720 C.3   222  LEU222      0.0297
     98  CG         6.8640   -6.7110   36.1100 C.3   222  LEU222      0.0022
     99  CD1        6.4700   -8.0560   35.5190 C.3   222  LEU222      0.0001
    100  CD2        5.6530   -6.0050   36.6970 C.3   222  LEU222      0.0001
    101  N         12.0800   -8.8150   33.1250 N.3   225  GLU225     -0.1231
    102  CA        11.3950   -9.6990   32.1890 C.3   225  GLU225      0.1699
    103  C         10.7520   -8.9030   31.0570 C.2   225  GLU225      0.2592
    104  O         10.6220   -9.3950   29.9360 O.2   225  GLU225     -0.2718
    105  CB        10.3390  -10.5350   32.9140 C.3   225  GLU225      0.0402
    106  CG        10.9610  -11.4240   33.9910 C.3   225  GLU225      0.1161
    107  CD        11.3180  -12.7560   33.3630 C.2   225  GLU225      0.3649
    108  OE1       11.0980  -12.9990   32.1520 O.co2 225  GLU225     -0.2457
    109  OE2       11.8850  -13.5900   34.0770 O.co2 225  GLU225     -0.2457
    110  N         10.3490   -7.6720   31.3560 N.am  226  MET226     -0.1979
    111  CA         9.7770   -6.7870   30.3470 C.3   226  MET226      0.1605
    112  C         10.8780   -6.2440   29.4490 C.2   226  MET226      0.2287
    113  O         10.6210   -5.7790   28.3370 O.2   226  MET226     -0.2864
    114  CB         9.0150   -5.6270   30.9980 C.3   226  MET226      0.0413
    115  CG         7.9710   -6.0440   32.0220 C.3   226  MET226      0.0598
    116  SD         6.5940   -6.9630   31.3260 S.3   226  MET226     -0.1393
    117  CE         5.7850   -5.6990   30.3620 C.3   226  MET226      0.0692
@<TRIPOS>BOND
     1    33    34    1
     2    52    53    1
     3    34    35    1
     4    34    37    1
     5    36    35    2
     6    40    42   ar
     7    40    38   ar
     8    78    79    2
     9    78    77    1
    10    83    82   ar
    11    68    69    1
    12    53    54    1
    13    53    56    1
    14    42    43   ar
    15    37    38    1
    16    80    77    1
    17    80    81    1
    18    63    64    2
    19    63    62    1
    20    44    45    1
    21    38    39   ar
    22    54    55    2
    23    54    61   am
    24    57    56    1
    25    57    58    1
    26    77    76    1
    27    76    70   am
    28    61    62    1
    29    46    47    2
    30    46    45    1
    31    70    69    1
    32    70    71    2
    33    69    72    1
    34    82    81    1
    35    82    84   ar
    36    43    41   ar
    37    62    65    1
    38    60    58   am
    39    45    48    1
    40    65    66    1
    41    65    67    1
    42    39    41   ar
    43    58    59    2
    44   113   112    2
    45    72    73    1
    46    48    49    1
    47    73    75    1
    48    73    74    1
    49   112   111    1
    50    51    49    1
    51   104   103    2
    52    49    50    1
    53   111   114    1
    54   111   110    1
    55   117   116    1
    56    27    26    2
    57   114   115    1
    58   103   110   am
    59   103   102    1
    60    26    25    1
    61    24    25    1
    62    25    28    1
    63   116   115    1
    64   108   107   ar
    65   102   105    1
    66   102   101    1
    67    28    29    1
    68   105   106    1
    69    29    30    1
    70    11    10    2
    71   107   106    1
    72   107   109   ar
    73     9    10    1
    74     9     8    1
    75     9    12    1
    76    10    16   am
    77    13    12    1
    78    13    15    1
    79    30    31    1
    80    96    95    2
    81    14    12    1
    82    19    18    2
    83    31    32    1
    84    18    17    1
    85    16    17    1
    86    17    20    1
    87    95    94    1
    88    99    98    1
    89    98   100    1
    90    98    97    1
    91    94    97    1
    92    94    93    1
    93    88    87    2
    94    20    21    1
    95     1     2    1
    96    21    22    2
    97    21    23   am
    98    87    93   am
    99    87    86    1
   100     4     3    2
   101     3     2    1
   102     2     5    1
   103    86    85    1
   104    86    89    1
   105     5     7    1
   106     5     6    1
   107    89    90    1
   108    91    90   ar
   109    90    92   ar
