@<TRIPOS>MOLECULE
tmp/5dydB01.pdb
 186 175 0 0 0
SMALL
GASTEIGER

@<TRIPOS>ATOM
      1  N         17.4660    7.5880   38.8420 N.3    33  MET33      -0.1245
      2  CA        17.0540    6.4320   38.0610 C.3    33  MET33       0.1570
      3  C         16.4640    5.3580   38.9660 C.2    33  MET33       0.2261
      4  O         15.6310    4.5610   38.5360 O.2    33  MET33      -0.2867
      5  CB        18.2360    5.8750   37.2690 C.3    33  MET33       0.0387
      6  CG        17.8520    4.8130   36.2570 C.3    33  MET33       0.0595
      7  SD        16.5840    5.3750   35.1030 S.3    33  MET33      -0.1393
      8  CE        17.3920    6.7840   34.3680 C.3    33  MET33       0.0692
      9  N         12.7240    6.4250   39.5740 N.3    36  LEU36      -0.1231
     10  CA        11.9070    6.1930   38.3870 C.3    36  LEU36       0.1693
     11  C         11.6460    4.7080   38.1680 C.2    36  LEU36       0.2592
     12  O         10.5710    4.3190   37.7150 O.2    36  LEU36      -0.2718
     13  CB        12.5820    6.7900   37.1490 C.3    36  LEU36       0.0284
     14  CG        12.9090    8.2840   37.1870 C.3    36  LEU36       0.0019
     15  CD1       13.5130    8.7360   35.8670 C.3    36  LEU36       0.0001
     16  CD2       11.6700    9.0980   37.5220 C.3    36  LEU36       0.0001
     17  N         12.6390    3.8860   38.4900 N.am   37  THR37      -0.1953
     18  CA        12.5270    2.4420   38.3320 C.3    37  THR37       0.1897
     19  C         11.4820    1.8740   39.2900 C.2    37  THR37       0.2313
     20  O         10.5990    1.1220   38.8780 O.2    37  THR37      -0.2863
     21  CB        13.8900    1.7510   38.5580 C.3    37  THR37       0.1794
     22  OG1       14.8060    2.1580   37.5320 O.3    37  THR37      -0.2208
     23  CG2       13.7470    0.2390   38.5220 C.3    37  THR37       0.0378
     24  N          9.1620    3.5830   40.7200 N.3    39  LEU39      -0.1231
     25  CA         7.9090    4.1790   40.2780 C.3    39  LEU39       0.1693
     26  C          7.3040    3.3730   39.1310 C.2    39  LEU39       0.2591
     27  O          6.1300    3.0130   39.1690 O.2    39  LEU39      -0.2718
     28  CB         8.1240    5.6330   39.8460 C.3    39  LEU39       0.0284
     29  CG         6.9230    6.3510   39.2200 C.3    39  LEU39       0.0019
     30  CD1        5.7980    6.5310   40.2300 C.3    39  LEU39       0.0001
     31  CD2        7.3390    7.6920   38.6290 C.3    39  LEU39       0.0001
     32  N          8.1080    3.0860   38.1140 N.am   40  ALA40      -0.1980
     33  CA         7.6100    2.3670   36.9470 C.3    40  ALA40       0.1597
     34  C          7.2130    0.9400   37.3150 C.2    40  ALA40       0.2287
     35  O          6.2520    0.3960   36.7640 O.2    40  ALA40      -0.2864
     36  CB         8.6500    2.3620   35.8340 C.3    40  ALA40       0.0319
     37  N          3.8940    1.1510   38.6840 N.3    43  GLU43      -0.1245
     38  CA         2.9790    1.5610   37.6290 C.3    43  GLU43       0.1567
     39  C          2.5960    0.3900   36.7370 C.2    43  GLU43       0.2260
     40  O          1.4760    0.3280   36.2310 O.2    43  GLU43      -0.2867
     41  CB         3.5920    2.6700   36.7890 C.3    43  GLU43       0.0388
     42  CG         3.4990    4.0320   37.4250 C.3    43  GLU43       0.1160
     43  CD         3.7090    5.1340   36.4160 C.2    43  GLU43       0.3649
     44  OE1        4.8790    5.4620   36.1360 O.co2  43  GLU43      -0.2457
     45  OE2        2.7060    5.6630   35.8920 O.co2  43  GLU43      -0.2457
     46  N          4.8690   -1.6490   27.0590 N.3    73  TRP73      -0.1227
     47  CA         4.7860   -1.1610   28.4420 C.3    73  TRP73       0.1737
     48  C          5.4380    0.2070   28.6580 C.2    73  TRP73       0.2595
     49  O          4.9390    1.0160   29.4400 O.2    73  TRP73      -0.2718
     50  CB         5.3950   -2.1750   29.4220 C.3    73  TRP73       0.0564
     51  CG         6.8810   -2.3830   29.3070 C.ar   73  TRP73       0.0003
     52  CD1        7.5180   -3.3150   28.5450 C.ar   73  TRP73       0.0946
     53  CD2        7.9100   -1.6610   29.9970 C.ar   73  TRP73       0.0152
     54  NE1        8.8780   -3.2140   28.7050 N.ar   73  TRP73      -0.2442
     55  CE2        9.1460   -2.2040   29.5930 C.ar   73  TRP73       0.0810
     56  CE3        7.9080   -0.6030   30.9130 C.ar   73  TRP73       0.0012
     57  CZ2       10.3670   -1.7290   30.0710 C.ar   73  TRP73       0.0191
     58  CZ3        9.1230   -0.1300   31.3870 C.ar   73  TRP73       0.0001
     59  CH2       10.3340   -0.6930   30.9640 C.ar   73  TRP73       0.0015
     60  N          6.5420    0.4700   27.9680 N.am   74  LEU74      -0.1980
     61  CA         7.2260    1.7500   28.1180 C.3    74  LEU74       0.1596
     62  C          6.5090    2.8510   27.3380 C.2    74  LEU74       0.2287
     63  O          6.4980    4.0070   27.7610 O.2    74  LEU74      -0.2864
     64  CB         8.6840    1.6390   27.6660 C.3    74  LEU74       0.0297
     65  CG         9.6060    2.8030   28.0370 C.3    74  LEU74       0.0022
     66  CD1        9.3790    3.2350   29.4810 C.3    74  LEU74       0.0001
     67  CD2       11.0630    2.4140   27.8190 C.3    74  LEU74       0.0001
     68  N          3.6100    3.8100   29.5600 N.3    77  LEU77      -0.1231
     69  CA         4.2040    4.6330   30.6100 C.3    77  LEU77       0.1693
     70  C          4.5650    6.0270   30.0880 C.2    77  LEU77       0.2591
     71  O          4.2230    7.0330   30.6990 O.2    77  LEU77      -0.2718
     72  CB         5.4520    3.9620   31.1890 C.3    77  LEU77       0.0284
     73  CG         5.2670    2.7620   32.1180 C.3    77  LEU77       0.0019
     74  CD1        6.6140    2.2310   32.5860 C.3    77  LEU77       0.0001
     75  CD2        4.3990    3.1220   33.3110 C.3    77  LEU77       0.0001
     76  N          5.2450    6.0910   28.9490 N.am   78  MET78      -0.1979
     77  CA         5.7250    7.3750   28.4370 C.3    78  MET78       0.1605
     78  C          4.5910    8.3070   28.0180 C.2    78  MET78       0.2287
     79  O          4.6630    9.5130   28.2600 O.2    78  MET78      -0.2864
     80  CB         6.6870    7.1640   27.2660 C.3    78  MET78       0.0413
     81  CG         8.0910    6.7580   27.6950 C.3    78  MET78       0.0598
     82  SD         9.1990    6.5670   26.2910 S.3    78  MET78      -0.1393
     83  CE        10.7690    6.3160   27.1330 C.3    78  MET78       0.0692
     84  N          3.1500    9.6640   31.1080 N.3    81  LEU81      -0.1245
     85  CA         4.0160   10.7380   31.5920 C.3    81  LEU81       0.1561
     86  C          3.7810   12.0450   30.8370 C.2    81  LEU81       0.2260
     87  O          3.6350   13.1090   31.4440 O.2    81  LEU81      -0.2867
     88  CB         5.4860   10.3310   31.4710 C.3    81  LEU81       0.0270
     89  CG         6.5200   11.4290   31.7330 C.3    81  LEU81       0.0019
     90  CD1        6.4980   11.8450   33.1920 C.3    81  LEU81       0.0001
     91  CD2        7.9120   10.9780   31.3140 C.3    81  LEU81       0.0001
     92  N          0.4730   13.6730   31.8340 N.3    84  ARG84      -0.1245
     93  CA         0.4710   14.3020   33.1580 C.3    84  ARG84       0.1563
     94  C          1.2050   15.6380   33.1290 C.2    84  ARG84       0.2260
     95  O          0.8720   16.5550   33.8850 O.2    84  ARG84      -0.2867
     96  CB         1.1130   13.3900   34.2150 C.3    84  ARG84       0.0307
     97  CG         0.4220   12.0520   34.4230 C.3    84  ARG84       0.0489
     98  CD         0.8690   11.3760   35.7240 C.3    84  ARG84       0.2205
     99  NE         2.2730   10.9590   35.7240 N.pl3  84  ARG84      -0.0865
    100  CZ         2.7090    9.7840   35.2740 C.cat  84  ARG84       0.5346
    101  NH1        1.8530    8.9050   34.7700 N.pl3  84  ARG84       0.1354
    102  NH2        4.0010    9.4880   35.3220 N.pl3  84  ARG84       0.1354
    103  N          6.5950   13.0490   36.6400 N.3    94  PHE94      -0.1241
    104  CA         6.6040   11.6130   36.8880 C.3    94  PHE94       0.1605
    105  C          5.6460   11.2800   38.0220 C.2    94  PHE94       0.2264
    106  O          5.1100   10.1730   38.1040 O.2    94  PHE94      -0.2867
    107  CB         8.0140   11.1310   37.2200 C.3    94  PHE94       0.0534
    108  CG         8.9930   11.3370   36.1080 C.ar   94  PHE94      -0.0203
    109  CD1        9.2090   10.3450   35.1680 C.ar   94  PHE94      -0.0042
    110  CD2        9.6950   12.5270   35.9950 C.ar   94  PHE94      -0.0042
    111  CE1       10.1100   10.5390   34.1400 C.ar   94  PHE94      -0.0003
    112  CE2       10.5930   12.7210   34.9700 C.ar   94  PHE94      -0.0003
    113  CZ        10.8010   11.7260   34.0420 C.ar   94  PHE94      -0.0000
    114  N         20.1940   10.5230   29.3080 N.3   111  MET111     -0.1245
    115  CA        18.7610   10.6780   29.5330 C.3   111  MET111      0.1570
    116  C         18.2680   12.0320   29.0260 C.2   111  MET111      0.2261
    117  O         17.0850   12.1940   28.7080 O.2   111  MET111     -0.2867
    118  CB        18.4270   10.5140   31.0190 C.3   111  MET111      0.0387
    119  CG        16.9270   10.4730   31.3150 C.3   111  MET111      0.0595
    120  SD        16.4760    9.9260   32.9830 S.3   111  MET111     -0.1393
    121  CE        17.0090   11.3050   33.9730 C.3   111  MET111      0.0692
    122  N         16.2960   11.8880   25.8200 N.3   114  ILE114     -0.1231
    123  CA        14.9460   11.3440   25.9680 C.3   114  ILE114      0.1692
    124  C         13.9820   12.3830   26.5380 C.2   114  ILE114      0.2592
    125  O         12.8350   12.4840   26.0970 O.2   114  ILE114     -0.2718
    126  CB        14.9280   10.1020   26.8850 C.3   114  ILE114      0.0266
    127  CG1       16.0600    9.1420   26.5180 C.3   114  ILE114      0.0019
    128  CG2       13.5780    9.4030   26.8130 C.3   114  ILE114      0.0020
    129  CD1       15.9990    8.6420   25.0960 C.3   114  ILE114      0.0001
    130  N         14.4600   13.1420   27.5230 N.am  115  PHE115     -0.1976
    131  CA        13.6800   14.2010   28.1590 C.3   115  PHE115      0.1639
    132  C         13.2120   15.2340   27.1470 C.2   115  PHE115      0.2290
    133  O         12.0620   15.6780   27.1910 O.2   115  PHE115     -0.2864
    134  CB        14.5040   14.8870   29.2480 C.3   115  PHE115      0.0560
    135  CG        14.2810   14.3330   30.6230 C.ar  115  PHE115     -0.0200
    136  CD1       14.1140   15.1860   31.7040 C.ar  115  PHE115     -0.0042
    137  CD2       14.2310   12.9640   30.8400 C.ar  115  PHE115     -0.0042
    138  CE1       13.9090   14.6860   32.9760 C.ar  115  PHE115     -0.0003
    139  CE2       14.0240   12.4560   32.1130 C.ar  115  PHE115     -0.0003
    140  CZ        13.8630   13.3180   33.1800 C.ar  115  PHE115     -0.0000
    141  N         10.3610   13.8720   25.1360 N.3   118  LEU118     -0.1245
    142  CA         9.2070   13.7970   26.0220 C.3   118  LEU118      0.1561
    143  C          8.5990   15.1830   26.2240 C.2   118  LEU118      0.2260
    144  O          7.3840   15.3530   26.1150 O.2   118  LEU118     -0.2867
    145  CB         9.6010   13.1820   27.3610 C.3   118  LEU118      0.0270
    146  CG         9.8750   11.6780   27.3590 C.3   118  LEU118      0.0019
    147  CD1       10.6530   11.2990   28.5920 C.3   118  LEU118      0.0001
    148  CD2        8.5760   10.8870   27.2890 C.3   118  LEU118      0.0001
    149  N         14.6600    4.8270   24.8050 N.3   205  GLY205     -0.1225
    150  CA        14.6040    4.5790   26.2340 C.3   205  GLY205      0.1811
    151  C         14.9160    3.1410   26.5970 C.2   205  GLY205      0.2280
    152  O         15.7550    2.8840   27.4600 O.2   205  GLY205     -0.2866
    153  N         18.4140    2.3080   26.6070 N.3   208  HIS208     -0.1226
    154  CA        19.1330    2.9270   27.7140 C.3   208  HIS208      0.1752
    155  C         19.0140    2.0660   28.9690 C.2   208  HIS208      0.2595
    156  O         19.9380    2.0040   29.7760 O.2   208  HIS208     -0.2718
    157  CB        18.6110    4.3390   27.9850 C.3   208  HIS208      0.0759
    158  CG        19.4130    5.0920   29.0010 C.ar  208  HIS208      0.0818
    159  ND1       19.1140    5.0780   30.3460 N.ar  208  HIS208     -0.2268
    160  CD2       20.5100    5.8750   28.8680 C.ar  208  HIS208      0.1154
    161  CE1       19.9890    5.8230   30.9990 C.ar  208  HIS208      0.1986
    162  NE2       20.8460    6.3180   30.1250 N.ar  208  HIS208     -0.2212
    163  N         17.8750    1.3970   29.1210 N.am  209  LEU209     -0.1980
    164  CA        17.6380    0.5360   30.2780 C.3   209  LEU209      0.1596
    165  C         18.4510   -0.7530   30.1780 C.2   209  LEU209      0.2287
    166  O         18.8950   -1.2950   31.1950 O.2   209  LEU209     -0.2864
    167  CB        16.1450    0.2100   30.4180 C.3   209  LEU209      0.0297
    168  CG        15.1970    1.3780   30.7120 C.3   209  LEU209      0.0022
    169  CD1       13.7490    0.9080   30.7570 C.3   209  LEU209      0.0001
    170  CD2       15.5780    2.0700   32.0100 C.3   209  LEU209      0.0001
    171  N         17.3650   -3.2560   38.5140 N.3   219  LEU219     -0.1245
    172  CA        15.9560   -3.2470   38.1380 C.3   219  LEU219      0.1561
    173  C         15.1560   -4.3000   38.9010 C.2   219  LEU219      0.2260
    174  O         15.7070   -5.3060   39.3550 O.2   219  LEU219     -0.2867
    175  CB        15.8170   -3.4670   36.6300 C.3   219  LEU219      0.0270
    176  CG        16.7160   -2.5920   35.7510 C.3   219  LEU219      0.0019
    177  CD1       16.6130   -2.9990   34.2920 C.3   219  LEU219      0.0001
    178  CD2       16.3800   -1.1180   35.9250 C.3   219  LEU219      0.0001
    179  N         10.5180   -5.7240   35.7890 N.3   223  LEU223     -0.1245
    180  CA        11.1130   -4.8980   34.7450 C.3   223  LEU223      0.1561
    181  C         12.1760   -5.6450   33.9400 C.2   223  LEU223      0.2260
    182  O         12.3780   -5.3630   32.7600 O.2   223  LEU223     -0.2867
    183  CB        11.7160   -3.6320   35.3550 C.3   223  LEU223      0.0270
    184  CG        10.7390   -2.4800   35.5890 C.3   223  LEU223      0.0019
    185  CD1       11.3790   -1.3870   36.4200 C.3   223  LEU223      0.0001
    186  CD2       10.2620   -1.9200   34.2610 C.3   223  LEU223      0.0001
@<TRIPOS>BOND
     1   149   150    1
     2   129   127    1
     3   141   142    1
     4   122   123    1
     5   123   124    1
     6   123   126    1
     7   142   143    1
     8   142   145    1
     9   125   124    2
    10   144   143    2
    11   150   151    1
    12    82    83    1
    13    82    81    1
    14   127   126    1
    15   124   130   am
    16   151   152    2
    17   153   154    1
    18   128   126    1
    19    46    47    1
    20   132   133    2
    21   132   131    1
    22    80    81    1
    23    80    77    1
    24   148   146    1
    25    62    63    2
    26    62    61    1
    27   146   145    1
    28   146   147    1
    29   130   131    1
    30    64    65    1
    31    64    61    1
    32   154   157    1
    33   154   155    1
    34    67    65    1
    35    60    61    1
    36    60    48   am
    37   157   158    1
    38    78    79    2
    39    78    77    1
    40    65    66    1
    41   131   134    1
    42    77    76    1
    43    47    48    1
    44    47    50    1
    45    52    54   ar
    46    52    51   ar
    47    48    49    2
    48    54    55   ar
    49   117   116    2
    50   160   158   ar
    51   160   162   ar
    52    76    70   am
    53   155   163   am
    54   155   156    2
    55   158   159   ar
    56   116   115    1
    57   163   164    1
    58   134   135    1
    59    51    50    1
    60    51    53   ar
    61   114   115    1
    62   115   118    1
    63    68    69    1
    64    55    53   ar
    65    55    57   ar
    66    53    56   ar
    67    57    59   ar
    68    70    69    1
    69    70    71    2
    70   162   161   ar
    71   165   164    1
    72   165   166    2
    73   164   167    1
    74   159   161   ar
    75   167   168    1
    76    69    72    1
    77   135   137   ar
    78   135   136   ar
    79   168   169    1
    80   168   170    1
    81    86    87    2
    82    86    85    1
    83   137   139   ar
    84    56    58   ar
    85    59    58   ar
    86   118   119    1
    87    84    85    1
    88    72    73    1
    89    91    89    1
    90   119   120    1
    91    88    85    1
    92    88    89    1
    93   136   138   ar
    94    89    90    1
    95    92    93    1
    96   139   140   ar
    97    73    74    1
    98    73    75    1
    99   182   181    2
   100   138   140   ar
   101   120   121    1
   102    94    93    1
   103    94    95    2
   104    93    96    1
   105   181   180    1
   106   113   111   ar
   107   113   112   ar
   108   111   109   ar
   109    96    97    1
   110   186   184    1
   111   177   176    1
   112     8     7    1
   113    97    98    1
   114   180   183    1
   115   180   179    1
   116   101   100    1
   117   112   110   ar
   118     7     6    1
   119   109   108   ar
   120   100   102    1
   121   100    99    2
   122   183   184    1
   123   184   185    1
   124    99    98    1
   125   176   178    1
   126   176   175    1
   127    36    33    1
   128    15    14    1
   129    45    43   ar
   130   110   108   ar
   131   108   107    1
   132    44    43   ar
   133    40    39    2
   134     6     5    1
   135    43    42    1
   136   175   172    1
   137   103   104    1
   138    39    38    1
   139    35    34    2
   140    41    42    1
   141    41    38    1
   142   104   107    1
   143   104   105    1
   144    33    34    1
   145    33    32    1
   146    13    14    1
   147    13    10    1
   148    14    16    1
   149     5     2    1
   150    22    21    1
   151    38    37    1
   152    12    11    2
   153   105   106    2
   154     2     1    1
   155     2     3    1
   156    32    26   am
   157   172   171    1
   158   172   173    1
   159    11    10    1
   160    11    17   am
   161    18    17    1
   162    18    21    1
   163    18    19    1
   164    10     9    1
   165    23    21    1
   166     4     3    2
   167    31    29    1
   168    20    19    2
   169   173   174    2
   170    26    27    2
   171    26    25    1
   172    29    28    1
   173    29    30    1
   174    28    25    1
   175    25    24    1
