@<TRIPOS>MOLECULE
tmp/5dyfA00.pdb
 150 144 0 0 0
SMALL
GASTEIGER

@<TRIPOS>ATOM
      1  N         21.0510  -41.7620  -10.5510 N.3   112  GLN112     -0.1245
      2  CA        20.1090  -42.2130  -11.5600 C.3   112  GLN112      0.1566
      3  C         20.8260  -43.2500  -12.4190 C.2   112  GLN112      0.2260
      4  O         21.8080  -42.9350  -13.0860 O.2   112  GLN112     -0.2867
      5  CB        19.5970  -41.0550  -12.4120 C.3   112  GLN112      0.0367
      6  CG        18.7300  -41.5030  -13.5820 C.3   112  GLN112      0.0905
      7  CD        17.5500  -42.3540  -13.1390 C.2   112  GLN112      0.2608
      8  OE1       16.9910  -42.1470  -12.0640 O.2   112  GLN112     -0.2717
      9  NE2       17.1670  -43.3140  -13.9680 N.am  112  GLN112     -0.0878
     10  N         19.0220  -45.9300  -14.4310 N.3   114  GLU114     -0.1231
     11  CA        18.3450  -46.4300  -15.6280 C.3   114  GLU114      0.1684
     12  C         18.5440  -45.4830  -16.8100 C.2   114  GLU114      0.2434
     13  O         18.3410  -44.2790  -16.6810 O.2   114  GLU114     -0.2733
     14  CB        16.8430  -46.6320  -15.4100 C.3   114  GLU114      0.0402
     15  CG        16.1790  -47.2980  -16.6110 C.3   114  GLU114      0.1161
     16  CD        14.6760  -47.4130  -16.5040 C.2   114  GLU114      0.3649
     17  OE1       14.1080  -46.9620  -15.4830 O.co2 114  GLU114     -0.2457
     18  OE2       14.0620  -47.9640  -17.4520 O.co2 114  GLU114     -0.2457
     19  N         18.9140  -46.0260  -17.9820 N.am  115  PRO115     -0.2729
     20  CA        19.1830  -47.4410  -18.2790 C.3   115  PRO115      0.1401
     21  C         20.6090  -47.8950  -17.9680 C.2   115  PRO115      0.2269
     22  O         20.7840  -48.9980  -17.4490 O.2   115  PRO115     -0.2865
     23  CB        18.9100  -47.5360  -19.7830 C.3   115  PRO115      0.0296
     24  CG        19.2200  -46.1690  -20.3010 C.3   115  PRO115      0.0237
     25  CD        18.8370  -45.2110  -19.2100 C.3   115  PRO115      0.0939
     26  N         16.6390  -33.4120  -12.1370 N.3   247  PHE247     -0.1227
     27  CA        16.2630  -34.7620  -12.5320 C.3   247  PHE247      0.1736
     28  C         15.8230  -34.7370  -13.9860 C.2   247  PHE247      0.2595
     29  O         15.1510  -33.8070  -14.4090 O.2   247  PHE247     -0.2718
     30  CB        15.1530  -35.2920  -11.6300 C.3   247  PHE247      0.0547
     31  CG        15.0480  -36.7920  -11.6050 C.ar  247  PHE247     -0.0202
     32  CD1       15.9390  -37.5480  -10.8560 C.ar  247  PHE247     -0.0042
     33  CD2       14.0520  -37.4420  -12.3140 C.ar  247  PHE247     -0.0042
     34  CE1       15.8450  -38.9320  -10.8270 C.ar  247  PHE247     -0.0003
     35  CE2       13.9520  -38.8240  -12.2870 C.ar  247  PHE247     -0.0003
     36  CZ        14.8470  -39.5660  -11.5400 C.ar  247  PHE247     -0.0000
     37  N         16.2260  -35.7440  -14.7530 N.am  248  ASN248     -0.1974
     38  CA        15.9960  -35.7300  -16.1990 C.3   248  ASN248      0.1688
     39  C         14.5720  -36.0660  -16.6050 C.2   248  ASN248      0.2292
     40  O         13.9650  -35.3630  -17.4100 O.2   248  ASN248     -0.2864
     41  CB        16.9500  -36.6970  -16.8830 C.3   248  ASN248      0.1181
     42  CG        18.3440  -36.1390  -16.9950 C.2   248  ASN248      0.2629
     43  OD1       18.5240  -34.9320  -17.1700 O.2   248  ASN248     -0.2716
     44  ND2       19.3450  -37.0110  -16.8910 N.am  248  ASN248     -0.0877
     45  N         10.7420  -38.1000  -15.0630 N.3   249  GLY249     -0.1210
     46  CA         9.7520  -37.8180  -14.0520 C.3   249  GLY249      0.1956
     47  C         10.0920  -38.4400  -12.7240 C.2   249  GLY249      0.2611
     48  O         10.0900  -37.7590  -11.7010 O.2   249  GLY249     -0.2717
     49  N         10.3580  -39.7440  -12.7310 N.am  250  ALA250     -0.1979
     50  CA        10.6650  -40.4480  -11.4990 C.3   250  ALA250      0.1597
     51  C         11.3410  -41.7750  -11.7990 C.2   250  ALA250      0.2287
     52  O         11.5000  -42.1570  -12.9600 O.2   250  ALA250     -0.2864
     53  CB         9.4090  -40.6610  -10.6870 C.3   250  ALA250      0.0319
     54  N         11.8640  -45.9500  -10.2730 N.3   251  GLU251     -0.1245
     55  CA        11.3110  -46.9970   -9.4170 C.3   251  GLU251      0.1567
     56  C         12.3330  -47.8400   -8.6490 C.2   251  GLU251      0.2260
     57  O         12.0620  -49.0050   -8.3750 O.2   251  GLU251     -0.2867
     58  CB        10.4560  -47.9440  -10.2700 C.3   251  GLU251      0.0388
     59  CG        11.2480  -48.8080  -11.2570 C.3   251  GLU251      0.1160
     60  CD        11.3280  -48.2180  -12.6490 C.2   251  GLU251      0.3649
     61  OE1       11.1970  -46.9780  -12.7910 O.co2 251  GLU251     -0.2457
     62  OE2       11.5270  -49.0010  -13.6090 O.co2 251  GLU251     -0.2457
     63  N          2.3800  -44.9220  -10.4170 N.3   284  HIS284     -0.1226
     64  CA         3.2710  -45.5120  -11.4160 C.3   284  HIS284      0.1752
     65  C          4.5230  -46.1340  -10.8000 C.2   284  HIS284      0.2595
     66  O          4.7990  -47.3160  -11.0160 O.2   284  HIS284     -0.2718
     67  CB         3.6740  -44.4500  -12.4450 C.3   284  HIS284      0.0759
     68  CG         4.4780  -44.9820  -13.5920 C.ar  284  HIS284      0.0818
     69  ND1        3.9140  -45.2940  -14.8080 N.ar  284  HIS284     -0.2268
     70  CD2        5.8060  -45.2270  -13.7230 C.ar  284  HIS284      0.1154
     71  CE1        4.8520  -45.7210  -15.6360 C.ar  284  HIS284      0.1986
     72  NE2        6.0110  -45.6850  -15.0020 N.ar  284  HIS284     -0.2212
     73  N          5.2750  -45.3620  -10.0180 N.am  285  GLU285     -0.1979
     74  CA         6.5490  -45.8650   -9.5100 C.3   285  GLU285      0.1602
     75  C          6.3090  -47.0310   -8.5540 C.2   285  GLU285      0.2287
     76  O          7.0600  -48.0030   -8.5640 O.2   285  GLU285     -0.2864
     77  CB         7.3620  -44.7660   -8.8080 C.3   285  GLU285      0.0415
     78  CG         7.6670  -43.5510   -9.6540 C.3   285  GLU285      0.1163
     79  CD         8.1440  -43.8910  -11.0520 C.2   285  GLU285      0.3649
     80  OE1        8.9010  -44.8720  -11.2270 O.co2 285  GLU285     -0.2457
     81  OE2        7.7540  -43.1670  -11.9880 O.co2 285  GLU285     -0.2457
     82  N          5.5500  -50.2710  -10.3900 N.3   288  HIS288     -0.1241
     83  CA         6.7720  -50.8780  -10.9250 C.3   288  HIS288      0.1621
     84  C          7.3490  -51.9440   -9.9900 C.2   288  HIS288      0.2264
     85  O          8.1260  -52.7880  -10.4280 O.2   288  HIS288     -0.2867
     86  CB         7.8440  -49.8140  -11.1820 C.3   288  HIS288      0.0745
     87  CG         7.8470  -49.2520  -12.5740 C.ar  288  HIS288      0.0817
     88  ND1        7.7750  -50.0410  -13.6970 N.ar  288  HIS288     -0.2268
     89  CD2        7.9610  -47.9750  -13.0200 C.ar  288  HIS288      0.1154
     90  CE1        7.8160  -49.2760  -14.7760 C.ar  288  HIS288      0.1986
     91  NE2        7.9370  -48.0230  -14.3900 N.ar  288  HIS288     -0.2212
     92  N          7.7280  -53.3750  -19.2280 N.3   306  LYS306     -0.1231
     93  CA         7.4660  -52.7760  -17.9200 C.3   306  LYS306      0.1693
     94  C          6.7810  -51.4110  -18.0230 C.2   306  LYS306      0.2591
     95  O          5.9250  -51.0930  -17.1960 O.2   306  LYS306     -0.2718
     96  CB         8.7590  -52.6770  -17.0880 C.3   306  LYS306      0.0285
     97  CG         9.7820  -51.6100  -17.4730 C.3   306  LYS306      0.0035
     98  CD        10.9990  -51.7190  -16.5450 C.3   306  LYS306      0.0206
     99  CE        12.1010  -50.6920  -16.8400 C.3   306  LYS306      0.1093
    100  NZ        11.7560  -49.2890  -16.4810 N.3   306  LYS306     -0.1314
    101  N          7.1010  -50.6100  -19.0370 N.am  307  GLU307     -0.1979
    102  CA         6.5190  -49.2760  -19.1020 C.3   307  GLU307      0.1602
    103  C          5.0930  -49.2620  -19.6490 C.2   307  GLU307      0.2287
    104  O          4.2340  -48.5750  -19.0980 O.2   307  GLU307     -0.2864
    105  CB         7.3980  -48.3350  -19.9290 C.3   307  GLU307      0.0415
    106  CG         8.7740  -48.0660  -19.3160 C.3   307  GLU307      0.1163
    107  CD         8.7130  -47.5910  -17.8640 C.2   307  GLU307      0.3649
    108  OE1        7.6510  -47.0950  -17.4290 O.co2 307  GLU307     -0.2457
    109  OE2        9.7390  -47.7170  -17.1620 O.co2 307  GLU307     -0.2457
    110  N         18.6500  -44.2240  -24.4270 N.3   359  ASN359     -0.1240
    111  CA        17.9650  -43.1040  -23.8020 C.3   359  ASN359      0.1653
    112  C         17.0450  -42.3730  -24.7710 C.2   359  ASN359      0.2266
    113  O         16.1830  -41.5980  -24.3510 O.2   359  ASN359     -0.2867
    114  CB        18.9810  -42.1370  -23.2060 C.3   359  ASN359      0.1155
    115  CG        19.4100  -42.5470  -21.8200 C.2   359  ASN359      0.2627
    116  OD1       18.5740  -42.7520  -20.9400 O.2   359  ASN359     -0.2716
    117  ND2       20.7080  -42.6890  -21.6190 N.am  359  ASN359     -0.0877
    118  N         12.8350  -43.7760  -24.5480 N.3   362  TYR362     -0.1241
    119  CA        11.8620  -43.5650  -23.4790 C.3   362  TYR362      0.1605
    120  C         10.7920  -42.6330  -24.0220 C.2   362  TYR362      0.2264
    121  O         10.6610  -41.4880  -23.6090 O.2   362  TYR362     -0.2867
    122  CB        12.5430  -43.0180  -22.2210 C.3   362  TYR362      0.0534
    123  CG        13.2960  -44.1280  -21.5180 C.ar  362  TYR362     -0.0201
    124  CD1       14.4700  -44.6310  -22.0510 C.ar  362  TYR362     -0.0009
    125  CD2       12.8020  -44.7100  -20.3630 C.ar  362  TYR362     -0.0009
    126  CE1       15.1460  -45.6670  -21.4450 C.ar  362  TYR362      0.0417
    127  CE2       13.4750  -45.7570  -19.7440 C.ar  362  TYR362      0.0417
    128  CZ        14.6450  -46.2270  -20.2960 C.ar  362  TYR362      0.1957
    129  OH        15.3230  -47.2640  -19.7020 O.3   362  TYR362     -0.2866
    130  N          5.7630  -45.8990  -24.1300 N.3   366  TYR366     -0.1241
    131  CA         4.9300  -45.6620  -22.9470 C.3   366  TYR366      0.1605
    132  C          3.4350  -45.6500  -23.2380 C.2   366  TYR366      0.2264
    133  O          2.6830  -46.4910  -22.7440 O.2   366  TYR366     -0.2867
    134  CB         5.3020  -44.3240  -22.3050 C.3   366  TYR366      0.0534
    135  CG         6.4980  -44.3940  -21.3930 C.ar  366  TYR366     -0.0201
    136  CD1        7.7570  -44.6870  -21.8940 C.ar  366  TYR366     -0.0009
    137  CD2        6.3680  -44.1730  -20.0310 C.ar  366  TYR366     -0.0009
    138  CE1        8.8570  -44.7630  -21.0610 C.ar  366  TYR366      0.0417
    139  CE2        7.4570  -44.2480  -19.1890 C.ar  366  TYR366      0.0417
    140  CZ         8.7020  -44.5460  -19.7120 C.ar  366  TYR366      0.1957
    141  OH         9.7990  -44.6200  -18.8840 O.3   366  TYR366     -0.2866
    142  N         20.6560  -35.9290  -22.9770 N.3   798  GLN798     -0.1245
    143  CA        19.2690  -36.4010  -22.9270 C.3   798  GLN798      0.1566
    144  C         18.2790  -35.2770  -23.1530 C.2   798  GLN798      0.2260
    145  O         17.3140  -35.4210  -23.9100 O.2   798  GLN798     -0.2867
    146  CB        18.9630  -37.0580  -21.5930 C.3   798  GLN798      0.0367
    147  CG        19.6350  -38.3950  -21.4110 C.3   798  GLN798      0.0905
    148  CD        19.2580  -39.0390  -20.0970 C.2   798  GLN798      0.2608
    149  OE1       20.1170  -39.5120  -19.3620 O.2   798  GLN798     -0.2717
    150  NE2       17.9700  -39.0530  -19.7920 N.am  798  GLN798     -0.0878
@<TRIPOS>BOND
     1   112   113    2
     2   112   111    1
     3   118   119    1
     4   110   111    1
     5   130   131    1
     6   120   121    2
     7   120   119    1
     8   145   144    2
     9   111   114    1
    10   119   122    1
    11   132   131    1
    12   132   133    2
    13   114   115    1
    14   144   143    1
    15   142   143    1
    16   131   134    1
    17   143   146    1
    18   134   135    1
    19   122   123    1
    20   124   123   ar
    21   124   126   ar
    22   136   135   ar
    23   136   138   ar
    24   115   117   am
    25   115   116    2
    26   146   147    1
    27   123   125   ar
    28   126   128   ar
    29   147   148    1
    30   135   137   ar
    31   138   140   ar
    32   125   127   ar
    33    24    23    1
    34    24    25    1
    35   128   127   ar
    36   128   129    1
    37   148   150   am
    38   148   149    2
    39   137   139   ar
    40   105   106    1
    41   105   102    1
    42    23    20    1
    43   140   139   ar
    44   140   141    1
    45   103   102    1
    46   103   104    2
    47   106   107    1
    48    92    93    1
    49    25    19    1
    50   102   101    1
    51   101    94   am
    52    20    19    1
    53    20    21    1
    54    94    93    1
    55    94    95    2
    56    19    12   am
    57    21    22    2
    58    93    96    1
    59   107   108   ar
    60   107   109   ar
    61    97    96    1
    62    97    98    1
    63    18    16   ar
    64    40    39    2
    65    43    42    2
    66    42    44   am
    67    42    41    1
    68    41    38    1
    69    99    98    1
    70    99   100    1
    71    12    13    2
    72    12    11    1
    73    15    16    1
    74    15    14    1
    75    39    38    1
    76    16    17   ar
    77    38    37    1
    78    71    72   ar
    79    71    69   ar
    80    11    14    1
    81    11    10    1
    82    45    46    1
    83    72    70   ar
    84    69    68   ar
    85    90    91   ar
    86    90    88   ar
    87    37    28   am
    88    29    28    2
    89    91    89   ar
    90    46    47    1
    91    28    27    1
    92     9     7   am
    93    70    68   ar
    94    88    87   ar
    95    62    60   ar
    96    68    67    1
    97     6     7    1
    98     6     5    1
    99     7     8    2
   100     4     3    2
   101    89    87   ar
   102    52    51    2
   103    61    60   ar
   104    49    47   am
   105    49    50    1
   106    47    48    2
   107    60    59    1
   108    87    86    1
   109    27    26    1
   110    27    30    1
   111    67    64    1
   112     3     2    1
   113     5     2    1
   114    33    35   ar
   115    33    31   ar
   116    35    36   ar
   117    81    79   ar
   118    51    50    1
   119    30    31    1
   120    31    32   ar
   121     2     1    1
   122    36    34   ar
   123    50    53    1
   124    64    65    1
   125    64    63    1
   126    59    58    1
   127    80    79   ar
   128    86    83    1
   129    79    78    1
   130    66    65    2
   131    83    82    1
   132    83    84    1
   133    32    34   ar
   134    65    73   am
   135    85    84    2
   136    54    55    1
   137    58    55    1
   138    73    74    1
   139    78    77    1
   140    74    77    1
   141    74    75    1
   142    55    56    1
   143    56    57    2
   144    76    75    2
