@<TRIPOS>MOLECULE
tmp/5dyoB00.pdb
 106 103 0 0 0
SMALL
GASTEIGER

@<TRIPOS>ATOM
      1  N         17.9160   26.4440   34.5320 N.3    33  ASP33      -0.1239
      2  CA        18.5380   27.2560   35.5850 C.3    33  ASP33       0.1674
      3  C         17.8820   28.6210   35.7340 C.2    33  ASP33       0.2266
      4  O         18.3700   29.4620   36.4780 O.2    33  ASP33      -0.2867
      5  CB        20.0550   27.3930   35.3400 C.3    33  ASP33       0.1410
      6  CG        20.4520   28.0990   34.0530 C.2    33  ASP33       0.3668
      7  OD1       19.5510   28.6200   33.3500 O.co2  33  ASP33      -0.2456
      8  OD2       21.6470   28.0800   33.7200 O.co2  33  ASP33      -0.2456
      9  N         19.0480   31.9840   27.1880 N.3    37  TYR37      -0.1241
     10  CA        20.2200   32.0910   26.3250 C.3    37  TYR37       0.1605
     11  C         19.8750   32.4100   24.8770 C.2    37  TYR37       0.2264
     12  O         19.6340   31.5310   24.0400 O.2    37  TYR37      -0.2867
     13  CB        21.0820   30.8440   26.4650 C.3    37  TYR37       0.0534
     14  CG        21.4320   30.5820   27.9090 C.ar   37  TYR37      -0.0201
     15  CD1       22.1780   31.4960   28.6380 C.ar   37  TYR37      -0.0009
     16  CD2       20.9900   29.4320   28.5600 C.ar   37  TYR37      -0.0009
     17  CE1       22.5270   31.2520   29.9590 C.ar   37  TYR37       0.0417
     18  CE2       21.3090   29.1910   29.8930 C.ar   37  TYR37       0.0417
     19  CZ        22.0710   30.1100   30.5900 C.ar   37  TYR37       0.1957
     20  OH        22.3960   29.9130   31.9020 O.3    37  TYR37      -0.2866
     21  N         21.3290   35.2990   22.0140 N.3    39  ASN39      -0.1240
     22  CA        22.2950   36.3230   21.6000 C.3    39  ASN39       0.1653
     23  C         21.8950   36.9290   20.2430 C.2    39  ASN39       0.2266
     24  O         21.2200   36.2820   19.4550 O.2    39  ASN39      -0.2867
     25  CB        23.7040   35.7210   21.5100 C.3    39  ASN39       0.1155
     26  CG        24.3960   35.4080   22.8180 C.2    39  ASN39       0.2627
     27  OD1       23.9710   35.8010   23.9080 O.2    39  ASN39      -0.2716
     28  ND2       25.4630   34.6380   22.7420 N.am   39  ASN39      -0.0877
     29  N         29.1230   40.0980   18.1790 N.3    51  ARG51      -0.1245
     30  CA        27.9740   40.0530   19.0630 C.3    51  ARG51       0.1563
     31  C         27.6640   41.4450   19.5700 C.2    51  ARG51       0.2260
     32  O         28.5620   42.1510   20.0630 O.2    51  ARG51      -0.2867
     33  CB        28.1900   39.0540   20.2140 C.3    51  ARG51       0.0307
     34  CG        26.9200   38.7320   21.0120 C.3    51  ARG51       0.0489
     35  CD        27.2350   37.8020   22.1620 C.3    51  ARG51       0.2205
     36  NE        27.9890   38.4750   23.2130 N.pl3  51  ARG51      -0.0865
     37  CZ        28.5370   37.8590   24.2510 C.cat  51  ARG51       0.5346
     38  NH1       28.4410   36.5450   24.3780 N.pl3  51  ARG51       0.1354
     39  NH2       29.1680   38.5570   25.1830 N.pl3  51  ARG51       0.1354
     40  N         23.7600   39.9680   24.3420 N.3    54  TYR54      -0.1227
     41  CA        23.8290   38.6500   24.9680 C.3    54  TYR54       0.1736
     42  C         22.8000   38.5230   26.0810 C.2    54  TYR54       0.2595
     43  O         22.4020   39.5310   26.6800 O.2    54  TYR54      -0.2718
     44  CB        25.2400   38.3440   25.4830 C.3    54  TYR54       0.0548
     45  CG        25.7400   39.2900   26.5530 C.ar   54  TYR54      -0.0200
     46  CD1       26.2750   40.5320   26.2170 C.ar   54  TYR54      -0.0009
     47  CD2       25.7830   38.9000   27.8870 C.ar   54  TYR54      -0.0009
     48  CE1       26.8060   41.3770   27.1920 C.ar   54  TYR54       0.0417
     49  CE2       26.3030   39.7360   28.8700 C.ar   54  TYR54       0.0417
     50  CZ        26.8050   40.9780   28.5200 C.ar   54  TYR54       0.1957
     51  OH        27.2820   41.8130   29.4930 O.3    54  TYR54      -0.2866
     52  N         22.3550   37.2780   26.3440 N.am   55  LEU55      -0.1980
     53  CA        21.3730   36.9370   27.3700 C.3    55  LEU55       0.1596
     54  C         20.1600   37.8820   27.2990 C.2    55  LEU55       0.2287
     55  O         19.8880   38.6470   28.2250 O.2    55  LEU55      -0.2864
     56  CB        22.0100   36.9210   28.7750 C.3    55  LEU55       0.0297
     57  CG        23.2480   36.0480   28.9730 C.3    55  LEU55       0.0022
     58  CD1       24.0780   36.5310   30.1780 C.3    55  LEU55       0.0001
     59  CD2       22.8750   34.6300   29.1580 C.3    55  LEU55       0.0001
     60  N         21.1220   33.9340   17.9780 N.3    94  TRP94      -0.1227
     61  CA        21.8950   32.7580   18.3780 C.3    94  TRP94       0.1737
     62  C         21.3340   32.1780   19.6930 C.2    94  TRP94       0.2595
     63  O         21.3670   32.8490   20.7240 O.2    94  TRP94      -0.2718
     64  CB        23.3280   33.2640   18.5690 C.3    94  TRP94       0.0564
     65  CG        24.3580   32.3320   19.1230 C.ar   94  TRP94       0.0003
     66  CD1       24.2890   30.9710   19.2290 C.ar   94  TRP94       0.0946
     67  CD2       25.6940   32.6940   19.4710 C.ar   94  TRP94       0.0152
     68  NE1       25.4780   30.4750   19.7150 N.ar   94  TRP94      -0.2442
     69  CE2       26.3590   31.5110   19.8730 C.ar   94  TRP94       0.0810
     70  CE3       26.3900   33.9150   19.5100 C.ar   94  TRP94       0.0012
     71  CZ2       27.6890   31.5090   20.3030 C.ar   94  TRP94       0.0191
     72  CZ3       27.7100   33.9150   19.9290 C.ar   94  TRP94       0.0001
     73  CH2       28.3490   32.7210   20.3210 C.ar   94  TRP94       0.0015
     74  N         20.8280   30.9340   19.6730 N.am   95  GLN95      -0.1965
     75  CA        20.3430   30.3240   20.9170 C.3    95  GLN95       0.1733
     76  C         21.3510   29.3200   21.4840 C.2    95  GLN95       0.2616
     77  O         21.9880   28.5850   20.7200 O.2    95  GLN95      -0.2715
     78  CB        18.9330   29.7160   20.7750 C.3    95  GLN95       0.0408
     79  CG        18.8300   28.3890   20.0150 C.3    95  GLN95       0.0908
     80  CD        19.1510   27.1660   20.8500 C.2    95  GLN95       0.2608
     81  OE1       19.2500   27.2120   22.0810 O.2    95  GLN95      -0.2717
     82  NE2       19.3090   26.0340   20.1940 N.am   95  GLN95      -0.0878
     83  N         21.4280   29.2790   22.8230 N.am   96  GLY96      -0.1955
     84  CA        22.2810   28.3650   23.5640 C.3    96  GLY96       0.1869
     85  C         21.5790   27.6220   24.6730 C.2    96  GLY96       0.2309
     86  O         22.2500   27.0900   25.5620 O.2    96  GLY96      -0.2863
     87  N         20.7870   21.8940   22.6790 N.3    99  PHE99      -0.1241
     88  CA        21.8340   21.3960   21.8170 C.3    99  PHE99       0.1605
     89  C         21.2490   20.6900   20.5850 C.2    99  PHE99       0.2264
     90  O         20.2270   20.0080   20.6710 O.2    99  PHE99      -0.2867
     91  CB        22.8670   20.5680   22.5840 C.3    99  PHE99       0.0534
     92  CG        23.7250   21.4850   23.4220 C.ar   99  PHE99      -0.0203
     93  CD1       23.3820   21.7780   24.7360 C.ar   99  PHE99      -0.0042
     94  CD2       24.8130   22.1490   22.8660 C.ar   99  PHE99      -0.0042
     95  CE1       24.1450   22.6740   25.4930 C.ar   99  PHE99      -0.0003
     96  CE2       25.5560   23.0660   23.6190 C.ar   99  PHE99      -0.0003
     97  CZ        25.2210   23.3170   24.9280 C.ar   99  PHE99      -0.0000
     98  N         23.4870   24.2030   19.3860 N.3   101  GLN101     -0.1245
     99  CA        23.1390   25.6150   19.3620 C.3   101  GLN101      0.1566
    100  C         22.7890   25.9690   17.8950 C.2   101  GLN101      0.2260
    101  O         23.3180   25.3690   16.9490 O.2   101  GLN101     -0.2867
    102  CB        24.2820   26.4590   19.9060 C.3   101  GLN101      0.0367
    103  CG        24.5360   26.1850   21.3920 C.3   101  GLN101      0.0905
    104  CD        25.4910   27.1610   21.9870 C.2   101  GLN101      0.2608
    105  OE1       26.0480   28.0080   21.2920 O.2   101  GLN101     -0.2717
    106  NE2       25.7080   27.0600   23.2910 N.am  101  GLN101     -0.0878
@<TRIPOS>BOND
     1   101   100    2
     2   100    99    1
     3    60    61    1
     4    29    30    1
     5    61    64    1
     6    61    62    1
     7    64    65    1
     8    30    31    1
     9    30    33    1
    10    65    66   ar
    11    65    67   ar
    12    66    68   ar
    13    99    98    1
    14    99   102    1
    15    24    23    2
    16    67    70   ar
    17    67    69   ar
    18    70    72   ar
    19    31    32    2
    20    74    62   am
    21    74    75    1
    22    62    63    2
    23    68    69   ar
    24    69    71   ar
    25   102   103    1
    26    72    73   ar
    27    79    78    1
    28    79    80    1
    29    82    80   am
    30    33    34    1
    31    23    22    1
    32    71    73   ar
    33    89    90    2
    34    89    88    1
    35    77    76    2
    36    78    75    1
    37    80    81    2
    38    75    76    1
    39    34    35    1
    40   105   104    2
    41   103   104    1
    42    76    83   am
    43    25    22    1
    44    25    26    1
    45    22    21    1
    46    88    91    1
    47    88    87    1
    48   104   106   am
    49    35    36    1
    50    91    92    1
    51    28    26   am
    52    26    27    2
    53    83    84    1
    54    94    92   ar
    55    94    96   ar
    56    36    37    2
    57    92    93   ar
    58    84    85    1
    59    96    97   ar
    60    12    11    2
    61    37    38    1
    62    37    39    1
    63    40    41    1
    64    85    86    2
    65    93    95   ar
    66    11    10    1
    67    97    95   ar
    68    41    44    1
    69    41    42    1
    70    44    45    1
    71    42    52   am
    72    42    43    2
    73    46    45   ar
    74    46    48   ar
    75    10    13    1
    76    10     9    1
    77    52    53    1
    78    13    14    1
    79    45    47   ar
    80    48    50   ar
    81    54    53    1
    82    54    55    2
    83    53    56    1
    84    47    49   ar
    85    14    16   ar
    86    14    15   ar
    87    50    49   ar
    88    50    51    1
    89    16    18   ar
    90    15    17   ar
    91    56    57    1
    92    57    59    1
    93    57    58    1
    94    18    19   ar
    95    17    19   ar
    96    19    20    1
    97     7     6   ar
    98     8     6   ar
    99     6     5    1
   100     1     2    1
   101     5     2    1
   102     2     3    1
   103     3     4    2
