@<TRIPOS>MOLECULE
tmp/5dytB00.pdb
 106 102 0 0 0
SMALL
GASTEIGER

@<TRIPOS>ATOM
      1  N         -9.3330   31.2060  -32.2110 N.3    73  HIS73      -0.1241
      2  CA       -10.6450   31.8570  -32.1960 C.3    73  HIS73       0.1621
      3  C        -11.3500   31.7720  -33.5490 C.2    73  HIS73       0.2264
      4  O        -12.5840   31.6530  -33.6010 O.2    73  HIS73      -0.2867
      5  CB       -10.4980   33.3220  -31.7750 C.3    73  HIS73       0.0745
      6  CG       -11.7910   34.0830  -31.7250 C.ar   73  HIS73       0.0817
      7  ND1      -12.8620   33.6900  -30.9520 N.ar   73  HIS73      -0.2268
      8  CD2      -12.1750   35.2260  -32.3370 C.ar   73  HIS73       0.1154
      9  CE1      -13.8530   34.5490  -31.1000 C.ar   73  HIS73       0.1986
     10  NE2      -13.4600   35.4960  -31.9290 N.ar   73  HIS73      -0.2212
     11  N        -14.9000   30.0670  -32.7910 N.3    77  MET77      -0.1245
     12  CA       -16.0500   30.9610  -32.6900 C.3    77  MET77       0.1570
     13  C        -17.2560   30.4200  -33.4250 C.2    77  MET77       0.2261
     14  O        -18.3430   30.9850  -33.2820 O.2    77  MET77      -0.2867
     15  CB       -15.7200   32.3520  -33.2380 C.3    77  MET77       0.0387
     16  CG       -15.5660   32.3640  -34.7430 C.3    77  MET77       0.0595
     17  SD       -15.1190   33.9530  -35.4560 S.3    77  MET77      -0.1393
     18  CE       -16.7280   34.6780  -35.6430 C.3    77  MET77       0.0692
     19  N        -22.3760   34.0430  -30.6950 N.3   122  HIS122     -0.1226
     20  CA       -22.2500   35.4760  -30.4310 C.3   122  HIS122      0.1752
     21  C        -22.5180   36.3210  -31.6820 C.2   122  HIS122      0.2595
     22  O        -23.1000   37.4100  -31.5880 O.2   122  HIS122     -0.2718
     23  CB       -20.8600   35.7650  -29.8600 C.3   122  HIS122      0.0759
     24  CG       -20.6100   37.2160  -29.5650 C.ar  122  HIS122      0.0818
     25  ND1      -21.5710   38.0450  -29.0200 N.ar  122  HIS122     -0.2268
     26  CD2      -19.4970   37.9750  -29.7090 C.ar  122  HIS122      0.1154
     27  CE1      -21.0670   39.2550  -28.8640 C.ar  122  HIS122      0.1986
     28  NE2      -19.8080   39.2380  -29.2660 N.ar  122  HIS122     -0.2212
     29  N        -22.1280   35.8400  -32.8660 N.am  123  VAL123     -0.1980
     30  CA       -22.2290   36.6790  -34.0560 C.3   123  VAL123      0.1595
     31  C        -23.6620   36.7250  -34.5660 C.2   123  VAL123      0.2287
     32  O        -23.9590   37.4370  -35.5290 O.2   123  VAL123     -0.2864
     33  CB       -21.2520   36.2200  -35.1560 C.3   123  VAL123      0.0276
     34  CG1      -19.8310   36.5410  -34.7340 C.3   123  VAL123      0.0022
     35  CG2      -21.3800   34.7060  -35.4170 C.3   123  VAL123      0.0022
     36  N        -12.6750   42.6520  -41.7730 N.3   421  SER421     -0.1217
     37  CA       -12.7570   43.0370  -40.3670 C.3   421  SER421      0.1889
     38  C        -11.3830   43.3060  -39.7740 C.2   421  SER421      0.2288
     39  O        -10.4500   42.5180  -39.9390 O.2   421  SER421     -0.2866
     40  CB       -13.4490   41.9400  -39.5710 C.3   421  SER421      0.2089
     41  OG       -13.5180   42.2900  -38.2070 O.3   421  SER421     -0.2183
     42  N        -10.5920   43.0220  -36.7870 N.3   423  LYS423     -0.1231
     43  CA       -10.3850   42.0540  -35.7110 C.3   423  LYS423      0.1693
     44  C        -10.1980   40.6250  -36.2130 C.2   423  LYS423      0.2592
     45  O        -10.0270   39.7140  -35.3920 O.2   423  LYS423     -0.2718
     46  CB       -11.5800   42.0670  -34.7450 C.3   423  LYS423      0.0285
     47  CG       -11.6630   43.2380  -33.7920 C.3   423  LYS423      0.0035
     48  CD       -13.1050   43.4960  -33.3840 C.3   423  LYS423      0.0206
     49  CE       -13.6320   42.4360  -32.4550 C.3   423  LYS423      0.1093
     50  NZ       -12.8300   42.3640  -31.2230 N.3   423  LYS423     -0.1314
     51  N        -10.2420   40.4080  -37.5280 N.am  424  LEU424     -0.1966
     52  CA       -10.2930   39.0760  -38.1160 C.3   424  LEU424      0.1713
     53  C         -9.1590   38.2070  -37.5760 C.2   424  LEU424      0.2458
     54  O         -7.9900   38.5920  -37.6970 O.2   424  LEU424     -0.2730
     55  CB       -10.2110   39.1820  -39.6370 C.3   424  LEU424      0.0310
     56  CG       -10.6120   37.9890  -40.5040 C.3   424  LEU424      0.0022
     57  CD1      -11.8430   37.3530  -39.9550 C.3   424  LEU424      0.0001
     58  CD2      -10.8770   38.4200  -41.9350 C.3   424  LEU424      0.0001
     59  N         -9.4590   37.0440  -36.9730 N.am  425  PRO425     -0.2727
     60  CA        -8.3850   36.1930  -36.4200 C.3   425  PRO425      0.1402
     61  C         -7.5410   35.4900  -37.4650 C.2   425  PRO425      0.2269
     62  O         -6.4570   35.0100  -37.1170 O.2   425  PRO425     -0.2865
     63  CB        -9.1410   35.1590  -35.5700 C.3   425  PRO425      0.0296
     64  CG       -10.5820   35.5410  -35.6250 C.3   425  PRO425      0.0237
     65  CD       -10.7890   36.4480  -36.7840 C.3   425  PRO425      0.0939
     66  N        -17.7300   36.3900  -42.6810 N.3   436  TYR436     -0.1241
     67  CA       -17.2480   37.5120  -41.8990 C.3   436  TYR436      0.1605
     68  C        -17.8830   38.8330  -42.3160 C.2   436  TYR436      0.2264
     69  O        -17.3280   39.9040  -42.0370 O.2   436  TYR436     -0.2867
     70  CB       -15.7210   37.5410  -41.9370 C.3   436  TYR436      0.0534
     71  CG       -15.1830   36.4390  -41.0580 C.ar  436  TYR436     -0.0201
     72  CD1      -14.8620   35.1930  -41.5840 C.ar  436  TYR436     -0.0009
     73  CD2      -15.0750   36.6170  -39.6880 C.ar  436  TYR436     -0.0009
     74  CE1      -14.4120   34.1690  -40.7750 C.ar  436  TYR436      0.0417
     75  CE2      -14.6250   35.6080  -38.8740 C.ar  436  TYR436      0.0417
     76  CZ       -14.2940   34.3860  -39.4150 C.ar  436  TYR436      0.1957
     77  OH       -13.8500   33.3830  -38.5860 O.3   436  TYR436     -0.2866
     78  N        -21.1200   39.5240  -38.6260 N.3   439  GLU439     -0.1245
     79  CA       -21.0180   40.4150  -37.4630 C.3   439  GLU439      0.1567
     80  C        -21.2850   41.8780  -37.8010 C.2   439  GLU439      0.2260
     81  O        -21.6180   42.6480  -36.8960 O.2   439  GLU439     -0.2867
     82  CB       -19.6490   40.3060  -36.7920 C.3   439  GLU439      0.0388
     83  CG       -18.4820   40.6110  -37.7110 C.3   439  GLU439      0.1160
     84  CD       -17.2200   39.8530  -37.3160 C.2   439  GLU439      0.3649
     85  OE1      -17.1500   38.6030  -37.4270 O.co2 439  GLU439     -0.2457
     86  OE2      -16.3010   40.5380  -36.8340 O.co2 439  GLU439     -0.2457
     87  N        -22.6190   44.0780  -34.3870 N.3   444  LEU444     -0.1245
     88  CA       -21.5780   43.9510  -33.3710 C.3   444  LEU444      0.1561
     89  C        -20.6090   45.1300  -33.3290 C.2   444  LEU444      0.2260
     90  O        -20.1910   45.4980  -32.2180 O.2   444  LEU444     -0.2867
     91  CB       -20.8150   42.6370  -33.5600 C.3   444  LEU444      0.0270
     92  CG       -21.3520   41.4100  -32.8180 C.3   444  LEU444      0.0019
     93  CD1      -22.7170   40.9500  -33.3080 C.3   444  LEU444      0.0001
     94  CD2      -20.3350   40.2880  -32.8920 C.3   444  LEU444      0.0001
     95  N        -13.4150   47.3660  -32.5760 N.3   452  TYR452     -0.1241
     96  CA       -13.6040   47.7060  -33.9740 C.3   452  TYR452      0.1605
     97  C        -13.1460   49.1420  -34.2240 C.2   452  TYR452      0.2264
     98  O        -12.8800   49.9120  -33.2980 O.2   452  TYR452     -0.2867
     99  CB       -15.0650   47.5230  -34.3800 C.3   452  TYR452      0.0534
    100  CG       -15.5250   46.0820  -34.4520 C.ar  452  TYR452     -0.0201
    101  CD1      -16.1410   45.4640  -33.3640 C.ar  452  TYR452     -0.0009
    102  CD2      -15.3560   45.3410  -35.6130 C.ar  452  TYR452     -0.0009
    103  CE1      -16.5860   44.1430  -33.4350 C.ar  452  TYR452      0.0417
    104  CE2      -15.7920   44.0180  -35.7000 C.ar  452  TYR452      0.0417
    105  CZ       -16.4030   43.4210  -34.6130 C.ar  452  TYR452      0.1957
    106  OH       -16.8390   42.1090  -34.6960 O.3   452  TYR452     -0.2866
@<TRIPOS>BOND
     1    66    67    1
     2    68    69    2
     3    68    67    1
     4    70    67    1
     5    70    71    1
     6    58    56    1
     7    36    37    1
     8    72    71   ar
     9    72    74   ar
    10    71    73   ar
    11    74    76   ar
    12    56    57    1
    13    56    55    1
    14    37    38    1
    15    37    40    1
    16    39    38    2
    17    73    75   ar
    18    55    52    1
    19    40    41    1
    20    76    75   ar
    21    76    77    1
    22    78    79    1
    23    52    53    1
    24    52    51    1
    25    80    79    1
    26    80    81    2
    27    83    84    1
    28    83    82    1
    29    54    53    2
    30    53    59   am
    31    51    44   am
    32    61    62    2
    33    61    60    1
    34    79    82    1
    35    85    84   ar
    36    84    86   ar
    37    59    65    1
    38    59    60    1
    39    42    43    1
    40    65    64    1
    41    60    63    1
    42    44    43    1
    43    44    45    2
    44    43    46    1
    45   104   102   ar
    46   104   105   ar
    47    18    17    1
    48    64    63    1
    49   102   100   ar
    50    32    31    2
    51    17    16    1
    52    35    33    1
    53    33    34    1
    54    33    30    1
    55    46    47    1
    56    16    15    1
    57   106   105    1
    58   105   103   ar
    59    31    30    1
    60   100    99    1
    61   100   101   ar
    62    87    88    1
    63    99    96    1
    64    97    96    1
    65    97    98    2
    66    30    29    1
    67    96    95    1
    68    47    48    1
    69     4     3    2
    70    91    88    1
    71    91    92    1
    72     3     2    1
    73   103   101   ar
    74    13    14    2
    75    13    12    1
    76    48    49    1
    77    88    89    1
    78    89    90    2
    79    93    92    1
    80    15    12    1
    81    94    92    1
    82    29    21   am
    83    11    12    1
    84    49    50    1
    85     8    10   ar
    86     8     6   ar
    87     1     2    1
    88     2     5    1
    89    10     9   ar
    90     5     6    1
    91     6     7   ar
    92    21    22    2
    93    21    20    1
    94     9     7   ar
    95    19    20    1
    96    20    23    1
    97    23    24    1
    98    26    24   ar
    99    26    28   ar
   100    24    25   ar
   101    28    27   ar
   102    25    27   ar
