@<TRIPOS>MOLECULE
tmp/5dyvA00.pdb
 170 158 0 0 0
SMALL
GASTEIGER

@<TRIPOS>ATOM
      1  N         10.2590   13.7660   13.7340 N.3    14  GLU14      -0.1245
      2  CA         9.5510   12.7850   12.9520 C.3    14  GLU14       0.1567
      3  C          8.1830   13.3310   12.6930 C.2    14  GLU14       0.2260
      4  O          7.4490   13.5460   13.6240 O.2    14  GLU14      -0.2867
      5  CB         9.4880   11.4390   13.6880 C.3    14  GLU14       0.0388
      6  CG         8.8410   10.3450   12.8300 C.3    14  GLU14       0.1160
      7  CD         9.1120    8.9080   13.2680 C.2    14  GLU14       0.3649
      8  OE1       10.2080    8.6370   13.8160 O.co2  14  GLU14      -0.2457
      9  OE2        8.2400    8.0290   13.0310 O.co2  14  GLU14      -0.2457
     10  N          4.3440   13.2180   11.4240 N.3    16  VAL16      -0.1245
     11  CA         3.2380   12.3640   11.0430 C.3    16  VAL16       0.1561
     12  C          2.5490   12.9770    9.8500 C.2    16  VAL16       0.2260
     13  O          1.6910   13.8480   10.0100 O.2    16  VAL16      -0.2867
     14  CB         2.2180   12.2210   12.1710 C.3    16  VAL16       0.0252
     15  CG1        1.0570   11.3450   11.7400 C.3    16  VAL16       0.0019
     16  CG2        2.8760   11.6140   13.3920 C.3    16  VAL16       0.0019
     17  N         -2.3190   10.2060    9.1820 N.3    19  VAL19      -0.1245
     18  CA        -2.7480    9.3330   10.2360 C.3    19  VAL19       0.1561
     19  C         -4.2520    9.1910   10.1150 C.2    19  VAL19       0.2260
     20  O         -4.9770   10.1950   10.0660 O.2    19  VAL19      -0.2867
     21  CB        -2.3470    9.8940   11.6150 C.3    19  VAL19       0.0252
     22  CG1       -3.0250   11.2160   11.9090 C.3    19  VAL19       0.0019
     23  CG2       -2.6300    8.9040   12.7220 C.3    19  VAL19       0.0019
     24  N         -7.1310    7.2390   12.2040 N.3    21  ASP21      -0.1239
     25  CA        -7.3720    6.5450   13.4710 C.3    21  ASP21       0.1674
     26  C         -8.8170    6.6420   13.9850 C.2    21  ASP21       0.2266
     27  O         -9.5800    7.4690   13.5400 O.2    21  ASP21      -0.2867
     28  CB        -6.3670    7.0490   14.5310 C.3    21  ASP21       0.1410
     29  CG        -6.7260    8.4330   15.1070 C.2    21  ASP21       0.3668
     30  OD1       -7.5250    8.4730   16.0950 O.co2  21  ASP21      -0.2456
     31  OD2       -6.1820    9.4710   14.6080 O.co2  21  ASP21      -0.2456
     32  N         -9.0860    6.5340   17.5240 N.3    23  VAL23      -0.1245
     33  CA        -8.6990    6.5930   18.9250 C.3    23  VAL23       0.1561
     34  C         -9.2750    7.8560   19.5240 C.2    23  VAL23       0.2260
     35  O         -9.2540    8.9300   18.9070 O.2    23  VAL23      -0.2867
     36  CB        -7.1630    6.6330   19.1140 C.3    23  VAL23       0.0252
     37  CG1       -6.7880    6.5960   20.5960 C.3    23  VAL23       0.0019
     38  CG2       -6.5110    5.4900   18.3730 C.3    23  VAL23       0.0019
     39  N         -8.0920    9.9070   22.1960 N.3    25  VAL25      -0.1245
     40  CA        -6.9020   10.0340   23.0600 C.3    25  VAL25       0.1561
     41  C         -7.2270   10.6170   24.4600 C.2    25  VAL25       0.2260
     42  O         -6.4920   10.3320   25.4130 O.2    25  VAL25      -0.2867
     43  CB        -5.6620   10.7370   22.4250 C.3    25  VAL25       0.0252
     44  CG1       -5.6140   10.5460   20.9100 C.3    25  VAL25       0.0019
     45  CG2       -5.5210   12.2130   22.8180 C.3    25  VAL25       0.0019
     46  N         -0.4620    5.1030   10.3260 N.3    36  PHE36      -0.1241
     47  CA         0.3830    6.2920   10.2340 C.3    36  PHE36       0.1605
     48  C          1.4350    6.1410    9.1510 C.2    36  PHE36       0.2264
     49  O          1.8930    5.0640    8.8500 O.2    36  PHE36      -0.2867
     50  CB         1.0160    6.6180   11.5910 C.3    36  PHE36       0.0534
     51  CG         1.9390    5.5450   12.1280 C.ar   36  PHE36      -0.0203
     52  CD1        1.4540    4.5560   12.9690 C.ar   36  PHE36      -0.0042
     53  CD2        3.2860    5.5350   11.8090 C.ar   36  PHE36      -0.0042
     54  CE1        2.2980    3.5680   13.4520 C.ar   36  PHE36      -0.0003
     55  CE2        4.1140    4.5540   12.2770 C.ar   36  PHE36      -0.0003
     56  CZ         3.6240    3.5590   13.0790 C.ar   36  PHE36      -0.0000
     57  N          4.9180    8.2990    8.3250 N.3    38  ASP38      -0.1239
     58  CA         5.7930    9.3250    8.8190 C.3    38  ASP38       0.1674
     59  C          6.9440    9.6350    7.8620 C.2    38  ASP38       0.2266
     60  O          7.2120    8.8920    6.8960 O.2    38  ASP38      -0.2867
     61  CB         6.3980    8.9210   10.1790 C.3    38  ASP38       0.1410
     62  CG         5.3500    8.7400   11.3020 C.2    38  ASP38       0.3668
     63  OD1        4.1560    9.0680   11.1460 O.co2  38  ASP38      -0.2456
     64  OD2        5.7510    8.2620   12.3700 O.co2  38  ASP38      -0.2456
     65  N         -1.1770    0.3860   14.6680 N.3    55  PHE55      -0.1241
     66  CA        -1.2360   -0.1240   16.0190 C.3    55  PHE55       0.1605
     67  C         -2.6460   -0.4340   16.3200 C.2    55  PHE55       0.2264
     68  O         -3.5300   -0.0220   15.6000 O.2    55  PHE55      -0.2867
     69  CB        -0.7120    0.8970   17.0470 C.3    55  PHE55       0.0534
     70  CG        -1.4700    2.2090   17.0250 C.ar   55  PHE55      -0.0203
     71  CD1       -2.6140    2.3740   17.7770 C.ar   55  PHE55      -0.0042
     72  CD2       -1.0710    3.2340   16.2000 C.ar   55  PHE55      -0.0042
     73  CE1       -3.3320    3.5550   17.7410 C.ar   55  PHE55      -0.0003
     74  CE2       -1.7710    4.4300   16.1660 C.ar   55  PHE55      -0.0003
     75  CZ        -2.9040    4.6000   16.9360 C.ar   55  PHE55      -0.0000
     76  N          2.1810   -2.2820   18.2220 N.3    71  TYR71      -0.1241
     77  CA         2.6510   -1.4770   17.0780 C.3    71  TYR71       0.1605
     78  C          3.3970   -2.3390   16.0740 C.2    71  TYR71       0.2264
     79  O          4.0890   -3.2600   16.4720 O.2    71  TYR71      -0.2867
     80  CB         3.6160   -0.3780   17.5380 C.3    71  TYR71       0.0534
     81  CG         2.9320    0.8620   18.0830 C.ar   71  TYR71      -0.0201
     82  CD1        2.3440    0.8470   19.3470 C.ar   71  TYR71      -0.0009
     83  CD2        2.8510    2.0400   17.3310 C.ar   71  TYR71      -0.0009
     84  CE1        1.7120    1.9560   19.8510 C.ar   71  TYR71       0.0417
     85  CE2        2.2050    3.1620   17.8370 C.ar   71  TYR71       0.0417
     86  CZ         1.6500    3.0950   19.0980 C.ar   71  TYR71       0.1957
     87  OH         1.0010    4.1460   19.6320 O.3    71  TYR71      -0.2866
     88  N          5.6730   -1.5790   12.2440 N.3    73  GLU73      -0.1245
     89  CA         6.0190   -0.6370   11.2210 C.3    73  GLU73       0.1567
     90  C          7.2260   -1.0690   10.4200 C.2    73  GLU73       0.2260
     91  O          8.0680   -1.8220   10.9020 O.2    73  GLU73      -0.2867
     92  CB         6.2670    0.7480   11.8250 C.3    73  GLU73       0.0388
     93  CG         7.2400    0.7590   12.9960 C.3    73  GLU73       0.1160
     94  CD         7.5110    2.1560   13.5250 C.2    73  GLU73       0.3649
     95  OE1        7.5070    3.1380   12.7560 O.co2  73  GLU73      -0.2457
     96  OE2        7.7920    2.2740   14.7220 O.co2  73  GLU73      -0.2457
     97  N         -0.4220    2.9000   25.7810 N.3    90  PHE90      -0.1241
     98  CA        -0.9800    4.1230   25.2040 C.3    90  PHE90       0.1605
     99  C         -1.1410    5.3020   26.1730 C.2    90  PHE90       0.2264
    100  O         -1.1600    6.4550   25.7150 O.2    90  PHE90      -0.2867
    101  CB        -2.3110    3.8480   24.5010 C.3    90  PHE90       0.0534
    102  CG        -2.6170    4.8380   23.4260 C.ar   90  PHE90      -0.0203
    103  CD1       -2.0760    4.6810   22.1720 C.ar   90  PHE90      -0.0042
    104  CD2       -3.3830    5.9620   23.6980 C.ar   90  PHE90      -0.0042
    105  CE1       -2.3230    5.6060   21.1760 C.ar   90  PHE90      -0.0003
    106  CE2       -3.6430    6.8930   22.7170 C.ar   90  PHE90      -0.0003
    107  CZ        -3.1140    6.7170   21.4430 C.ar   90  PHE90      -0.0000
    108  N          1.9890    6.9290   25.5670 N.3    93  VAL93      -0.1245
    109  CA         1.9730    7.5230   24.2450 C.3    93  VAL93       0.1561
    110  C          1.3750    8.9160   24.3610 C.2    93  VAL93       0.2260
    111  O          1.9860    9.9010   23.9240 O.2    93  VAL93      -0.2867
    112  CB         1.1580    6.6790   23.2120 C.3    93  VAL93       0.0252
    113  CG1        1.0060    7.4320   21.8950 C.3    93  VAL93       0.0019
    114  CG2        1.8260    5.3410   22.9320 C.3    93  VAL93       0.0019
    115  N         13.3650    0.4140   18.5520 N.3   117  ARG117     -0.1245
    116  CA        12.7420    1.6260   18.0800 C.3   117  ARG117      0.1563
    117  C         12.1680    2.3180   19.3160 C.2   117  ARG117      0.2260
    118  O         11.4070    1.7250   20.0840 O.2   117  ARG117     -0.2867
    119  CB        11.6710    1.2350   17.0860 C.3   117  ARG117      0.0307
    120  CG        10.6450    2.2510   16.7020 C.3   117  ARG117      0.0489
    121  CD        11.1480    3.4260   15.8760 C.3   117  ARG117      0.2205
    122  NE        10.0230    3.9610   15.1080 N.pl3 117  ARG117     -0.0865
    123  CZ         9.9250    5.1790   14.5890 C.cat 117  ARG117      0.5346
    124  NH1       10.8580    6.0950   14.7790 N.pl3 117  ARG117      0.1354
    125  NH2        8.8380    5.4890   13.8930 N.pl3 117  ARG117      0.1354
    126  N         10.4590    6.1560   20.6790 N.3   119  TRP119     -0.1241
    127  CA         9.9280    7.4420   20.3230 C.3   119  TRP119      0.1605
    128  C          9.0190    8.0190   21.3860 C.2   119  TRP119      0.2264
    129  O          8.4610    7.3130   22.2610 O.2   119  TRP119     -0.2867
    130  CB         9.2060    7.3880   18.9320 C.3   119  TRP119      0.0550
    131  CG         8.1180    6.3550   18.8200 C.ar  119  TRP119      0.0003
    132  CD1        8.2250    5.0940   18.3100 C.ar  119  TRP119      0.0946
    133  CD2        6.7760    6.5040   19.2480 C.ar  119  TRP119      0.0152
    134  NE1        7.0130    4.4440   18.3840 N.ar  119  TRP119     -0.2442
    135  CE2        6.1100    5.2900   18.9740 C.ar  119  TRP119      0.0810
    136  CE3        6.0560    7.5550   19.8370 C.ar  119  TRP119      0.0012
    137  CZ2        4.7550    5.1040   19.2610 C.ar  119  TRP119      0.0191
    138  CZ3        4.7320    7.3710   20.1210 C.ar  119  TRP119      0.0001
    139  CH2        4.0800    6.1460   19.8360 C.ar  119  TRP119      0.0015
    140  N          5.9200   11.1550   21.5190 N.3   121  MET121     -0.1245
    141  CA         5.0840   12.1730   20.8700 C.3   121  MET121      0.1570
    142  C          5.4560   13.6190   21.2280 C.2   121  MET121      0.2261
    143  O          5.7160   13.9580   22.3630 O.2   121  MET121     -0.2867
    144  CB         3.6300   11.9820   21.2430 C.3   121  MET121      0.0387
    145  CG         2.7150   12.2900   20.0900 C.3   121  MET121      0.0595
    146  SD         2.6830   10.9380   18.8550 S.3   121  MET121     -0.1393
    147  CE         1.5570    9.9490   19.8160 C.3   121  MET121      0.0692
    148  N          0.3480   15.3710   19.1720 N.3   124  VAL124     -0.1231
    149  CA        -0.5330   14.2520   18.9420 C.3   124  VAL124      0.1692
    150  C         -1.1320   14.4580   17.5490 C.2   124  VAL124      0.2591
    151  O         -1.6120   15.5540   17.2370 O.2   124  VAL124     -0.2718
    152  CB        -1.5900   14.1670   20.0600 C.3   124  VAL124      0.0266
    153  CG1       -2.7190   13.2040   19.6740 C.3   124  VAL124      0.0020
    154  CG2       -0.9360   13.7340   21.3860 C.3   124  VAL124      0.0020
    155  N         -0.9860   13.4340   16.7090 N.am  125  ARG125     -0.1980
    156  CA        -1.3610   13.4600   15.2830 C.3   125  ARG125      0.1597
    157  C         -0.5510   14.4740   14.4660 C.2   125  ARG125      0.2287
    158  O         -1.0100   14.8830   13.4390 O.2   125  ARG125     -0.2864
    159  CB        -2.8770   13.6980   15.0630 C.3   125  ARG125      0.0334
    160  CG        -3.7870   12.7500   15.8390 C.3   125  ARG125      0.0492
    161  CD        -5.2730   12.9030   15.4580 C.3   125  ARG125      0.2205
    162  NE        -6.1300   11.8740   16.0420 N.pl3 125  ARG125     -0.0865
    163  CZ        -6.8190   11.9720   17.1760 C.cat 125  ARG125      0.5346
    164  NH1       -6.8130   13.0820   17.9200 N.pl3 125  ARG125      0.1354
    165  NH2       -7.5430   10.9330   17.5890 N.pl3 125  ARG125      0.1354
    166  N          6.8010   13.7360   16.2760 N.3   128  ALA128     -0.1245
    167  CA         7.4710   13.0260   17.3620 C.3   128  ALA128      0.1562
    168  C          8.9910   13.1660   17.2990 C.2   128  ALA128      0.2260
    169  O          9.5720   13.5910   16.3110 O.2   128  ALA128     -0.2867
    170  CB         7.0740   11.5370   17.3220 C.3   128  ALA128      0.0290
@<TRIPOS>BOND
     1    60    59    2
     2    59    58    1
     3    57    58    1
     4    58    61    1
     5    49    48    2
     6    48    47    1
     7    17    18    1
     8    12    13    2
     9    12    11    1
    10    20    19    2
    11    19    18    1
    12    61    62    1
    13    47    46    1
    14    47    50    1
    15    18    21    1
    16    90    91    2
    17    90    89    1
    18    11    10    1
    19    11    14    1
    20    63    62   ar
    21    89    92    1
    22    89    88    1
    23    62    64   ar
    24    50    51    1
    25    21    22    1
    26    21    23    1
    27    15    14    1
    28    53    51   ar
    29    53    55   ar
    30    92    93    1
    31    51    52   ar
    32    14    16    1
    33    24    25    1
    34    55    56   ar
    35     3     2    1
    36     3     4    2
    37    95    94   ar
    38     6     7    1
    39     6     5    1
    40     2     5    1
    41     2     1    1
    42    52    54   ar
    43    93    94    1
    44     9     7   ar
    45    56    54   ar
    46     7     8   ar
    47   158   157    2
    48    25    26    1
    49    25    28    1
    50    94    96   ar
    51    27    26    2
    52   125   123    1
    53   157   156    1
    54    28    29    1
    55   123   124    1
    56   123   122    2
    57    31    29   ar
    58    65    66    1
    59   159   156    1
    60   159   160    1
    61    29    30   ar
    62   122   121    1
    63   156   155    1
    64   161   160    1
    65   161   162    1
    66    68    67    2
    67   121   120    1
    68    66    67    1
    69    66    69    1
    70   162   163    2
    71    78    79    2
    72    78    77    1
    73    74    72   ar
    74    74    75   ar
    75    72    70   ar
    76   166   167    1
    77   169   168    2
    78   120   119    1
    79   155   150   am
    80    75    73   ar
    81    70    69    1
    82    70    71   ar
    83    77    80    1
    84    77    76    1
    85   119   116    1
    86   163   165    1
    87   163   164    1
    88   151   150    2
    89   168   167    1
    90   170   167    1
    91    83    85   ar
    92    83    81   ar
    93    32    33    1
    94    80    81    1
    95   150   149    1
    96    73    71   ar
    97    85    86   ar
    98   116   115    1
    99   116   117    1
   100    81    82   ar
   101   132   134   ar
   102   132   131   ar
   103    38    36    1
   104   134   135   ar
   105   131   130    1
   106   131   133   ar
   107   146   147    1
   108   146   145    1
   109    35    34    2
   110    33    36    1
   111    33    34    1
   112   130   127    1
   113   149   148    1
   114   149   152    1
   115   135   133   ar
   116   135   137   ar
   117    86    87    1
   118    86    84   ar
   119    36    37    1
   120   133   136   ar
   121   137   139   ar
   122   117   118    2
   123    82    84   ar
   124   153   152    1
   125   139   138   ar
   126   136   138   ar
   127   152   154    1
   128   145   144    1
   129   127   126    1
   130   127   128    1
   131   141   142    1
   132   141   144    1
   133   141   140    1
   134    44    43    1
   135   105   107   ar
   136   105   103   ar
   137   142   143    2
   138   128   129    2
   139   107   106   ar
   140   113   112    1
   141   103   102   ar
   142    39    40    1
   143    43    45    1
   144    43    40    1
   145   106   104   ar
   146   114   112    1
   147    40    41    1
   148   112   109    1
   149   102   104   ar
   150   102   101    1
   151   111   110    2
   152   109   110    1
   153   109   108    1
   154    41    42    2
   155   101    98    1
   156    98    97    1
   157    98    99    1
   158   100    99    2
