@<TRIPOS>MOLECULE
tmp/5dywB04.pdb
 207 206 0 0 0
SMALL
GASTEIGER

@<TRIPOS>ATOM
      1  N         19.6090  -17.7870  -34.1700 N.3    65  ASN65      -0.1225
      2  CA        18.1710  -17.7400  -34.0100 C.3    65  ASN65       0.1785
      3  C         17.6350  -19.1450  -33.7460 C.2    65  ASN65       0.2597
      4  O         18.2290  -20.1460  -34.1480 O.2    65  ASN65      -0.2718
      5  CB        17.5370  -17.1140  -35.2540 C.3    65  ASN65       0.1169
      6  CG        17.8990  -15.6350  -35.4000 C.2    65  ASN65       0.2627
      7  OD1       17.6600  -14.8430  -34.4860 O.2    65  ASN65      -0.2716
      8  ND2       18.5010  -15.2640  -36.5330 N.am   65  ASN65      -0.0877
      9  N         16.5210  -19.2130  -33.0300 N.am   66  ILE66      -0.1966
     10  CA        15.8860  -20.4720  -32.6670 C.3    66  ILE66       0.1727
     11  C         14.6520  -20.6720  -33.5340 C.2    66  ILE66       0.2616
     12  O         13.8870  -19.7320  -33.7770 O.2    66  ILE66      -0.2715
     13  CB        15.4990  -20.4920  -31.1790 C.3    66  ILE66       0.0290
     14  CG1       16.6520  -19.9870  -30.3090 C.3    66  ILE66       0.0022
     15  CG2       15.0870  -21.8990  -30.7740 C.3    66  ILE66       0.0023
     16  CD1       17.8210  -20.9030  -30.2970 C.3    66  ILE66       0.0001
     17  N         14.4460  -21.8960  -34.0030 N.am   67  ASP67      -0.1971
     18  CA        13.2220  -22.2010  -34.7240 C.3    67  ASP67       0.1709
     19  C         12.0960  -22.4140  -33.7140 C.2    67  ASP67       0.2293
     20  O         12.0420  -23.4450  -33.0290 O.2    67  ASP67      -0.2864
     21  CB        13.4090  -23.4200  -35.6130 C.3    67  ASP67       0.1436
     22  CG        12.1160  -23.8530  -36.2780 C.2    67  ASP67       0.3671
     23  OD1       11.1820  -23.0220  -36.4000 O.co2  67  ASP67      -0.2456
     24  OD2       12.0360  -25.0280  -36.6910 O.co2  67  ASP67      -0.2456
     25  N          9.2880  -32.2990  -33.6480 N.3    75  GLY75      -0.1210
     26  CA         9.8650  -32.3160  -34.9820 C.3    75  GLY75       0.1956
     27  C         10.7700  -31.1270  -35.2520 C.2    75  GLY75       0.2612
     28  O         11.7910  -31.2560  -35.9330 O.2    75  GLY75      -0.2717
     29  N         10.4080  -29.9530  -34.7330 N.am   76  SER76      -0.1952
     30  CA        11.2250  -28.7630  -34.9460 C.3    76  SER76       0.1924
     31  C         12.1710  -28.4860  -33.7890 C.2    76  SER76       0.2314
     32  O         13.3040  -28.0560  -34.0120 O.2    76  SER76      -0.2863
     33  CB        10.3450  -27.5310  -35.2020 C.3    76  SER76       0.2116
     34  OG         9.3490  -27.3900  -34.2110 O.3    76  SER76      -0.2180
     35  N         15.9810  -29.8730  -33.2730 N.3    79  TRP79      -0.1241
     36  CA        17.1330  -29.2400  -33.9070 C.3    79  TRP79       0.1605
     37  C         17.5510  -27.9480  -33.2310 C.2    79  TRP79       0.2264
     38  O         18.5820  -27.3880  -33.6120 O.2    79  TRP79      -0.2867
     39  CB        16.8610  -28.9430  -35.3900 C.3    79  TRP79       0.0550
     40  CG        16.2780  -30.1010  -36.1460 C.ar   79  TRP79       0.0003
     41  CD1       14.9710  -30.2770  -36.4940 C.ar   79  TRP79       0.0946
     42  CD2       16.9850  -31.2430  -36.6460 C.ar   79  TRP79       0.0152
     43  NE1       14.8230  -31.4550  -37.1880 N.ar   79  TRP79      -0.2442
     44  CE2       16.0460  -32.0650  -37.2960 C.ar   79  TRP79       0.0810
     45  CE3       18.3240  -31.6430  -36.6180 C.ar   79  TRP79       0.0012
     46  CZ2       16.4020  -33.2770  -37.9040 C.ar   79  TRP79       0.0191
     47  CZ3       18.6770  -32.8450  -37.2290 C.ar   79  TRP79       0.0001
     48  CH2       17.7190  -33.6460  -37.8590 C.ar   79  TRP79       0.0015
     49  N         22.4520  -26.8750  -40.5390 N.3   113  GLY113     -0.1210
     50  CA        21.6470  -25.8140  -39.9640 C.3   113  GLY113      0.1956
     51  C         21.6320  -24.5710  -40.8390 C.2   113  GLY113      0.2612
     52  O         21.4540  -23.4520  -40.3450 O.2   113  GLY113     -0.2717
     53  N         21.8170  -24.7630  -42.1480 N.am  114  GLY114     -0.1956
     54  CA        21.7840  -23.6680  -43.0970 C.3   114  GLY114      0.1869
     55  C         22.8360  -22.6030  -42.8760 C.2   114  GLY114      0.2309
     56  O         22.6740  -21.4790  -43.3610 O.2   114  GLY114     -0.2863
     57  N         23.1520  -20.9780  -40.4770 N.3   116  GLN116     -0.1231
     58  CA        22.5660  -20.0310  -39.5420 C.3   116  GLN116      0.1698
     59  C         22.2470  -20.6360  -38.1790 C.2   116  GLN116      0.2592
     60  O         22.0790  -19.8850  -37.2150 O.2   116  GLN116     -0.2718
     61  CB        21.2820  -19.4150  -40.1260 C.3   116  GLN116      0.0381
     62  CG        21.3280  -19.1030  -41.6330 C.3   116  GLN116      0.0905
     63  CD        22.4600  -18.1450  -42.0170 C.2   116  GLN116      0.2608
     64  OE1       22.4630  -16.9710  -41.6300 O.2   116  GLN116     -0.2717
     65  NE2       23.4330  -18.6500  -42.7760 N.am  116  GLN116     -0.0878
     66  N         22.1680  -21.9620  -38.0700 N.am  117  THR117     -0.1953
     67  CA        21.8180  -22.6390  -36.8280 C.3   117  THR117      0.1897
     68  C         22.7000  -23.8690  -36.6760 C.2   117  THR117      0.2313
     69  O         23.5500  -24.1670  -37.5260 O.2   117  THR117     -0.2863
     70  CB        20.3440  -23.0740  -36.8010 C.3   117  THR117      0.1794
     71  OG1       20.1430  -24.0710  -37.8000 O.3   117  THR117     -0.2208
     72  CG2       19.3970  -21.9130  -37.0890 C.3   117  THR117      0.0378
     73  N         23.7280  -31.6100  -44.8380 N.3   195  SER195     -0.1217
     74  CA        23.1510  -30.3520  -45.2950 C.3   195  SER195      0.1889
     75  C         24.2130  -29.2570  -45.3510 C.2   195  SER195      0.2288
     76  O         25.1280  -29.3330  -46.1750 O.2   195  SER195     -0.2866
     77  CB        21.9760  -29.9640  -44.4040 C.3   195  SER195      0.2089
     78  OG        21.2020  -28.9370  -45.0070 O.3   195  SER195     -0.2183
     79  N         21.7900  -22.7860  -52.4890 N.3   228  TRP228     -0.1241
     80  CA        21.8160  -22.0580  -51.2340 C.3   228  TRP228      0.1605
     81  C         23.2020  -21.9730  -50.6010 C.2   228  TRP228      0.2264
     82  O         23.3710  -21.2330  -49.6270 O.2   228  TRP228     -0.2867
     83  CB        20.8510  -22.7160  -50.2380 C.3   228  TRP228      0.0550
     84  CG        21.0160  -24.2200  -50.1470 C.ar  228  TRP228      0.0003
     85  CD1       20.3180  -25.1690  -50.8500 C.ar  228  TRP228      0.0946
     86  CD2       21.9490  -24.9390  -49.3260 C.ar  228  TRP228      0.0152
     87  NE1       20.7570  -26.4230  -50.5110 N.ar  228  TRP228     -0.2442
     88  CE2       21.7570  -26.3120  -49.5790 C.ar  228  TRP228      0.0810
     89  CE3       22.9240  -24.5570  -48.4040 C.ar  228  TRP228      0.0012
     90  CZ2       22.5020  -27.3010  -48.9420 C.ar  228  TRP228      0.0191
     91  CZ3       23.6720  -25.5510  -47.7710 C.ar  228  TRP228      0.0001
     92  CH2       23.4540  -26.9020  -48.0450 C.ar  228  TRP228      0.0015
     93  N         12.2150  -20.0110  -47.7580 N.3   282  PRO282     -0.2102
     94  CA        12.5190  -20.8740  -46.6100 C.3   282  PRO282      0.1504
     95  C         13.8870  -21.5230  -46.7070 C.2   282  PRO282      0.2576
     96  O         14.3210  -22.1330  -45.7240 O.2   282  PRO282     -0.2718
     97  CB        11.3870  -21.9120  -46.6340 C.3   282  PRO282      0.0282
     98  CG        10.2830  -21.2460  -47.4050 C.3   282  PRO282      0.0208
     99  CD        10.9770  -20.4240  -48.4430 C.3   282  PRO282      0.0893
    100  N         14.5780  -21.4030  -47.8470 N.am  283  LEU283     -0.1966
    101  CA        15.9300  -21.9200  -48.0250 C.3   283  LEU283      0.1728
    102  C         16.9900  -20.8270  -48.0530 C.2   283  LEU283      0.2617
    103  O         18.1360  -21.0980  -48.4280 O.2   283  LEU283     -0.2715
    104  CB        16.0210  -22.7530  -49.3050 C.3   283  LEU283      0.0311
    105  CG        15.3020  -24.0890  -49.1520 C.3   283  LEU283      0.0022
    106  CD1       14.0640  -24.1160  -50.0150 C.3   283  LEU283      0.0001
    107  CD2       16.2180  -25.2430  -49.4560 C.3   283  LEU283      0.0001
    108  N         16.6450  -19.6070  -47.6530 N.am  284  SER284     -0.1936
    109  CA        17.5930  -18.5080  -47.7170 C.3   284  SER284      0.2055
    110  C         18.7130  -18.7100  -46.7140 C.2   284  SER284      0.2642
    111  O         18.4660  -19.0110  -45.5430 O.2   284  SER284     -0.2714
    112  CB        16.8870  -17.1770  -47.4570 C.3   284  SER284      0.2130
    113  OG        16.3010  -16.6840  -48.6560 O.3   284  SER284     -0.2179
    114  N         19.9440  -18.5480  -47.1860 N.am  285  VAL285     -0.1977
    115  CA        21.1400  -18.5200  -46.3540 C.3   285  VAL285      0.1596
    116  C         21.5990  -17.0650  -46.3390 C.2   285  VAL285      0.2287
    117  O         22.2300  -16.5910  -47.2920 O.2   285  VAL285     -0.2864
    118  CB        22.2230  -19.4750  -46.8800 C.3   285  VAL285      0.0276
    119  CG1       23.5230  -19.3590  -46.0980 C.3   285  VAL285      0.0022
    120  CG2       21.7150  -20.9090  -46.8610 C.3   285  VAL285      0.0022
    121  N         10.3370  -30.6360  -45.9690 N.3   325  ALA325     -0.1231
    122  CA        10.4440  -29.8800  -44.7240 C.3   325  ALA325      0.1694
    123  C         10.2540  -28.3880  -44.9430 C.2   325  ALA325      0.2592
    124  O          9.6700  -27.7040  -44.0950 O.2   325  ALA325     -0.2718
    125  CB        11.7960  -30.1390  -44.0600 C.3   325  ALA325      0.0304
    126  N         10.7360  -27.8630  -46.0630 N.am  326  PHE326     -0.1976
    127  CA        10.6920  -26.4230  -46.2810 C.3   326  PHE326      0.1639
    128  C          9.3110  -25.9460  -46.7150 C.2   326  PHE326      0.2290
    129  O          9.0270  -24.7450  -46.6230 O.2   326  PHE326     -0.2864
    130  CB        11.7790  -26.0380  -47.2970 C.3   326  PHE326      0.0560
    131  CG        13.1460  -26.5520  -46.9200 C.ar  326  PHE326     -0.0200
    132  CD1       13.5430  -27.8390  -47.2770 C.ar  326  PHE326     -0.0042
    133  CD2       14.0110  -25.7740  -46.1580 C.ar  326  PHE326     -0.0042
    134  CE1       14.7880  -28.3430  -46.8900 C.ar  326  PHE326     -0.0003
    135  CE2       15.2620  -26.2640  -45.7800 C.ar  326  PHE326     -0.0003
    136  CZ        15.6520  -27.5530  -46.1480 C.ar  326  PHE326     -0.0000
    137  N          7.2060  -24.2140  -44.0870 N.3   329  TYR329     -0.1241
    138  CA         7.7920  -22.9550  -43.6300 C.3   329  TYR329      0.1605
    139  C          7.5560  -21.8170  -44.6160 C.2   329  TYR329      0.2264
    140  O          8.4390  -20.9920  -44.8430 O.2   329  TYR329     -0.2867
    141  CB         9.2910  -23.0960  -43.3800 C.3   329  TYR329      0.0534
    142  CG         9.6360  -23.8670  -42.1380 C.ar  329  TYR329     -0.0201
    143  CD1        9.6050  -25.2510  -42.1360 C.ar  329  TYR329     -0.0009
    144  CD2        9.9900  -23.2120  -40.9600 C.ar  329  TYR329     -0.0009
    145  CE1        9.9170  -25.9630  -41.0040 C.ar  329  TYR329      0.0417
    146  CE2       10.3080  -23.9260  -39.8170 C.ar  329  TYR329      0.0417
    147  CZ        10.2670  -25.3000  -39.8530 C.ar  329  TYR329      0.1957
    148  OH        10.5710  -26.0330  -38.7420 O.3   329  TYR329     -0.2866
    149  N         18.8670  -29.9620  -53.3830 N.3   395  PHE395     -0.1241
    150  CA        19.7000  -30.9610  -52.7370 C.3   395  PHE395      0.1605
    151  C         20.1460  -32.0530  -53.6960 C.2   395  PHE395      0.2264
    152  O         21.3480  -32.2940  -53.8310 O.2   395  PHE395     -0.2867
    153  CB        18.9560  -31.5490  -51.5310 C.3   395  PHE395      0.0534
    154  CG        18.6330  -30.5200  -50.4750 C.ar  395  PHE395     -0.0203
    155  CD1       19.6160  -30.0850  -49.5900 C.ar  395  PHE395     -0.0042
    156  CD2       17.3590  -29.9550  -50.3940 C.ar  395  PHE395     -0.0042
    157  CE1       19.3300  -29.1080  -48.6250 C.ar  395  PHE395     -0.0003
    158  CE2       17.0640  -28.9820  -49.4270 C.ar  395  PHE395     -0.0003
    159  CZ        18.0500  -28.5630  -48.5390 C.ar  395  PHE395     -0.0000
    160  N          6.9080  -35.7610  -37.8890 N.3   427  TRP427     -0.1241
    161  CA         6.2200  -35.0070  -38.9150 C.3   427  TRP427      0.1605
    162  C          5.1450  -35.8840  -39.5440 C.2   427  TRP427      0.2264
    163  O          5.1890  -37.1050  -39.4150 O.2   427  TRP427     -0.2867
    164  CB         7.2290  -34.5080  -39.9520 C.3   427  TRP427      0.0550
    165  CG         8.2390  -33.5280  -39.3940 C.ar  427  TRP427      0.0003
    166  CD1        9.4630  -33.8210  -38.8590 C.ar  427  TRP427      0.0946
    167  CD2        8.1000  -32.1000  -39.3150 C.ar  427  TRP427      0.0152
    168  NE1       10.0950  -32.6650  -38.4590 N.ar  427  TRP427     -0.2442
    169  CE2        9.2760  -31.5970  -38.7220 C.ar  427  TRP427      0.0810
    170  CE3        7.0920  -31.2040  -39.6780 C.ar  427  TRP427      0.0012
    171  CZ2        9.4690  -30.2420  -38.4830 C.ar  427  TRP427      0.0191
    172  CZ3        7.2860  -29.8530  -39.4410 C.ar  427  TRP427      0.0001
    173  CH2        8.4680  -29.3860  -38.8500 C.ar  427  TRP427      0.0015
    174  N         12.3210  -37.2740  -44.8250 N.3   434  MET434     -0.1230
    175  CA        12.6120  -35.8500  -44.8340 C.3   434  MET434      0.1702
    176  C         14.1030  -35.5680  -44.7280 C.2   434  MET434      0.2592
    177  O         14.8860  -36.3720  -44.2100 O.2   434  MET434     -0.2718
    178  CB        11.9060  -35.1570  -43.6730 C.3   434  MET434      0.0401
    179  CG        10.4170  -35.0550  -43.8280 C.3   434  MET434      0.0596
    180  SD         9.6600  -34.4450  -42.3180 S.3   434  MET434     -0.1393
    181  CE        10.7120  -33.0540  -41.9360 C.3   434  MET434      0.0692
    182  N         14.4780  -34.3850  -45.2180 N.am  435  HIS435     -0.1962
    183  CA        15.7760  -33.7840  -44.9240 C.3   435  HIS435      0.1787
    184  C         16.1130  -33.9130  -43.4360 C.2   435  HIS435      0.2621
    185  O         15.2970  -33.5860  -42.5630 O.2   435  HIS435     -0.2715
    186  CB        15.7520  -32.3060  -45.3350 C.3   435  HIS435      0.0785
    187  CG        17.0930  -31.6440  -45.3420 C.ar  435  HIS435      0.0821
    188  ND1       18.1080  -32.0240  -46.1970 N.ar  435  HIS435     -0.2267
    189  CD2       17.5730  -30.5930  -44.6340 C.ar  435  HIS435      0.1154
    190  CE1       19.1650  -31.2560  -45.9900 C.ar  435  HIS435      0.1986
    191  NE2       18.8670  -30.3780  -45.0490 N.ar  435  HIS435     -0.2212
    192  N         17.3130  -34.4130  -43.1530 N.am  436  GLY436     -0.1940
    193  CA        17.7940  -34.5430  -41.7970 C.3   436  GLY436      0.2014
    194  C         17.5470  -35.8820  -41.1270 C.2   436  GLY436      0.2638
    195  O         18.2680  -36.2220  -40.1880 O.2   436  GLY436     -0.2714
    196  N         16.5600  -36.6560  -41.5660 N.am  437  TYR437     -0.1973
    197  CA        16.1360  -37.7940  -40.7650 C.3   437  TYR437      0.1639
    198  C         16.8010  -39.1080  -41.1740 C.2   437  TYR437      0.2290
    199  O         16.3750  -40.1760  -40.7250 O.2   437  TYR437     -0.2864
    200  CB        14.6140  -37.8740  -40.7680 C.3   437  TYR437      0.0560
    201  CG        14.0740  -36.7740  -39.8760 C.ar  437  TYR437     -0.0198
    202  CD1       13.8120  -35.5100  -40.3910 C.ar  437  TYR437     -0.0009
    203  CD2       13.9250  -36.9670  -38.5010 C.ar  437  TYR437     -0.0009
    204  CE1       13.3640  -34.4860  -39.5830 C.ar  437  TYR437      0.0417
    205  CE2       13.4660  -35.9500  -37.6840 C.ar  437  TYR437      0.0417
    206  CZ        13.1850  -34.7080  -38.2360 C.ar  437  TYR437      0.1957
    207  OH        12.7260  -33.6650  -37.4610 O.3   437  TYR437     -0.2866
@<TRIPOS>BOND
     1   152   151    2
     2   151   150    1
     3   149   150    1
     4   150   153    1
     5    79    80    1
     6   153   154    1
     7    80    81    1
     8    80    83    1
     9    85    87   ar
    10    85    84   ar
    11    81    82    2
    12    87    88   ar
    13   154   156   ar
    14   154   155   ar
    15   156   158   ar
    16    83    84    1
    17    84    86   ar
    18   106   105    1
    19   155   157   ar
    20    88    86   ar
    21    88    90   ar
    22   107   105    1
    23   158   159   ar
    24    86    89   ar
    25   104   105    1
    26   104   101    1
    27    90    92   ar
    28   113   112    1
    29   157   159   ar
    30    99    93    1
    31    99    98    1
    32   103   102    2
    33    89    91   ar
    34   102   101    1
    35   102   108   am
    36    92    91   ar
    37   101   100    1
    38   100    95   am
    39    93    94    1
    40   109   108    1
    41   109   112    1
    42   109   110    1
    43    98    97    1
    44   130   131    1
    45   130   127    1
    46   117   116    2
    47   132   131   ar
    48   132   134   ar
    49   114   110   am
    50   114   115    1
    51   131   133   ar
    52   134   136   ar
    53   118   120    1
    54   118   115    1
    55   118   119    1
    56   128   129    2
    57   128   127    1
    58   110   111    2
    59    95    94    1
    60    95    96    2
    61    97    94    1
    62   115   116    1
    63   127   126    1
    64   188   190   ar
    65   188   187   ar
    66    76    75    2
    67   133   135   ar
    68   136   135   ar
    69   126   123   am
    70   190   191   ar
    71   121   122    1
    72    75    74    1
    73   187   186    1
    74   187   189   ar
    75   186   183    1
    76    74    73    1
    77    74    77    1
    78   182   183    1
    79   182   176   am
    80   191   189   ar
    81    78    77    1
    82   123   122    1
    83   123   124    2
    84   183   184    1
    85   140   139    2
    86   175   174    1
    87   175   176    1
    88   175   178    1
    89   176   177    2
    90   122   125    1
    91   139   138    1
    92   137   138    1
    93   179   178    1
    94   179   180    1
    95   138   141    1
    96   184   192   am
    97   184   185    2
    98   141   142    1
    99    56    55    2
   100   192   193    1
   101    54    55    1
   102    54    53    1
   103    65    63   am
   104   180   181    1
   105    53    51   am
   106   142   143   ar
   107   142   144   ar
   108   143   145   ar
   109    63    62    1
   110    63    64    2
   111   193   194    1
   112    62    61    1
   113   196   194   am
   114   196   197    1
   115   198   197    1
   116   198   199    2
   117   194   195    2
   118   145   147   ar
   119   144   146   ar
   120    51    52    2
   121    51    50    1
   122   200   197    1
   123   200   201    1
   124    49    50    1
   125    57    58    1
   126   202   201   ar
   127   202   204   ar
   128    61    58    1
   129   164   165    1
   130   164   161    1
   131   201   203   ar
   132   147   146   ar
   133   147   148    1
   134   170   172   ar
   135   170   167   ar
   136   204   206   ar
   137   162   163    2
   138   162   161    1
   139    58    59    1
   140   172   173   ar
   141   165   167   ar
   142   165   166   ar
   143   167   169   ar
   144   161   160    1
   145   166   168   ar
   146   173   171   ar
   147   169   171   ar
   148   169   168   ar
   149   203   205   ar
   150   206   205   ar
   151   206   207    1
   152    59    66   am
   153    59    60    2
   154    66    67    1
   155    46    48   ar
   156    46    44   ar
   157    48    47   ar
   158    71    70    1
   159    69    68    2
   160    44    43   ar
   161    44    42   ar
   162    47    45   ar
   163    43    41   ar
   164    72    70    1
   165    67    70    1
   166    67    68    1
   167    24    22   ar
   168    42    45   ar
   169    42    40   ar
   170     8     6   am
   171    41    40   ar
   172    23    22   ar
   173    22    21    1
   174    40    39    1
   175    28    27    2
   176    21    18    1
   177     6     5    1
   178     6     7    2
   179    39    36    1
   180     5     2    1
   181    27    26    1
   182    27    29   am
   183    33    30    1
   184    33    34    1
   185    26    25    1
   186    30    29    1
   187    30    31    1
   188    18    17    1
   189    18    19    1
   190     1     2    1
   191     4     3    2
   192    32    31    2
   193     2     3    1
   194    17    11   am
   195    36    35    1
   196    36    37    1
   197    12    11    2
   198     3     9   am
   199    19    20    2
   200    38    37    2
   201    11    10    1
   202     9    10    1
   203    10    13    1
   204    13    15    1
   205    13    14    1
   206    14    16    1
