@<TRIPOS>MOLECULE
tmp/5dyxA00.pdb
 99 98 0 0 0
SMALL
GASTEIGER

@<TRIPOS>ATOM
      1  N        -29.2090  -18.1420    3.0590 N.3    32  TRP32      -0.1228
      2  CA       -30.1300  -17.2800    2.3110 C.3    32  TRP32       0.1722
      3  C        -29.5510  -15.9660    1.7520 C.2    32  TRP32       0.2437
      4  O        -29.9860  -15.5310    0.6760 O.2    32  TRP32      -0.2733
      5  CB       -31.3680  -16.9550    3.1600 C.3    32  TRP32       0.0563
      6  CG       -31.0810  -16.3420    4.4880 C.ar   32  TRP32       0.0003
      7  CD1      -30.8710  -17.0100    5.6670 C.ar   32  TRP32       0.0946
      8  CD2      -30.9970  -14.9450    4.7960 C.ar   32  TRP32       0.0152
      9  NE1      -30.6480  -16.1100    6.6820 N.ar   32  TRP32      -0.2442
     10  CE2      -30.7150  -14.8380    6.1750 C.ar   32  TRP32       0.0810
     11  CE3      -31.1110  -13.7710    4.0350 C.ar   32  TRP32       0.0012
     12  CZ2      -30.5510  -13.6020    6.8150 C.ar   32  TRP32       0.0191
     13  CZ3      -30.9450  -12.5460    4.6700 C.ar   32  TRP32       0.0001
     14  CH2      -30.6690  -12.4730    6.0490 C.ar   32  TRP32       0.0015
     15  N        -28.5760  -15.3270    2.4440 N.am   33  PRO33      -0.2718
     16  CA       -28.0750  -14.1000    1.8070 C.3    33  PRO33       0.1535
     17  C        -27.2000  -14.3490    0.5780 C.2    33  PRO33       0.2598
     18  O        -26.8380  -13.3880   -0.1150 O.2    33  PRO33      -0.2715
     19  CB       -27.2260  -13.4420    2.9070 C.3    33  PRO33       0.0310
     20  CG       -27.5920  -14.1560    4.1970 C.3    33  PRO33       0.0237
     21  CD       -27.9310  -15.5450    3.7540 C.3    33  PRO33       0.0939
     22  N        -26.8670  -15.6110    0.3240 N.am   34  PHE34      -0.1974
     23  CA       -25.8240  -15.9670   -0.6370 C.3    34  PHE34       0.1639
     24  C        -26.2960  -16.8830   -1.7520 C.2    34  PHE34       0.2290
     25  O        -25.4870  -17.3000   -2.5680 O.2    34  PHE34      -0.2864
     26  CB       -24.6520  -16.6460    0.0960 C.3    34  PHE34       0.0560
     27  CG       -24.2330  -15.9180    1.3470 C.ar   34  PHE34      -0.0200
     28  CD1      -23.7140  -14.6310    1.2590 C.ar   34  PHE34      -0.0042
     29  CD2      -24.3990  -16.4910    2.5930 C.ar   34  PHE34      -0.0042
     30  CE1      -23.3430  -13.9310    2.4090 C.ar   34  PHE34      -0.0003
     31  CE2      -24.0300  -15.8050    3.7520 C.ar   34  PHE34      -0.0003
     32  CZ       -23.5020  -14.5300    3.6620 C.ar   34  PHE34      -0.0000
     33  N        -26.5820  -10.6620   -5.4870 N.3    38  VAL38      -0.1231
     34  CA       -27.1380   -9.4320   -4.9360 C.3    38  VAL38       0.1692
     35  C        -27.7240   -8.6190   -6.0830 C.2    38  VAL38       0.2592
     36  O        -27.1050   -8.5030   -7.1490 O.2    38  VAL38      -0.2718
     37  CB       -26.0730   -8.6090   -4.1850 C.3    38  VAL38       0.0266
     38  CG1      -26.6630   -7.2800   -3.7040 C.3    38  VAL38       0.0020
     39  CG2      -25.5190   -9.4150   -3.0070 C.3    38  VAL38       0.0020
     40  N        -28.9300   -8.0950   -5.8810 N.am   39  ASN39      -0.1974
     41  CA       -29.6220   -7.3320   -6.9210 C.3    39  ASN39       0.1688
     42  C        -29.0190   -5.9360   -7.0600 C.2    39  ASN39       0.2292
     43  O        -29.2800   -5.0640   -6.2450 O.2    39  ASN39      -0.2864
     44  CB       -31.1190   -7.2350   -6.6020 C.3    39  ASN39       0.1181
     45  CG       -31.9420   -6.7280   -7.7780 C.2    39  ASN39       0.2629
     46  OD1      -31.4810   -5.9060   -8.5750 O.2    39  ASN39      -0.2716
     47  ND2      -33.1740   -7.2080   -7.8820 N.am   39  ASN39      -0.0877
     48  N        -30.0170   -2.6760   -4.5330 N.3    43  VAL43      -0.1245
     49  CA       -29.1340   -2.4950   -3.3890 C.3    43  VAL43       0.1561
     50  C        -28.1380   -1.3940   -3.6760 C.2    43  VAL43       0.2260
     51  O        -27.1580   -1.6050   -4.3960 O.2    43  VAL43      -0.2867
     52  CB       -28.3860   -3.7960   -3.0200 C.3    43  VAL43       0.0252
     53  CG1      -27.5240   -3.5810   -1.7830 C.3    43  VAL43       0.0019
     54  CG2      -29.3810   -4.9260   -2.7820 C.3    43  VAL43       0.0019
     55  N        -23.8970   -1.2820   -3.9320 N.3    46  TYR46      -0.1241
     56  CA       -23.2820   -2.6010   -4.0870 C.3    46  TYR46       0.1605
     57  C        -22.4140   -2.6990   -5.3350 C.2    46  TYR46       0.2264
     58  O        -21.2760   -3.1780   -5.2680 O.2    46  TYR46      -0.2867
     59  CB       -24.3310   -3.7190   -4.1080 C.3    46  TYR46       0.0534
     60  CG       -23.7130   -5.0300   -3.6560 C.ar   46  TYR46      -0.0201
     61  CD1      -23.2050   -5.9340   -4.5770 C.ar   46  TYR46      -0.0009
     62  CD2      -23.5820   -5.3230   -2.3040 C.ar   46  TYR46      -0.0009
     63  CE1      -22.6140   -7.1280   -4.1650 C.ar   46  TYR46       0.0417
     64  CE2      -22.9920   -6.5070   -1.8820 C.ar   46  TYR46       0.0417
     65  CZ       -22.5080   -7.4040   -2.8220 C.ar   46  TYR46       0.1957
     66  OH       -21.9120   -8.5890   -2.4180 O.3    46  TYR46      -0.2866
     67  N        -19.2250  -10.1390    1.6050 N.3    85  CYS85      -0.1235
     68  CA       -20.2280   -9.9570    2.6470 C.3    85  CYS85       0.1677
     69  C        -19.6660   -9.1260    3.7960 C.2    85  CYS85       0.2270
     70  O        -20.3370   -8.2230    4.2950 O.2    85  CYS85      -0.2867
     71  CB       -20.7200  -11.3140    3.1640 C.3    85  CYS85       0.0956
     72  SG       -21.9530  -11.2290    4.5170 S.3    85  CYS85      -0.0801
     73  N        -19.3740   -5.3760    2.8830 N.3    88  PHE88      -0.1227
     74  CA       -20.6000   -4.6040    2.7590 C.3    88  PHE88       0.1736
     75  C        -21.5030   -4.6060    3.9930 C.2    88  PHE88       0.2595
     76  O        -22.3860   -3.7550    4.1130 O.2    88  PHE88      -0.2718
     77  CB       -21.4030   -5.1080    1.5570 C.3    88  PHE88       0.0547
     78  CG       -22.3000   -4.0600    0.9590 C.ar   88  PHE88      -0.0202
     79  CD1      -21.7770   -3.0720    0.1340 C.ar   88  PHE88      -0.0042
     80  CD2      -23.6610   -4.0550    1.2220 C.ar   88  PHE88      -0.0042
     81  CE1      -22.6000   -2.0990   -0.4280 C.ar   88  PHE88      -0.0003
     82  CE2      -24.4890   -3.0860    0.6570 C.ar   88  PHE88      -0.0003
     83  CZ       -23.9560   -2.1080   -0.1610 C.ar   88  PHE88      -0.0000
     84  N        -21.2890   -5.5460    4.9060 N.am   89  ASN89      -0.1974
     85  CA       -22.2040   -5.7310    6.0300 C.3    89  ASN89       0.1688
     86  C        -21.5120   -5.6510    7.3760 C.2    89  ASN89       0.2292
     87  O        -20.4080   -6.1700    7.5460 O.2    89  ASN89      -0.2864
     88  CB       -22.9210   -7.0870    5.9230 C.3    89  ASN89       0.1181
     89  CG       -23.7770   -7.2040    4.6760 C.2    89  ASN89       0.2629
     90  OD1      -24.9460   -6.8090    4.6710 O.2    89  ASN89      -0.2716
     91  ND2      -23.2050   -7.7670    3.6110 N.am   89  ASN89      -0.0877
     92  N        -27.0670  -10.5160    8.2020 N.3    95  ILE95      -0.1245
     93  CA       -26.3170  -10.9620    7.0280 C.3    95  ILE95       0.1561
     94  C        -24.8400  -11.0960    7.3910 C.2    95  ILE95       0.2260
     95  O        -24.1770  -12.0620    7.0100 O.2    95  ILE95      -0.2867
     96  CB       -26.5000   -9.9830    5.8320 C.3    95  ILE95       0.0252
     97  CG1      -27.9200  -10.0980    5.2810 C.3    95  ILE95       0.0019
     98  CG2      -25.4910  -10.2680    4.7250 C.3    95  ILE95       0.0019
     99  CD1      -28.2150   -9.1530    4.1360 C.3    95  ILE95       0.0001
@<TRIPOS>BOND
     1    46    45    2
     2    47    45   am
     3    45    44    1
     4    36    35    2
     5    42    41    1
     6    42    43    2
     7    41    44    1
     8    41    40    1
     9    35    40   am
    10    35    34    1
    11    33    34    1
    12    57    58    2
    13    57    56    1
    14    34    37    1
    15    61    63   ar
    16    61    60   ar
    17    48    49    1
    18    51    50    2
    19    37    38    1
    20    37    39    1
    21    63    65   ar
    22    59    56    1
    23    59    60    1
    24    56    55    1
    25    50    49    1
    26    60    62   ar
    27    49    52    1
    28    52    54    1
    29    52    53    1
    30    65    66    1
    31    65    64   ar
    32    25    24    2
    33    62    64   ar
    34    24    23    1
    35    23    26    1
    36    23    22    1
    37    81    83   ar
    38    81    79   ar
    39    83    82   ar
    40    18    17    2
    41    26    27    1
    42    79    78   ar
    43    22    17   am
    44    17    16    1
    45    82    80   ar
    46     4     3    2
    47    78    80   ar
    48    78    77    1
    49    28    27   ar
    50    28    30   ar
    51    27    29   ar
    52    77    74    1
    53    67    68    1
    54     3     2    1
    55     3    15   am
    56    16    15    1
    57    16    19    1
    58     2     1    1
    59     2     5    1
    60    30    32   ar
    61    15    21    1
    62    29    31   ar
    63    68    71    1
    64    68    69    1
    65    74    73    1
    66    74    75    1
    67    19    20    1
    68     5     6    1
    69    71    72    1
    70    91    89   am
    71    32    31   ar
    72    21    20    1
    73    69    70    2
    74    75    76    2
    75    75    84   am
    76    11    13   ar
    77    11     8   ar
    78    99    97    1
    79     6     8   ar
    80     6     7   ar
    81    13    14   ar
    82    90    89    2
    83    89    88    1
    84    98    96    1
    85     8    10   ar
    86    84    85    1
    87    97    96    1
    88     7     9   ar
    89    96    93    1
    90    88    85    1
    91    85    86    1
    92    14    12   ar
    93    10     9   ar
    94    10    12   ar
    95    95    94    2
    96    93    94    1
    97    93    92    1
    98    86    87    2
