@<TRIPOS>MOLECULE
tmp/5dyyB01.pdb
 191 190 0 0 0
SMALL
GASTEIGER

@<TRIPOS>ATOM
      1  N        -15.4920   21.4680  -35.5540 N.3    66  ASP66      -0.1239
      2  CA       -14.2420   21.7920  -36.2310 C.3    66  ASP66       0.1674
      3  C        -13.1710   21.9800  -35.1670 C.2    66  ASP66       0.2266
      4  O        -13.2540   22.8940  -34.3370 O.2    66  ASP66      -0.2867
      5  CB       -14.3940   23.0400  -37.0940 C.3    66  ASP66       0.1410
      6  CG       -13.0990   23.4460  -37.7710 C.2    66  ASP66       0.3668
      7  OD1      -12.1450   22.6540  -37.7610 O.co2  66  ASP66      -0.2456
      8  OD2      -13.0310   24.5580  -38.3270 O.co2  66  ASP66      -0.2456
      9  N        -10.5100   31.9670  -34.8710 N.3    74  GLY74      -0.1210
     10  CA       -11.1350   32.0430  -36.1860 C.3    74  GLY74       0.1956
     11  C        -11.9460   30.8190  -36.5520 C.2    74  GLY74       0.2612
     12  O        -12.8360   30.8990  -37.4080 O.2    74  GLY74      -0.2717
     13  N        -11.6400   29.6780  -35.9390 N.am   75  SER75      -0.1952
     14  CA       -12.4330   28.4800  -36.1090 C.3    75  SER75       0.1924
     15  C        -13.3170   28.1860  -34.9120 C.2    75  SER75       0.2314
     16  O        -14.4220   27.6770  -35.0860 O.2    75  SER75      -0.2863
     17  CB       -11.5260   27.2740  -36.3780 C.3    75  SER75       0.2116
     18  OG       -10.6640   27.0320  -35.2890 O.3    75  SER75      -0.2180
     19  N        -17.0860   29.4890  -34.5330 N.3    78  TRP78      -0.1241
     20  CA       -18.1950   28.8490  -35.2340 C.3    78  TRP78       0.1605
     21  C        -18.6720   27.6020  -34.5280 C.2    78  TRP78       0.2264
     22  O        -19.7370   27.0850  -34.8720 O.2    78  TRP78      -0.2867
     23  CB       -17.8110   28.5030  -36.6780 C.3    78  TRP78       0.0550
     24  CG       -17.3440   29.6580  -37.4270 C.ar   78  TRP78       0.0003
     25  CD1      -16.0420   29.9620  -37.7670 C.ar   78  TRP78       0.0946
     26  CD2      -18.1480   30.7310  -37.9300 C.ar   78  TRP78       0.0152
     27  NE1      -16.0000   31.1520  -38.4690 N.ar   78  TRP78      -0.2442
     28  CE2      -17.2790   31.6400  -38.5810 C.ar   78  TRP78       0.0810
     29  CE3      -19.5200   31.0110  -37.8950 C.ar   78  TRP78       0.0012
     30  CZ2      -17.7390   32.7950  -39.1850 C.ar   78  TRP78       0.0191
     31  CZ3      -19.9740   32.1510  -38.5060 C.ar   78  TRP78       0.0001
     32  CH2      -19.0840   33.0360  -39.1410 C.ar   78  TRP78       0.0015
     33  N        -23.5370   26.5120  -42.0630 N.3   112  GLY112     -0.1210
     34  CA       -22.6810   25.4800  -41.5310 C.3   112  GLY112      0.1956
     35  C        -22.7430   24.2450  -42.4000 C.2   112  GLY112      0.2612
     36  O        -22.6310   23.1150  -41.9020 O.2   112  GLY112     -0.2717
     37  N        -22.9500   24.4630  -43.7040 N.am  113  GLY113     -0.1956
     38  CA       -22.9270   23.4200  -44.7160 C.3   113  GLY113      0.1869
     39  C        -23.9330   22.3220  -44.4960 C.2   113  GLY113      0.2309
     40  O        -23.7360   21.2090  -44.9900 O.2   113  GLY113     -0.2863
     41  N        -24.3420   20.7300  -41.8920 N.3   115  GLN115     -0.1231
     42  CA       -23.7610   19.7370  -41.0010 C.3   115  GLN115      0.1698
     43  C        -23.4780   20.2880  -39.6160 C.2   115  GLN115      0.2592
     44  O        -23.3650   19.5040  -38.6720 O.2   115  GLN115     -0.2718
     45  CB       -22.4500   19.1780  -41.5920 C.3   115  GLN115      0.0381
     46  CG       -22.4720   18.9150  -43.0980 C.3   115  GLN115      0.0905
     47  CD       -23.5600   17.9030  -43.5150 C.2   115  GLN115      0.2608
     48  OE1      -23.5280   16.7340  -43.0980 O.2   115  GLN115     -0.2717
     49  NE2      -24.5340   18.3550  -44.3270 N.am  115  GLN115     -0.0878
     50  N        -23.3820   21.6150  -39.4790 N.am  116  THR116     -0.1953
     51  CA       -22.9950   22.2930  -38.2490 C.3   116  THR116      0.1897
     52  C        -23.8550   23.5470  -38.0760 C.2   116  THR116      0.2313
     53  O        -24.7040   23.8760  -38.9120 O.2   116  THR116     -0.2863
     54  CB       -21.5050   22.6870  -38.2660 C.3   116  THR116      0.1794
     55  OG1      -21.2630   23.6160  -39.3350 O.3   116  THR116     -0.2208
     56  CG2      -20.6150   21.5080  -38.4450 C.3   116  THR116      0.0378
     57  N        -24.8150   31.4420  -46.3510 N.3   194  SER194     -0.1217
     58  CA       -24.2240   30.1880  -46.8060 C.3   194  SER194      0.1889
     59  C        -25.3000   29.1090  -46.8890 C.2   194  SER194      0.2288
     60  O        -26.1840   29.2110  -47.7460 O.2   194  SER194     -0.2866
     61  CB       -23.0630   29.7980  -45.8990 C.3   194  SER194      0.2089
     62  OG       -22.2260   28.8290  -46.5210 O.3   194  SER194     -0.2183
     63  N        -22.7660   22.6300  -54.1070 N.3   227  TRP227     -0.1241
     64  CA       -22.7970   21.9410  -52.8250 C.3   227  TRP227      0.1605
     65  C        -24.1800   21.9170  -52.1830 C.2   227  TRP227      0.2264
     66  O        -24.3230   21.3360  -51.1060 O.2   227  TRP227     -0.2867
     67  CB       -21.8210   22.6070  -51.8430 C.3   227  TRP227      0.0550
     68  CG       -22.0080   24.1140  -51.7310 C.ar  227  TRP227      0.0003
     69  CD1      -21.3460   25.0740  -52.4420 C.ar  227  TRP227      0.0946
     70  CD2      -22.9330   24.8170  -50.8740 C.ar  227  TRP227      0.0152
     71  NE1      -21.7940   26.3260  -52.0800 N.ar  227  TRP227     -0.2442
     72  CE2      -22.7650   26.1980  -51.1230 C.ar  227  TRP227      0.0810
     73  CE3      -23.8790   24.4140  -49.9210 C.ar  227  TRP227      0.0012
     74  CZ2      -23.5180   27.1850  -50.4480 C.ar  227  TRP227      0.0191
     75  CZ3      -24.6190   25.3940  -49.2450 C.ar  227  TRP227      0.0001
     76  CH2      -24.4400   26.7560  -49.5200 C.ar  227  TRP227      0.0015
     77  N        -13.3460   19.8020  -49.3370 N.3   281  PRO281     -0.2102
     78  CA       -13.7030   20.6630  -48.2010 C.3   281  PRO281      0.1504
     79  C        -15.0900   21.2770  -48.3320 C.2   281  PRO281      0.2576
     80  O        -15.5820   21.8630  -47.3660 O.2   281  PRO281     -0.2718
     81  CB       -12.6000   21.7390  -48.2080 C.3   281  PRO281      0.0282
     82  CG       -11.4320   21.0850  -48.9130 C.3   281  PRO281      0.0208
     83  CD       -12.0510   20.1950  -49.9500 C.3   281  PRO281      0.0893
     84  N        -15.7530   21.1520  -49.4770 N.am  282  LEU282     -0.1966
     85  CA       -17.1090   21.6620  -49.6130 C.3   282  LEU282      0.1728
     86  C        -18.1480   20.5540  -49.6150 C.2   282  LEU282      0.2617
     87  O        -19.3120   20.8230  -49.9170 O.2   282  LEU282     -0.2715
     88  CB       -17.2490   22.5190  -50.8720 C.3   282  LEU282      0.0311
     89  CG       -16.4430   23.8290  -50.7830 C.3   282  LEU282      0.0022
     90  CD1      -15.2740   23.8240  -51.7630 C.3   282  LEU282      0.0001
     91  CD2      -17.3250   25.0580  -50.9720 C.3   282  LEU282      0.0001
     92  N        -17.7590   19.3280  -49.2600 N.am  283  SER283     -0.1936
     93  CA       -18.6930   18.2110  -49.2800 C.3   283  SER283      0.2055
     94  C        -19.8280   18.4490  -48.2920 C.2   283  SER283      0.2642
     95  O        -19.6160   18.9160  -47.1660 O.2   283  SER283     -0.2714
     96  CB       -17.9720   16.8970  -48.9520 C.3   283  SER283      0.2130
     97  OG       -17.2470   16.3960  -50.0670 O.3   283  SER283     -0.2179
     98  N        -21.0400   18.1620  -48.7450 N.am  284  VAL284     -0.1977
     99  CA       -22.2440   18.1900  -47.9250 C.3   284  VAL284      0.1596
    100  C        -22.7280   16.7470  -47.8780 C.2   284  VAL284      0.2287
    101  O        -23.3820   16.2690  -48.8130 O.2   284  VAL284     -0.2864
    102  CB       -23.3160   19.1370  -48.4790 C.3   284  VAL284      0.0276
    103  CG1      -24.6200   18.9590  -47.7290 C.3   284  VAL284      0.0022
    104  CG2      -22.8460   20.6180  -48.4190 C.3   284  VAL284      0.0022
    105  N        -11.3050   30.5170  -47.3570 N.3   324  ALA324     -0.1231
    106  CA       -11.4590   29.7280  -46.1370 C.3   324  ALA324      0.1694
    107  C        -11.2490   28.2380  -46.4010 C.2   324  ALA324      0.2592
    108  O        -10.6240   27.5330  -45.6010 O.2   324  ALA324     -0.2718
    109  CB       -12.8400   29.9620  -45.5250 C.3   324  ALA324      0.0304
    110  N        -11.7530   27.7450  -47.5240 N.am  325  PHE325     -0.1976
    111  CA       -11.7050   26.3140  -47.7860 C.3   325  PHE325      0.1639
    112  C        -10.3100   25.8500  -48.1910 C.2   325  PHE325      0.2290
    113  O         -9.9910   24.6700  -48.0260 O.2   325  PHE325     -0.2864
    114  CB       -12.7710   25.9690  -48.8370 C.3   325  PHE325      0.0560
    115  CG       -14.1440   26.4870  -48.4780 C.ar  325  PHE325     -0.0200
    116  CD1      -14.5630   27.7500  -48.8930 C.ar  325  PHE325     -0.0042
    117  CD2      -14.9960   25.7370  -47.6690 C.ar  325  PHE325     -0.0042
    118  CE1      -15.8320   28.2500  -48.5240 C.ar  325  PHE325     -0.0003
    119  CE2      -16.2670   26.2290  -47.2960 C.ar  325  PHE325     -0.0003
    120  CZ       -16.6810   27.4880  -47.7280 C.ar  325  PHE325     -0.0000
    121  N         -8.3950   23.8880  -45.5460 N.3   328  TYR328     -0.1241
    122  CA        -9.0230   22.6550  -45.0840 C.3   328  TYR328      0.1605
    123  C         -8.8240   21.5500  -46.1040 C.2   328  TYR328      0.2264
    124  O         -9.7210   20.7440  -46.3450 O.2   328  TYR328     -0.2867
    125  CB       -10.5190   22.8380  -44.8070 C.3   328  TYR328      0.0534
    126  CG       -10.8060   23.6210  -43.5490 C.ar  328  TYR328     -0.0201
    127  CD1      -10.6540   25.0070  -43.5190 C.ar  328  TYR328     -0.0009
    128  CD2      -11.2120   22.9790  -42.3850 C.ar  328  TYR328     -0.0009
    129  CE1      -10.9000   25.7230  -42.3850 C.ar  328  TYR328      0.0417
    130  CE2      -11.4770   23.6990  -41.2340 C.ar  328  TYR328      0.0417
    131  CZ       -11.3120   25.0750  -41.2400 C.ar  328  TYR328      0.1957
    132  OH       -11.5520   25.8030  -40.0920 O.3   328  TYR328     -0.2866
    133  N        -19.8570   29.9850  -54.9900 N.3   394  PHE394     -0.1241
    134  CA       -20.7270   30.9830  -54.3680 C.3   394  PHE394      0.1605
    135  C        -21.1110   32.1270  -55.2880 C.2   394  PHE394      0.2264
    136  O        -22.3010   32.3020  -55.5670 O.2   394  PHE394     -0.2867
    137  CB       -20.0950   31.5380  -53.0950 C.3   394  PHE394      0.0534
    138  CG       -19.7900   30.4770  -52.0770 C.ar  394  PHE394     -0.0203
    139  CD1      -20.7820   30.0100  -51.2190 C.ar  394  PHE394     -0.0042
    140  CD2      -18.5200   29.9140  -52.0070 C.ar  394  PHE394     -0.0042
    141  CE1      -20.5040   29.0070  -50.3090 C.ar  394  PHE394     -0.0003
    142  CE2      -18.2450   28.9180  -51.0970 C.ar  394  PHE394     -0.0003
    143  CZ       -19.2300   28.4590  -50.2490 C.ar  394  PHE394     -0.0000
    144  N         -7.8110   35.4990  -38.9900 N.3   426  TRP426     -0.1241
    145  CA        -7.1370   34.7890  -40.0700 C.3   426  TRP426      0.1605
    146  C         -6.1320   35.7010  -40.7760 C.2   426  TRP426      0.2264
    147  O         -6.2550   36.9280  -40.7360 O.2   426  TRP426     -0.2867
    148  CB        -8.1710   34.2710  -41.0820 C.3   426  TRP426      0.0550
    149  CG        -9.2220   33.2990  -40.5400 C.ar  426  TRP426      0.0003
    150  CD1      -10.4560   33.6120  -40.0360 C.ar  426  TRP426      0.0946
    151  CD2       -9.1200   31.8700  -40.4840 C.ar  426  TRP426      0.0152
    152  NE1      -11.1240   32.4690  -39.6700 N.ar  426  TRP426     -0.2442
    153  CE2      -10.3220   31.3880  -39.9340 C.ar  426  TRP426      0.0810
    154  CE3       -8.1300   30.9540  -40.8600 C.ar  426  TRP426      0.0012
    155  CZ2      -10.5540   30.0340  -39.7340 C.ar  426  TRP426      0.0191
    156  CZ3       -8.3630   29.6240  -40.6700 C.ar  426  TRP426      0.0001
    157  CH2       -9.5650   29.1690  -40.1050 C.ar  426  TRP426      0.0015
    158  N        -13.4320   37.2060  -46.1180 N.3   433  MET433     -0.1230
    159  CA       -13.7170   35.7760  -46.1120 C.3   433  MET433      0.1702
    160  C        -15.2050   35.4660  -46.0060 C.2   433  MET433      0.2592
    161  O        -15.9920   36.2540  -45.4680 O.2   433  MET433     -0.2718
    162  CB       -12.9950   35.0930  -44.9600 C.3   433  MET433      0.0401
    163  CG       -11.4990   35.2250  -44.9920 C.3   433  MET433      0.0596
    164  SD       -10.7890   34.3850  -43.5630 S.3   433  MET433     -0.1393
    165  CE       -11.4340   32.7320  -43.7430 C.3   433  MET433      0.0692
    166  N        -15.5760   34.3020  -46.5520 N.am  434  HIS434     -0.1962
    167  CA       -16.8460   33.6370  -46.2730 C.3   434  HIS434      0.1787
    168  C        -17.2040   33.7550  -44.7950 C.2   434  HIS434      0.2621
    169  O        -16.4170   33.3790  -43.9250 O.2   434  HIS434     -0.2715
    170  CB       -16.7290   32.1570  -46.6640 C.3   434  HIS434      0.0785
    171  CG       -18.0350   31.4170  -46.7090 C.ar  434  HIS434      0.0821
    172  ND1      -19.0260   31.6970  -47.6310 N.ar  434  HIS434     -0.2267
    173  CD2      -18.4980   30.3880  -45.9650 C.ar  434  HIS434      0.1154
    174  CE1      -20.0470   30.8850  -47.4430 C.ar  434  HIS434      0.1986
    175  NE2      -19.7440   30.0690  -46.4500 N.ar  434  HIS434     -0.2212
    176  N        -18.3850   34.2900  -44.5110 N.am  435  GLY435     -0.1940
    177  CA       -18.8930   34.3710  -43.1600 C.3   435  GLY435      0.2014
    178  C        -18.5380   35.6310  -42.3930 C.2   435  GLY435      0.2638
    179  O        -19.0610   35.8350  -41.2890 O.2   435  GLY435     -0.2714
    180  N        -17.6910   36.5030  -42.9290 N.am  436  TYR436     -0.1973
    181  CA       -17.2170   37.6280  -42.1450 C.3   436  TYR436      0.1639
    182  C        -17.8660   38.9420  -42.5460 C.2   436  TYR436      0.2290
    183  O        -17.3410   40.0130  -42.2160 O.2   436  TYR436     -0.2864
    184  CB       -15.6910   37.6920  -42.2000 C.3   436  TYR436      0.0560
    185  CG       -15.1310   36.6290  -41.3110 C.ar  436  TYR436     -0.0198
    186  CD1      -14.7360   35.4030  -41.8230 C.ar  436  TYR436     -0.0009
    187  CD2      -15.0830   36.8150  -39.9370 C.ar  436  TYR436     -0.0009
    188  CE1      -14.2650   34.3950  -40.9910 C.ar  436  TYR436      0.0417
    189  CE2      -14.6180   35.8200  -39.0930 C.ar  436  TYR436      0.0417
    190  CZ       -14.2130   34.6130  -39.6260 C.ar  436  TYR436      0.1957
    191  OH       -13.7380   33.6400  -38.7870 O.3   436  TYR436     -0.2866
@<TRIPOS>BOND
     1   136   135    2
     2   135   134    1
     3   133   134    1
     4   134   137    1
     5    63    64    1
     6   137   138    1
     7    64    65    1
     8    64    67    1
     9    69    71   ar
    10    69    68   ar
    11    65    66    2
    12    71    72   ar
    13   138   140   ar
    14   138   139   ar
    15   140   142   ar
    16    67    68    1
    17    90    89    1
    18    68    70   ar
    19   139   141   ar
    20    72    70   ar
    21    72    74   ar
    22   142   143   ar
    23    91    89    1
    24    70    73   ar
    25    88    89    1
    26    88    85    1
    27    74    76   ar
    28   141   143   ar
    29    97    96    1
    30    83    77    1
    31    83    82    1
    32    73    75   ar
    33    87    86    2
    34    86    85    1
    35    86    92   am
    36    85    84    1
    37    76    75   ar
    38    84    79   am
    39    77    78    1
    40    93    92    1
    41    93    96    1
    42    93    94    1
    43    82    81    1
    44   116   118   ar
    45   116   115   ar
    46   114   115    1
    47   114   111    1
    48   101   100    2
    49    98    94   am
    50    98    99    1
    51   118   120   ar
    52   102   104    1
    53   102    99    1
    54   102   103    1
    55   115   117   ar
    56    79    78    1
    57    79    80    2
    58    94    95    2
    59    81    78    1
    60   112   113    2
    61   112   111    1
    62    99   100    1
    63   111   110    1
    64    60    59    2
    65   120   119   ar
    66   117   119   ar
    67   172   174   ar
    68   172   171   ar
    69   110   107   am
    70   174   175   ar
    71   105   106    1
    72    59    58    1
    73    58    57    1
    74    58    61    1
    75   171   170    1
    76   171   173   ar
    77   170   167    1
    78   166   167    1
    79   166   160   am
    80    62    61    1
    81   175   173   ar
    82   107   106    1
    83   107   108    2
    84   124   123    2
    85   167   168    1
    86   106   109    1
    87   158   159    1
    88   159   160    1
    89   159   162    1
    90   123   122    1
    91   160   161    2
    92   121   122    1
    93   122   125    1
    94   163   162    1
    95   163   164    1
    96    40    39    2
    97   125   126    1
    98   168   176   am
    99   168   169    2
   100    38    39    1
   101    38    37    1
   102   176   177    1
   103    49    47   am
   104   165   164    1
   105    37    35   am
   106   126   127   ar
   107   126   128   ar
   108   127   129   ar
   109    47    46    1
   110    47    48    2
   111   177   178    1
   112    46    45    1
   113   180   178   am
   114   180   181    1
   115   182   183    2
   116   182   181    1
   117    35    36    2
   118    35    34    1
   119   178   179    2
   120   128   130   ar
   121   129   131   ar
   122   184   181    1
   123   184   185    1
   124    33    34    1
   125    41    42    1
   126   186   185   ar
   127   186   188   ar
   128    45    42    1
   129   185   187   ar
   130   131   130   ar
   131   131   132    1
   132   148   149    1
   133   148   145    1
   134    42    43    1
   135   188   190   ar
   136   154   156   ar
   137   154   151   ar
   138   146   147    2
   139   146   145    1
   140   156   157   ar
   141   149   151   ar
   142   149   150   ar
   143   151   153   ar
   144   157   155   ar
   145   145   144    1
   146   150   152   ar
   147   187   189   ar
   148   153   155   ar
   149   153   152   ar
   150   190   189   ar
   151   190   191    1
   152    43    50   am
   153    43    44    2
   154    50    51    1
   155    55    54    1
   156    30    32   ar
   157    30    28   ar
   158    32    31   ar
   159    53    52    2
   160    28    27   ar
   161    28    26   ar
   162    31    29   ar
   163    27    25   ar
   164    56    54    1
   165     8     6   ar
   166    54    51    1
   167    51    52    1
   168    26    29   ar
   169    26    24   ar
   170     6     7   ar
   171     6     5    1
   172    25    24   ar
   173    24    23    1
   174    12    11    2
   175     5     2    1
   176    23    20    1
   177    11    10    1
   178    11    13   am
   179    17    14    1
   180    17    18    1
   181     2     1    1
   182     2     3    1
   183    10     9    1
   184    14    13    1
   185    14    15    1
   186    20    19    1
   187    20    21    1
   188     3     4    2
   189    16    15    2
   190    22    21    2
