@<TRIPOS>MOLECULE
tmp/5dz2A00.pdb
 182 171 0 0 0
SMALL
GASTEIGER

@<TRIPOS>ATOM
      1  N         27.1290  -25.3290   13.9020 N.3    79  VAL79      -0.1231
      2  CA        26.6170  -25.5130   15.2640 C.3    79  VAL79       0.1692
      3  C         26.9710  -24.3230   16.1560 C.2    79  VAL79       0.2592
      4  O         26.2100  -23.9680   17.0490 O.2    79  VAL79      -0.2718
      5  CB        27.1350  -26.8310   15.8920 C.3    79  VAL79       0.0266
      6  CG1       28.4530  -26.6250   16.6360 C.3    79  VAL79       0.0020
      7  CG2       26.0880  -27.4270   16.8130 C.3    79  VAL79       0.0020
      8  N         28.1080  -23.6910   15.8880 N.am   80  PHE80      -0.1976
      9  CA        28.5130  -22.4920   16.6030 C.3    80  PHE80       0.1639
     10  C         27.8050  -21.2470   16.0720 C.2    80  PHE80       0.2290
     11  O         27.5310  -20.3140   16.8360 O.2    80  PHE80      -0.2864
     12  CB        30.0240  -22.2970   16.5160 C.3    80  PHE80       0.0560
     13  CG        30.8060  -23.1170   17.5060 C.ar   80  PHE80      -0.0200
     14  CD1       31.1740  -24.4230   17.2150 C.ar   80  PHE80      -0.0042
     15  CD2       31.1850  -22.5730   18.7230 C.ar   80  PHE80      -0.0042
     16  CE1       31.9080  -25.1730   18.1270 C.ar   80  PHE80      -0.0003
     17  CE2       31.9120  -23.3160   19.6420 C.ar   80  PHE80      -0.0003
     18  CZ        32.2700  -24.6140   19.3430 C.ar   80  PHE80      -0.0000
     19  N         24.7760  -21.3200   14.9490 N.3    82  PHE82      -0.1227
     20  CA        23.4540  -21.4960   15.5350 C.3    82  PHE82       0.1736
     21  C         23.4300  -20.9950   16.9720 C.2    82  PHE82       0.2595
     22  O         22.4420  -20.4150   17.4270 O.2    82  PHE82      -0.2718
     23  CB        23.0300  -22.9680   15.4950 C.3    82  PHE82       0.0547
     24  CG        21.8900  -23.2850   16.4150 C.ar   82  PHE82      -0.0202
     25  CD1       20.5880  -23.0430   16.0310 C.ar   82  PHE82      -0.0042
     26  CD2       22.1240  -23.8080   17.6850 C.ar   82  PHE82      -0.0042
     27  CE1       19.5360  -23.3190   16.8880 C.ar   82  PHE82      -0.0003
     28  CE2       21.0740  -24.0820   18.5460 C.ar   82  PHE82      -0.0003
     29  CZ        19.7840  -23.8350   18.1470 C.ar   82  PHE82      -0.0000
     30  N         24.5340  -21.2350   17.6720 N.am   83  ASP83      -0.1974
     31  CA        24.6860  -20.8480   19.0640 C.3    83  ASP83       0.1709
     32  C         24.7790  -19.3310   19.1950 C.2    83  ASP83       0.2293
     33  O         24.0790  -18.7290   20.0010 O.2    83  ASP83      -0.2864
     34  CB        25.9270  -21.5170   19.6610 C.3    83  ASP83       0.1436
     35  CG        25.9900  -21.4050   21.1900 C.2    83  ASP83       0.3671
     36  OD1       25.1590  -22.0350   21.8810 O.co2  83  ASP83      -0.2456
     37  OD2       26.8850  -20.7030   21.6970 O.co2  83  ASP83      -0.2456
     38  N         18.1090  -14.6890   22.6280 N.3    91  LYS91      -0.1245
     39  CA        18.4640  -14.6670   24.0430 C.3    91  LYS91       0.1561
     40  C         18.6030  -13.2510   24.5770 C.2    91  LYS91       0.2260
     41  O         18.0900  -12.9400   25.6540 O.2    91  LYS91      -0.2867
     42  CB        19.7650  -15.4450   24.2950 C.3    91  LYS91       0.0271
     43  CG        19.5820  -16.9600   24.3480 C.3    91  LYS91       0.0035
     44  CD        20.8470  -17.6790   24.8280 C.3    91  LYS91       0.0206
     45  CE        20.6230  -19.1890   24.8780 C.3    91  LYS91       0.1093
     46  NZ        21.8450  -19.9430   25.2930 N.3    91  LYS91      -0.1314
     47  N         19.9030  -30.6230   20.8360 N.3   151  LEU151     -0.1245
     48  CA        20.6260  -29.3490   20.8010 C.3   151  LEU151      0.1561
     49  C         19.6880  -28.1510   20.6890 C.2   151  LEU151      0.2260
     50  O         19.8920  -27.1230   21.3440 O.2   151  LEU151     -0.2867
     51  CB        21.6100  -29.3320   19.6310 C.3   151  LEU151      0.0270
     52  CG        23.0390  -29.7500   19.9590 C.3   151  LEU151      0.0019
     53  CD1       23.8650  -29.7890   18.6820 C.3   151  LEU151      0.0001
     54  CD2       23.6400  -28.7880   20.9860 C.3   151  LEU151      0.0001
     55  N         17.7930  -27.5790   23.8150 N.3   154  GLU154     -0.1245
     56  CA        18.6900  -27.0510   24.8300 C.3   154  GLU154      0.1567
     57  C         18.5960  -25.5370   24.8880 C.2   154  GLU154      0.2260
     58  O         18.4900  -24.9560   25.9690 O.2   154  GLU154     -0.2867
     59  CB        20.1410  -27.4660   24.5740 C.3   154  GLU154      0.0388
     60  CG        21.0710  -27.0370   25.7140 C.3   154  GLU154      0.1160
     61  CD        22.5410  -27.3010   25.4330 C.2   154  GLU154      0.3649
     62  OE1       23.0270  -26.8950   24.3510 O.co2 154  GLU154     -0.2457
     63  OE2       23.2110  -27.9060   26.3060 O.co2 154  GLU154     -0.2457
     64  N         17.5800  -23.2240   28.0900 N.3   158  GLU158     -0.1245
     65  CA        18.4970  -22.1900   28.5560 C.3   158  GLU158      0.1567
     66  C         17.8500  -20.8080   28.5690 C.2   158  GLU158      0.2260
     67  O         18.0430  -20.0440   29.5130 O.2   158  GLU158     -0.2867
     68  CB        19.7520  -22.1520   27.6820 C.3   158  GLU158      0.0388
     69  CG        20.6750  -23.3510   27.8180 C.3   158  GLU158      0.1160
     70  CD        21.7400  -23.3620   26.7330 C.2   158  GLU158      0.3649
     71  OE1       21.5360  -22.6810   25.7010 O.co2 158  GLU158     -0.2457
     72  OE2       22.7720  -24.0460   26.9030 O.co2 158  GLU158     -0.2457
     73  N         22.3770  -31.0100   30.5830 N.3   177  ARG177     -0.1245
     74  CA        23.3990  -31.0430   29.5410 C.3   177  ARG177      0.1563
     75  C         23.5600  -32.4570   28.9970 C.2   177  ARG177      0.2260
     76  O         23.9340  -32.6400   27.8410 O.2   177  ARG177     -0.2867
     77  CB        24.7370  -30.5150   30.0560 C.3   177  ARG177      0.0307
     78  CG        24.6500  -29.1150   30.6140 C.3   177  ARG177      0.0489
     79  CD        25.7520  -28.2030   30.0860 C.3   177  ARG177      0.2205
     80  NE        25.4650  -27.6990   28.7510 N.pl3 177  ARG177     -0.0865
     81  CZ        26.0800  -26.6590   28.1940 C.cat 177  ARG177      0.5346
     82  NH1       27.0060  -25.9960   28.8740 N.pl3 177  ARG177      0.1354
     83  NH2       25.7680  -26.2820   26.9550 N.pl3 177  ARG177      0.1354
     84  N         31.5730  -30.7080   28.5830 N.3   219  HIS219     -0.1241
     85  CA        30.8280  -29.5320   29.0320 C.3   219  HIS219      0.1621
     86  C         31.5090  -28.8130   30.1860 C.2   219  HIS219      0.2264
     87  O         31.6050  -27.5780   30.1950 O.2   219  HIS219     -0.2867
     88  CB        29.4080  -29.9250   29.4230 C.3   219  HIS219      0.0745
     89  CG        28.5600  -30.3120   28.2550 C.ar  219  HIS219      0.0817
     90  ND1       28.1240  -31.6010   28.0430 N.ar  219  HIS219     -0.2268
     91  CD2       28.0810  -29.5780   27.2240 C.ar  219  HIS219      0.1154
     92  CE1       27.4130  -31.6460   26.9290 C.ar  219  HIS219      0.1986
     93  NE2       27.3690  -30.4300   26.4150 N.ar  219  HIS219     -0.2212
     94  N         34.5180  -26.8790   28.8200 N.3   222  ASN222     -0.1225
     95  CA        34.1010  -25.6570   28.1550 C.3   222  ASN222      0.1785
     96  C         33.5960  -24.6130   29.1460 C.2   222  ASN222      0.2597
     97  O         33.8250  -23.4120   28.9640 O.2   222  ASN222     -0.2718
     98  CB        33.0170  -25.9450   27.1150 C.3   222  ASN222      0.1169
     99  CG        32.3650  -24.6790   26.6090 C.2   222  ASN222      0.2627
    100  OD1       31.3420  -24.2420   27.1340 O.2   222  ASN222     -0.2716
    101  ND2       32.9780  -24.0590   25.6120 N.am  222  ASN222     -0.0877
    102  N         32.9070  -25.0720   30.1900 N.am  223  ASP223     -0.1974
    103  CA        32.4010  -24.1500   31.2200 C.3   223  ASP223      0.1709
    104  C         33.5450  -23.3640   31.8380 C.2   223  ASP223      0.2293
    105  O         33.4420  -22.1520   32.0300 O.2   223  ASP223     -0.2864
    106  CB        31.6270  -24.9010   32.3040 C.3   223  ASP223      0.1436
    107  CG        30.2930  -25.4190   31.8050 C.2   223  ASP223      0.3671
    108  OD1       29.8300  -24.9460   30.7440 O.co2 223  ASP223     -0.2456
    109  OD2       29.7060  -26.3030   32.4610 O.co2 223  ASP223     -0.2456
    110  N         34.7140  -20.7310   29.1770 N.3   226  SER226     -0.1217
    111  CA        33.7690  -19.7320   28.6660 C.3   226  SER226      0.1889
    112  C         32.9300  -19.0420   29.7500 C.2   226  SER226      0.2288
    113  O         31.9980  -18.3060   29.4430 O.2   226  SER226     -0.2866
    114  CB        32.8410  -20.3680   27.6220 C.3   226  SER226      0.2089
    115  OG        32.0870  -21.4430   28.1600 O.3   226  SER226     -0.2183
    116  N         33.0480  -15.0180   29.3810 N.3   229  ARG229     -0.1231
    117  CA        32.1910  -14.5000   28.3270 C.3   229  ARG229      0.1694
    118  C         30.7230  -14.6850   28.7000 C.2   229  ARG229      0.2591
    119  O         29.9140  -13.7860   28.5100 O.2   229  ARG229     -0.2718
    120  CB        32.4980  -15.1800   26.9860 C.3   229  ARG229      0.0321
    121  CG        31.3840  -15.0300   25.9500 C.3   229  ARG229      0.0489
    122  CD        31.8540  -15.4080   24.5400 C.3   229  ARG229      0.2205
    123  NE        32.5940  -16.6690   24.5210 N.pl3 229  ARG229     -0.0865
    124  CZ        32.0320  -17.8750   24.5460 C.cat 229  ARG229      0.5346
    125  NH1       30.7110  -18.0080   24.6000 N.pl3 229  ARG229      0.1354
    126  NH2       32.7990  -18.9530   24.5240 N.pl3 229  ARG229      0.1354
    127  N         30.3840  -15.8430   29.2500 N.am  230  GLU230     -0.1979
    128  CA        28.9800  -16.1710   29.4660 C.3   230  GLU230      0.1602
    129  C         28.3710  -15.3540   30.5990 C.2   230  GLU230      0.2287
    130  O         27.2080  -14.9490   30.5370 O.2   230  GLU230     -0.2864
    131  CB        28.8280  -17.6700   29.7330 C.3   230  GLU230      0.0415
    132  CG        28.8520  -18.4730   28.4360 C.3   230  GLU230      0.1163
    133  CD        29.2340  -19.9300   28.6200 C.2   230  GLU230      0.3649
    134  OE1       29.4030  -20.3750   29.7840 O.co2 230  GLU230     -0.2457
    135  OE2       29.3690  -20.6280   27.5860 O.co2 230  GLU230     -0.2457
    136  N         27.4000  -12.3120   28.0750 N.3   234  GLU234     -0.1245
    137  CA        26.2420  -12.9410   27.4610 C.3   234  GLU234      0.1567
    138  C         25.0100  -12.9780   28.3630 C.2   234  GLU234      0.2260
    139  O         23.8810  -12.8770   27.8830 O.2   234  GLU234     -0.2867
    140  CB        26.5920  -14.3620   27.0240 C.3   234  GLU234      0.0388
    141  CG        27.6610  -14.4440   25.9430 C.3   234  GLU234      0.1160
    142  CD        27.7860  -15.8410   25.3790 C.2   234  GLU234      0.3649
    143  OE1       28.4600  -16.0080   24.3340 O.co2 234  GLU234     -0.2457
    144  OE2       27.1980  -16.7720   25.9840 O.co2 234  GLU234     -0.2457
    145  N         24.4890  -15.6710   30.0820 N.3   236  GLU236     -0.1245
    146  CA        24.1620  -17.0900   30.0120 C.3   236  GLU236      0.1567
    147  C         24.2510  -17.7260   31.3960 C.2   236  GLU236      0.2260
    148  O         25.2230  -17.5080   32.1120 O.2   236  GLU236     -0.2867
    149  CB        25.1060  -17.8050   29.0450 C.3   236  GLU236      0.0388
    150  CG        24.9350  -19.3110   29.0160 C.3   236  GLU236      0.1160
    151  CD        23.5860  -19.7330   28.4640 C.2   236  GLU236      0.3649
    152  OE1       23.2600  -19.3600   27.3120 O.co2 236  GLU236     -0.2457
    153  OE2       22.8540  -20.4410   29.1860 O.co2 236  GLU236     -0.2457
    154  N         23.8080  -21.1800   31.8450 N.3   238  SER238     -0.1217
    155  CA        24.1960  -22.5830   31.7190 C.3   238  SER238      0.1889
    156  C         25.7180  -22.7310   31.7220 C.2   238  SER238      0.2288
    157  O         26.3730  -22.8010   30.6730 O.2   238  SER238     -0.2866
    158  CB        23.6000  -23.2090   30.4600 C.3   238  SER238      0.2089
    159  OG        23.3080  -24.5740   30.6960 O.3   238  SER238     -0.2183
    160  N         37.2320  -17.4770   21.3920 N.3   318  ARG318     -0.1231
    161  CA        35.9890  -17.5790   22.1570 C.3   318  ARG318      0.1694
    162  C         36.2310  -17.6550   23.6610 C.2   318  ARG318      0.2592
    163  O         35.3010  -17.4630   24.4490 O.2   318  ARG318     -0.2718
    164  CB        35.1820  -18.8160   21.7480 C.3   318  ARG318      0.0321
    165  CG        34.7500  -18.8710   20.3080 C.3   318  ARG318      0.0489
    166  CD        33.8850  -20.0930   20.0770 C.3   318  ARG318      0.2205
    167  NE        32.6100  -20.0290   20.7870 N.pl3 318  ARG318     -0.0865
    168  CZ        31.5330  -19.3900   20.3320 C.cat 318  ARG318      0.5346
    169  NH1       31.5840  -18.7420   19.1720 N.pl3 318  ARG318      0.1354
    170  NH2       30.4060  -19.3930   21.0360 N.pl3 318  ARG318      0.1354
    171  N         37.4610  -17.9550   24.0680 N.am  319  TYR319     -0.1976
    172  CA        37.6710  -18.4230   25.4370 C.3   319  TYR319      0.1639
    173  C         38.7480  -17.6870   26.2320 C.2   319  TYR319      0.2290
    174  O         39.6010  -16.9950   25.6720 O.2   319  TYR319     -0.2864
    175  CB        37.9810  -19.9190   25.4120 C.3   319  TYR319      0.0560
    176  CG        36.9090  -20.7230   24.7090 C.ar  319  TYR319     -0.0198
    177  CD1       35.6250  -20.8120   25.2310 C.ar  319  TYR319     -0.0009
    178  CD2       37.1770  -21.3790   23.5110 C.ar  319  TYR319     -0.0009
    179  CE1       34.6320  -21.5440   24.5830 C.ar  319  TYR319      0.0417
    180  CE2       36.1930  -22.1110   22.8590 C.ar  319  TYR319      0.0417
    181  CZ        34.9210  -22.1840   23.3930 C.ar  319  TYR319      0.1957
    182  OH        33.9470  -22.9130   22.7450 O.3   319  TYR319     -0.2866
@<TRIPOS>BOND
     1     1     2    1
     2    19    20    1
     3     2     5    1
     4     2     3    1
     5    23    20    1
     6    23    24    1
     7    20    21    1
     8     8     3   am
     9     8     9    1
    10     5     6    1
    11     5     7    1
    12    25    24   ar
    13    25    27   ar
    14    10     9    1
    15    10    11    2
    16     3     4    2
    17    24    26   ar
    18    12     9    1
    19    12    13    1
    20    27    29   ar
    21    21    22    2
    22    21    30   am
    23    14    13   ar
    24    14    16   ar
    25    13    15   ar
    26    30    31    1
    27    26    28   ar
    28    16    18   ar
    29    29    28   ar
    30    53    52    1
    31    15    17   ar
    32    31    32    1
    33    31    34    1
    34   169   168    1
    35    32    33    2
    36    18    17   ar
    37    51    52    1
    38    51    48    1
    39    34    35    1
    40    52    54    1
    41   166   165    1
    42   166   167    1
    43   165   164    1
    44   168   167    2
    45   168   170    1
    46    49    48    1
    47    49    50    2
    48    48    47    1
    49    35    37   ar
    50    35    36   ar
    51   160   161    1
    52   164   161    1
    53   161   162    1
    54    38    39    1
    55   182   181    1
    56   180   181   ar
    57   180   178   ar
    58   181   179   ar
    59   178   176   ar
    60   162   171   am
    61   162   163    2
    62    55    56    1
    63    39    42    1
    64    39    40    1
    65   171   172    1
    66    42    43    1
    67   143   142   ar
    68    43    44    1
    69    62    61   ar
    70   123   122    1
    71   123   124    2
    72   126   124    1
    73   122   121    1
    74   124   125    1
    75    59    56    1
    76    59    60    1
    77    40    41    2
    78   179   177   ar
    79   176   177   ar
    80   176   175    1
    81    44    45    1
    82    56    57    1
    83    45    46    1
    84    57    58    2
    85   142   141    1
    86   142   144   ar
    87   175   172    1
    88    61    60    1
    89    61    63   ar
    90   172   173    1
    91   101    99   am
    92   174   173    2
    93    71    70   ar
    94   141   140    1
    95   121   120    1
    96    93    92   ar
    97    93    91   ar
    98    99    98    1
    99    99   100    2
   100    70    72   ar
   101    70    69    1
   102    92    90   ar
   103    83    81    1
   104   120   117    1
   105   140   137    1
   106    98    95    1
   107    91    89   ar
   108   152   151   ar
   109   137   136    1
   110   137   138    1
   111   135   133   ar
   112   114   115    1
   113   114   111    1
   114    68    69    1
   115    68    65    1
   116    76    75    2
   117   139   138    2
   118    90    89   ar
   119    64    65    1
   120    95    94    1
   121    95    96    1
   122    81    80    2
   123    81    82    1
   124    89    88    1
   125   117   118    1
   126   117   116    1
   127   132   133    1
   128   132   131    1
   129   151   150    1
   130   151   153   ar
   131   119   118    2
   132    65    66    1
   133    66    67    2
   134    84    85    1
   135   133   134   ar
   136   111   110    1
   137   111   112    1
   138   118   127   am
   139    80    79    1
   140    97    96    2
   141    75    74    1
   142   150   149    1
   143    85    88    1
   144    85    86    1
   145   149   146    1
   146    96   102   am
   147   127   128    1
   148   113   112    2
   149   128   131    1
   150   128   129    1
   151    74    77    1
   152    74    73    1
   153   146   145    1
   154   146   147    1
   155    77    78    1
   156    79    78    1
   157    86    87    2
   158   102   103    1
   159   158   159    1
   160   158   155    1
   161   130   129    2
   162   157   156    2
   163   108   107   ar
   164   103   104    1
   165   103   106    1
   166   147   148    2
   167   155   156    1
   168   155   154    1
   169   107   106    1
   170   107   109   ar
   171   104   105    2
