@<TRIPOS>MOLECULE
tmp/5dz3A01.pdb
 186 175 0 0 0
SMALL
GASTEIGER

@<TRIPOS>ATOM
      1  N         25.9470   -7.9120    3.9170 N.3    37  MET37      -0.1245
      2  CA        26.0180   -6.5180    4.3310 C.3    37  MET37       0.1570
      3  C         26.8490   -5.6960    3.3550 C.2    37  MET37       0.2261
      4  O         26.7310   -4.4750    3.3050 O.2    37  MET37      -0.2867
      5  CB        26.5960   -6.4080    5.7420 C.3    37  MET37       0.0387
      6  CG        25.7520   -7.0870    6.8080 C.3    37  MET37       0.0595
      7  SD        24.0400   -6.5210    6.8000 S.3    37  MET37      -0.1393
      8  CE        24.2540   -4.7700    7.1020 C.3    37  MET37       0.0692
      9  N         24.2730   -4.8810    0.5460 N.3    40  LEU40      -0.1231
     10  CA        23.2640   -3.9750    1.0830 C.3    40  LEU40       0.1693
     11  C         23.8290   -2.5750    1.3000 C.2    40  LEU40       0.2592
     12  O         23.1460   -1.5810    1.0570 O.2    40  LEU40      -0.2718
     13  CB        22.6950   -4.5230    2.3930 C.3    40  LEU40       0.0284
     14  CG        21.3620   -5.2700    2.2970 C.3    40  LEU40       0.0019
     15  CD1       21.4090   -6.3520    1.2280 C.3    40  LEU40       0.0001
     16  CD2       20.9860   -5.8650    3.6460 C.3    40  LEU40       0.0001
     17  N         25.0760   -2.5050    1.7560 N.am   41  THR41      -0.1953
     18  CA        25.7440   -1.2260    1.9840 C.3    41  THR41       0.1897
     19  C         25.9660   -0.4760    0.6750 C.2    41  THR41       0.2313
     20  O         25.6790    0.7180    0.5780 O.2    41  THR41      -0.2863
     21  CB        27.0990   -1.4180    2.6970 C.3    41  THR41       0.1794
     22  OG1       26.8750   -1.8780    4.0350 O.3    41  THR41      -0.2208
     23  CG2       27.8780   -0.1140    2.7420 C.3    41  THR41       0.0378
     24  N         24.3650   -0.8540   -2.1510 N.3    43  LEU43      -0.1231
     25  CA        23.0610   -0.4650   -2.6720 C.3    43  LEU43       0.1693
     26  C         22.5060    0.7510   -1.9380 C.2    43  LEU43       0.2591
     27  O         22.0600    1.7150   -2.5630 O.2    43  LEU43      -0.2718
     28  CB        22.0770   -1.6310   -2.5660 C.3    43  LEU43       0.0284
     29  CG        20.6180   -1.3180   -2.9040 C.3    43  LEU43       0.0019
     30  CD1       20.4790   -0.9030   -4.3620 C.3    43  LEU43       0.0001
     31  CD2       19.7290   -2.5100   -2.5900 C.3    43  LEU43       0.0001
     32  N         22.5390    0.6980   -0.6100 N.am   44  ALA44      -0.1980
     33  CA        22.0080    1.7730    0.2220 C.3    44  ALA44       0.1597
     34  C         22.7540    3.0820   -0.0090 C.2    44  ALA44       0.2287
     35  O         22.1510    4.1540   -0.0200 O.2    44  ALA44      -0.2864
     36  CB        22.0700    1.3850    1.6910 C.3    44  ALA44       0.0319
     37  N         21.5140    4.4910   -3.1270 N.3    47  GLU47      -0.1245
     38  CA        20.1390    4.9200   -2.9000 C.3    47  GLU47       0.1567
     39  C         20.0800    6.2430   -2.1430 C.2    47  GLU47       0.2260
     40  O         19.1520    7.0310   -2.3310 O.2    47  GLU47      -0.2867
     41  CB        19.3580    3.8530   -2.1300 C.3    47  GLU47       0.0388
     42  CG        18.8960    2.6790   -2.9720 C.3    47  GLU47       0.1160
     43  CD        17.9250    1.7830   -2.2270 C.2    47  GLU47       0.3649
     44  OE1       18.3780    0.9870   -1.3780 O.co2  47  GLU47      -0.2457
     45  OE2       16.7070    1.8810   -2.4850 O.co2  47  GLU47      -0.2457
     46  N         16.5880    8.6480    7.3050 N.3    77  TRP77      -0.1227
     47  CA        17.1490    8.0120    6.1110 C.3    77  TRP77       0.1737
     48  C         16.9140    6.5030    6.0650 C.2    77  TRP77       0.2595
     49  O         16.6040    5.9580    5.0070 O.2    77  TRP77      -0.2718
     50  CB        18.6490    8.3110    5.9900 C.3    77  TRP77       0.0564
     51  CG        19.5260    7.6270    6.9980 C.ar   77  TRP77       0.0003
     52  CD1       19.8680    8.0910    8.2340 C.ar   77  TRP77       0.0946
     53  CD2       20.1940    6.3660    6.8440 C.ar   77  TRP77       0.0152
     54  NE1       20.6990    7.1940    8.8630 N.ar   77  TRP77      -0.2442
     55  CE2       20.9130    6.1290    8.0310 C.ar   77  TRP77       0.0810
     56  CE3       20.2470    5.4170    5.8190 C.ar   77  TRP77       0.0012
     57  CZ2       21.6770    4.9770    8.2220 C.ar   77  TRP77       0.0191
     58  CZ3       21.0070    4.2740    6.0120 C.ar   77  TRP77       0.0001
     59  CH2       21.7110    4.0650    7.2030 C.ar   77  TRP77       0.0015
     60  N         17.0400    5.8290    7.2040 N.am   78  LEU78      -0.1980
     61  CA        16.8290    4.3860    7.2280 C.3    78  LEU78       0.1596
     62  C         15.3390    4.0570    7.1580 C.2    78  LEU78       0.2287
     63  O         14.9510    3.0500    6.5680 O.2    78  LEU78      -0.2864
     64  CB        17.4590    3.7590    8.4740 C.3    78  LEU78       0.0297
     65  CG        17.5390    2.2290    8.4600 C.3    78  LEU78       0.0022
     66  CD1       18.1620    1.7340    7.1610 C.3    78  LEU78       0.0001
     67  CD2       18.3230    1.7110    9.6560 C.3    78  LEU78       0.0001
     68  N         14.5320    4.3910    3.4860 N.3    81  LEU81      -0.1231
     69  CA        15.0610    3.2290    2.7800 C.3    81  LEU81       0.1693
     70  C         14.1840    2.0010    3.0010 C.2    81  LEU81       0.2591
     71  O         13.9470    1.2220    2.0780 O.2    81  LEU81      -0.2718
     72  CB        16.4950    2.9280    3.2270 C.3    81  LEU81       0.0284
     73  CG        17.6300    3.7770    2.6510 C.3    81  LEU81       0.0019
     74  CD1       18.9730    3.2920    3.1820 C.3    81  LEU81       0.0001
     75  CD2       17.6110    3.7520    1.1290 C.3    81  LEU81       0.0001
     76  N         13.6980    1.8410    4.2280 N.am   82  MET82      -0.1979
     77  CA        12.9340    0.6560    4.6030 C.3    82  MET82       0.1605
     78  C         11.5160    0.6480    4.0410 C.2    82  MET82       0.2287
     79  O         11.0290   -0.3980    3.6110 O.2    82  MET82      -0.2864
     80  CB        12.8850    0.5180    6.1250 C.3    82  MET82       0.0413
     81  CG        14.1530   -0.0650    6.7290 C.3    82  MET82       0.0598
     82  SD        14.0790   -0.2130    8.5230 S.3    82  MET82      -0.1393
     83  CE        15.6190   -1.0650    8.8500 C.3    82  MET82       0.0692
     84  N         11.7470   -0.3180    0.6760 N.3    85  LEU85      -0.1245
     85  CA        12.0070   -1.7510    0.5980 C.3    85  LEU85       0.1561
     86  C         10.7250   -2.5760    0.6920 C.2    85  LEU85       0.2260
     87  O         10.4890   -3.4620   -0.1300 O.2    85  LEU85      -0.2867
     88  CB        12.9760   -2.1750    1.7030 C.3    85  LEU85       0.0270
     89  CG        13.2020   -3.6790    1.8700 C.3    85  LEU85       0.0019
     90  CD1       13.8160   -4.2780    0.6130 C.3    85  LEU85       0.0001
     91  CD2       14.0730   -3.9580    3.0830 C.3    85  LEU85       0.0001
     92  N          8.5670   -2.1560   -2.4790 N.3    88  ARG88      -0.1245
     93  CA         9.0620   -2.9480   -3.6010 C.3    88  ARG88       0.1563
     94  C          8.7950   -4.4340   -3.3940 C.2    88  ARG88       0.2260
     95  O          8.6620   -5.1890   -4.3560 O.2    88  ARG88      -0.2867
     96  CB        10.5640   -2.7180   -3.8080 C.3    88  ARG88       0.0307
     97  CG        10.9430   -1.2910   -4.1630 C.3    88  ARG88       0.0489
     98  CD        12.3840   -1.1980   -4.6490 C.3    88  ARG88       0.2205
     99  NE        13.3460   -1.7120   -3.6760 N.pl3  88  ARG88      -0.0865
    100  CZ        13.8810   -0.9890   -2.6980 C.cat  88  ARG88       0.5346
    101  NH1       13.5430    0.2840   -2.5490 N.pl3  88  ARG88       0.1354
    102  NH2       14.7530   -1.5390   -1.8630 N.pl3  88  ARG88       0.1354
    103  N         15.2400   -6.0100   -2.2200 N.3    98  PHE98      -0.1241
    104  CA        16.2070   -4.9290   -2.0690 C.3    98  PHE98       0.1605
    105  C         16.5230   -4.3500   -3.4390 C.2    98  PHE98       0.2264
    106  O         16.6520   -3.1370   -3.6040 O.2    98  PHE98      -0.2867
    107  CB        17.4810   -5.4260   -1.3820 C.3    98  PHE98       0.0534
    108  CG        17.3150   -5.6850    0.0890 C.ar   98  PHE98      -0.0203
    109  CD1       17.5800   -4.6880    1.0140 C.ar   98  PHE98      -0.0042
    110  CD2       16.8910   -6.9220    0.5480 C.ar   98  PHE98      -0.0042
    111  CE1       17.4270   -4.9200    2.3690 C.ar   98  PHE98      -0.0003
    112  CE2       16.7350   -7.1590    1.9020 C.ar   98  PHE98      -0.0003
    113  CZ        17.0040   -6.1580    2.8130 C.ar   98  PHE98      -0.0000
    114  N         19.6810  -10.5180   12.5510 N.3   115  MET115     -0.1245
    115  CA        19.1720  -10.0390   11.2710 C.3   115  MET115      0.1570
    116  C         17.7610  -10.5400   10.9790 C.2   115  MET115      0.2261
    117  O         16.8960   -9.7720   10.5540 O.2   115  MET115     -0.2867
    118  CB        20.1070  -10.4620   10.1370 C.3   115  MET115      0.0387
    119  CG        19.5500  -10.1920    8.7500 C.3   115  MET115      0.0595
    120  SD        20.2350   -8.7110    7.9910 S.3   115  MET115     -0.1393
    121  CE        21.8410   -9.3070    7.4830 C.3   115  MET115      0.0692
    122  N         14.7030   -8.6090   12.2030 N.3   118  ILE118     -0.1231
    123  CA        14.3740   -7.4150   11.4370 C.3   118  ILE118      0.1692
    124  C         13.7750   -7.8000   10.0890 C.2   118  ILE118      0.2592
    125  O         12.8670   -7.1340    9.5890 O.2   118  ILE118     -0.2718
    126  CB        15.6110   -6.5240   11.2200 C.3   118  ILE118      0.0266
    127  CG1       16.3360   -6.2900   12.5470 C.3   118  ILE118      0.0019
    128  CG2       15.2120   -5.1990   10.5860 C.3   118  ILE118      0.0020
    129  CD1       17.5650   -5.4170   12.4280 C.3   118  ILE118      0.0001
    130  N         14.2900   -8.8810    9.5110 N.am  119  PHE119     -0.1976
    131  CA        13.7700   -9.4130    8.2560 C.3   119  PHE119      0.1639
    132  C         12.2870   -9.7500    8.3680 C.2   119  PHE119      0.2290
    133  O         11.4940   -9.3880    7.5000 O.2   119  PHE119     -0.2864
    134  CB        14.5600  -10.6540    7.8340 C.3   119  PHE119      0.0560
    135  CG        15.6370  -10.3750    6.8230 C.ar  119  PHE119     -0.0200
    136  CD1       15.8390  -11.2350    5.7550 C.ar  119  PHE119     -0.0042
    137  CD2       16.4380   -9.2510    6.9330 C.ar  119  PHE119     -0.0042
    138  CE1       16.8270  -10.9830    4.8210 C.ar  119  PHE119     -0.0003
    139  CE2       17.4250   -8.9930    6.0000 C.ar  119  PHE119     -0.0003
    140  CZ        17.6200   -9.8610    4.9440 C.ar  119  PHE119     -0.0000
    141  N         10.1730   -6.6310    8.5650 N.3   122  LEU122     -0.1245
    142  CA        10.0330   -6.0240    7.2470 C.3   122  LEU122      0.1561
    143  C          9.0350   -6.8020    6.3970 C.2   122  LEU122      0.2260
    144  O          8.2260   -6.2130    5.6810 O.2   122  LEU122     -0.2867
    145  CB        11.3910   -5.9520    6.5440 C.3   122  LEU122      0.0270
    146  CG        12.4050   -4.9830    7.1570 C.3   122  LEU122      0.0019
    147  CD1       13.8040   -5.2350    6.6120 C.3   122  LEU122      0.0001
    148  CD2       11.9840   -3.5420    6.9060 C.3   122  LEU122      0.0001
    149  N         17.3750   -1.5670   13.0050 N.3   203  GLY203     -0.1225
    150  CA        18.3190   -1.6600   11.9080 C.3   203  GLY203      0.1811
    151  C         19.5470   -0.8120   12.1660 C.2   203  GLY203      0.2280
    152  O         20.6530   -1.1660   11.7600 O.2   203  GLY203     -0.2866
    153  N         21.8540   -2.6160   14.3360 N.3   206  HIS206     -0.1226
    154  CA        22.4680   -3.6590   13.5270 C.3   206  HIS206      0.1752
    155  C         23.6140   -3.1030   12.6870 C.2   206  HIS206      0.2595
    156  O         24.6470   -3.7520   12.5240 O.2   206  HIS206     -0.2718
    157  CB        21.4170   -4.3140   12.6280 C.3   206  HIS206      0.0759
    158  CG        21.8650   -5.6010   12.0090 C.ar  206  HIS206      0.0818
    159  ND1       22.4050   -5.6700   10.7450 N.ar  206  HIS206     -0.2268
    160  CD2       21.8460   -6.8700   12.4820 C.ar  206  HIS206      0.1154
    161  CE1       22.7040   -6.9280   10.4640 C.ar  206  HIS206      0.1986
    162  NE2       22.3740   -7.6740   11.5010 N.ar  206  HIS206     -0.2212
    163  N         23.4250   -1.8970   12.1600 N.am  207  LEU207     -0.1980
    164  CA        24.4540   -1.2420   11.3600 C.3   207  LEU207      0.1596
    165  C         25.6090   -0.7770   12.2350 C.2   207  LEU207      0.2287
    166  O         26.7730   -0.8580   11.8400 O.2   207  LEU207     -0.2864
    167  CB        23.8690   -0.0570   10.5890 C.3   207  LEU207      0.0297
    168  CG        22.8470   -0.4020    9.5060 C.3   207  LEU207      0.0022
    169  CD1       22.4240    0.8430    8.7430 C.3   207  LEU207      0.0001
    170  CD2       23.4100   -1.4510    8.5620 C.3   207  LEU207      0.0001
    171  N         32.2560    0.8360    5.1060 N.3   218  LEU218     -0.1245
    172  CA        31.1800    1.8110    4.9960 C.3   218  LEU218      0.1561
    173  C         31.6500    3.0410    4.2330 C.2   218  LEU218      0.2260
    174  O         32.7930    3.4720    4.3810 O.2   218  LEU218     -0.2867
    175  CB        30.6740    2.2200    6.3810 C.3   218  LEU218      0.0270
    176  CG        29.6760    1.2900    7.0670 C.3   218  LEU218      0.0019
    177  CD1       29.4620    1.7190    8.5090 C.3   218  LEU218      0.0001
    178  CD2       28.3590    1.2860    6.3070 C.3   218  LEU218      0.0001
    179  N         27.5350    7.1660    4.4740 N.3   222  LEU222     -0.1245
    180  CA        26.8050    6.2480    5.3440 C.3   222  LEU222      0.1561
    181  C         27.2880    6.3350    6.7870 C.2   222  LEU222      0.2260
    182  O         26.4950    6.2100    7.7190 O.2   222  LEU222     -0.2867
    183  CB        26.9310    4.8110    4.8350 C.3   222  LEU222      0.0270
    184  CG        25.7910    4.3300    3.9380 C.3   222  LEU222      0.0019
    185  CD1       26.1300    2.9970    3.3000 C.3   222  LEU222      0.0001
    186  CD2       24.5020    4.2250    4.7400 C.3   222  LEU222      0.0001
@<TRIPOS>BOND
     1    98    97    1
     2    98    99    1
     3    30    29    1
     4    95    94    2
     5    97    96    1
     6    96    93    1
     7    99   100    2
     8   106   105    2
     9    93    94    1
    10    93    92    1
    11   105   104    1
    12    37    38    1
    13    42    43    1
    14    42    41    1
    15    29    31    1
    16    29    28    1
    17    38    39    1
    18    38    41    1
    19   100   101    1
    20   100   102    1
    21    25    28    1
    22    25    24    1
    23    25    26    1
    24    27    26    2
    25    45    43   ar
    26    40    39    2
    27    43    44   ar
    28   103   104    1
    29   104   107    1
    30    26    32   am
    31   107   108    1
    32    32    33    1
    33    87    86    2
    34    35    34    2
    35    34    33    1
    36   108   110   ar
    37   108   109   ar
    38    33    36    1
    39     9    10    1
    40   110   112   ar
    41    20    19    2
    42    85    84    1
    43    85    86    1
    44    85    88    1
    45    90    89    1
    46    19    18    1
    47   109   111   ar
    48    12    11    2
    49    10    11    1
    50    10    13    1
    51    75    73    1
    52    15    14    1
    53    11    17   am
    54    88    89    1
    55    17    18    1
    56    89    91    1
    57   112   113   ar
    58    18    21    1
    59    71    70    2
    60    14    13    1
    61    14    16    1
    62   111   113   ar
    63    73    74    1
    64    73    72    1
    65    21    23    1
    66    21    22    1
    67    69    70    1
    68    69    72    1
    69    69    68    1
    70    70    76   am
    71   185   184    1
    72     4     3    2
    73     3     2    1
    74    79    78    2
    75     1     2    1
    76   184   186    1
    77   184   183    1
    78    78    77    1
    79    76    77    1
    80   173   174    2
    81   173   172    1
    82     2     5    1
    83   179   180    1
    84    77    80    1
    85   138   140   ar
    86   138   136   ar
    87   183   180    1
    88   140   139   ar
    89   172   171    1
    90   172   175    1
    91    49    48    2
    92   180   181    1
    93   144   143    2
    94     5     6    1
    95   136   135   ar
    96    56    58   ar
    97    56    53   ar
    98    50    47    1
    99    50    51    1
   100   139   137   ar
   101    58    59   ar
   102    48    47    1
   103    48    60   am
   104    47    46    1
   105    80    81    1
   106   178   176    1
   107   175   176    1
   108   143   142    1
   109   145   146    1
   110   145   142    1
   111    63    62    2
   112   147   146    1
   113    81    82    1
   114   181   182    2
   115     7     6    1
   116     7     8    1
   117   135   137   ar
   118   135   134    1
   119    53    51   ar
   120    53    55   ar
   121   148   146    1
   122    51    52   ar
   123   176   177    1
   124    62    61    1
   125    66    65    1
   126    59    57   ar
   127    60    61    1
   128    61    64    1
   129   142   141    1
   130   121   120    1
   131   133   132    2
   132   134   131    1
   133   120   119    1
   134    55    57   ar
   135    55    54   ar
   136    52    54   ar
   137   131   132    1
   138   131   130    1
   139    65    64    1
   140    65    67    1
   141    82    83    1
   142   170   168    1
   143   169   168    1
   144   119   118    1
   145   168   167    1
   146   130   124   am
   147   125   124    2
   148   124   123    1
   149   118   115    1
   150   161   159   ar
   151   161   162   ar
   152   117   116    2
   153   128   126    1
   154   167   164    1
   155   159   158   ar
   156   116   115    1
   157   126   123    1
   158   126   127    1
   159   115   114    1
   160   164   163    1
   161   164   165    1
   162   123   122    1
   163   162   160   ar
   164   152   151    2
   165   166   165    2
   166   150   151    1
   167   150   149    1
   168   158   160   ar
   169   158   157    1
   170   163   155   am
   171   129   127    1
   172   156   155    2
   173   157   154    1
   174   155   154    1
   175   154   153    1
