@<TRIPOS>MOLECULE
tmp/5dzcA00.pdb
 174 163 0 0 0
SMALL
GASTEIGER

@<TRIPOS>ATOM
      1  N        -24.1620   75.5840   36.5550 N.3   533  ILE533     -0.1231
      2  CA       -25.4450   74.8550   36.6300 C.3   533  ILE533      0.1692
      3  C        -25.2860   73.3410   36.8080 C.2   533  ILE533      0.2593
      4  O        -26.2660   72.6130   36.7150 O.2   533  ILE533     -0.2718
      5  CB       -26.3590   75.1630   35.4170 C.3   533  ILE533      0.0266
      6  CG1      -25.6490   74.8750   34.0910 C.3   533  ILE533      0.0019
      7  CG2      -26.8060   76.6170   35.4580 C.3   533  ILE533      0.0020
      8  CD1      -26.5770   74.8790   32.8970 C.3   533  ILE533      0.0001
      9  N        -24.0680   72.8810   37.0940 N.am  534  GLY534     -0.1942
     10  CA       -23.7950   71.4590   37.3270 C.3   534  GLY534      0.2014
     11  C        -22.3320   71.1940   37.6370 C.2   534  GLY534      0.2639
     12  O        -21.4740   72.0260   37.3490 O.2   534  GLY534     -0.2714
     13  N        -22.0530   70.0340   38.2270 N.am  535  ARG535     -0.1963
     14  CA       -20.7080   69.6930   38.7330 C.3   535  ARG535      0.1729
     15  C        -20.5100   68.1770   38.7150 C.2   535  ARG535      0.2616
     16  O        -20.8490   67.4880   39.6810 O.2   535  ARG535     -0.2715
     17  CB       -20.5150   70.2050   40.1720 C.3   535  ARG535      0.0348
     18  CG       -20.3380   71.7060   40.3250 C.3   535  ARG535      0.0492
     19  CD       -20.0800   72.0710   41.7810 C.3   535  ARG535      0.2205
     20  NE       -20.0240   73.5220   41.9870 N.pl3 535  ARG535     -0.0865
     21  CZ       -18.9420   74.2920   41.8440 C.cat 535  ARG535      0.5346
     22  NH1      -17.7630   73.7830   41.4860 N.pl3 535  ARG535      0.1354
     23  NH2      -19.0410   75.6030   42.0610 N.pl3 535  ARG535      0.1354
     24  N        -19.9420   67.6620   37.6310 N.am  536  GLY536     -0.1955
     25  CA       -19.8730   66.2210   37.4110 C.3   536  GLY536      0.1869
     26  C        -18.7360   65.4660   38.0780 C.2   536  GLY536      0.2309
     27  O        -18.6880   64.2410   37.9700 O.2   536  GLY536     -0.2863
     28  N        -15.7740   64.9470   37.1140 N.3   538  PHE538     -0.1241
     29  CA       -14.9250   65.0580   35.9070 C.3   538  PHE538      0.1605
     30  C        -14.5580   66.5080   35.5550 C.2   538  PHE538      0.2264
     31  O        -13.4090   66.7980   35.2090 O.2   538  PHE538     -0.2867
     32  CB       -15.6060   64.3720   34.7030 C.3   538  PHE538      0.0534
     33  CG       -15.2590   62.9080   34.5580 C.ar  538  PHE538     -0.0203
     34  CD1      -15.2020   62.0610   35.6780 C.ar  538  PHE538     -0.0042
     35  CD2      -14.9820   62.3690   33.3010 C.ar  538  PHE538     -0.0042
     36  CE1      -14.8720   60.7180   35.5370 C.ar  538  PHE538     -0.0003
     37  CE2      -14.6550   61.0270   33.1580 C.ar  538  PHE538     -0.0003
     38  CZ       -14.6000   60.2000   34.2760 C.ar  538  PHE538     -0.0000
     39  N        -20.1040   72.2560   34.5480 N.3   541  VAL541     -0.1245
     40  CA       -21.1100   72.6250   33.5500 C.3   541  VAL541      0.1561
     41  C        -21.5620   74.0730   33.7630 C.2   541  VAL541      0.2260
     42  O        -22.4220   74.3560   34.5960 O.2   541  VAL541     -0.2867
     43  CB       -22.3290   71.6860   33.5760 C.3   541  VAL541      0.0252
     44  CG1      -23.3120   72.0810   32.4860 C.3   541  VAL541      0.0019
     45  CG2      -21.8970   70.2390   33.3870 C.3   541  VAL541      0.0019
     46  N        -25.3470   75.5730   27.2950 N.3   554  ALA554     -0.1245
     47  CA       -24.6040   74.8990   28.3530 C.3   554  ALA554      0.1562
     48  C        -23.2540   74.4950   27.7920 C.2   554  ALA554      0.2260
     49  O        -23.1630   74.0160   26.6610 O.2   554  ALA554     -0.2867
     50  CB       -25.3550   73.6760   28.8540 C.3   554  ALA554      0.0290
     51  N        -20.1780   72.0760   28.9310 N.3   556  LYS556     -0.1245
     52  CA       -19.5910   71.0700   29.8120 C.3   556  LYS556      0.1561
     53  C        -18.0770   71.0690   29.6240 C.2   556  LYS556      0.2260
     54  O        -17.5910   70.8410   28.5290 O.2   556  LYS556     -0.2867
     55  CB       -20.1630   69.6770   29.5190 C.3   556  LYS556      0.0271
     56  CG       -19.5860   68.5800   30.4040 C.3   556  LYS556      0.0035
     57  CD       -20.2920   67.2370   30.2810 C.3   556  LYS556      0.0206
     58  CE       -19.6670   66.2660   31.2780 C.3   556  LYS556      0.1093
     59  NZ       -20.3050   64.9240   31.3330 N.3   556  LYS556     -0.1314
     60  N        -30.4810   65.3480   24.1110 N.3   588  ILE588     -0.1245
     61  CA       -29.7600   66.6070   24.0910 C.3   588  ILE588      0.1561
     62  C        -29.0660   66.7790   22.7140 C.2   588  ILE588      0.2260
     63  O        -28.4910   65.8280   22.1690 O.2   588  ILE588     -0.2867
     64  CB       -28.7960   66.7140   25.3010 C.3   588  ILE588      0.0252
     65  CG1      -28.3140   68.1500   25.4950 C.3   588  ILE588      0.0019
     66  CG2      -27.6280   65.7400   25.2010 C.3   588  ILE588      0.0019
     67  CD1      -29.3320   69.0320   26.1780 C.3   588  ILE588      0.0001
     68  N        -23.6420   72.4600   24.2730 N.3   604  THR604     -0.1203
     69  CA       -24.9690   71.8920   24.0030 C.3   604  THR604      0.1994
     70  C        -26.0620   72.8850   24.3290 C.2   604  THR604      0.2618
     71  O        -25.8260   73.8280   25.0810 O.2   604  THR604     -0.2717
     72  CB       -25.2540   70.6790   24.8990 C.3   604  THR604      0.1784
     73  OG1      -25.3010   71.1200   26.2570 O.3   604  THR604     -0.2211
     74  CG2      -24.1970   69.5870   24.7420 C.3   604  THR604      0.0376
     75  N        -27.2690   72.6450   23.8120 N.am  605  GLU605     -0.1965
     76  CA       -28.4430   73.4490   24.1860 C.3   605  GLU605      0.1733
     77  C        -28.6040   73.4760   25.7170 C.2   605  GLU605      0.2616
     78  O        -28.2630   72.5150   26.3950 O.2   605  GLU605     -0.2715
     79  CB       -29.7410   72.9380   23.5260 C.3   605  GLU605      0.0429
     80  CG       -30.2290   71.5790   24.0310 C.3   605  GLU605      0.1163
     81  CD       -31.4130   71.0170   23.2600 C.2   605  GLU605      0.3649
     82  OE1      -32.2750   71.8180   22.8460 O.co2 605  GLU605     -0.2457
     83  OE2      -31.4960   69.7780   23.0940 O.co2 605  GLU605     -0.2457
     84  N        -29.1170   74.5950   26.2200 N.am  606  LEU606     -0.1963
     85  CA       -29.4120   74.7890   27.6240 C.3   606  LEU606      0.1728
     86  C        -30.7980   74.2510   27.9090 C.2   606  LEU606      0.2616
     87  O        -31.7340   74.5480   27.1830 O.2   606  LEU606     -0.2715
     88  CB       -29.3820   76.2750   27.9490 C.3   606  LEU606      0.0311
     89  CG       -29.7180   76.7060   29.3680 C.3   606  LEU606      0.0022
     90  CD1      -28.6950   76.1420   30.3390 C.3   606  LEU606      0.0001
     91  CD2      -29.7470   78.2260   29.4420 C.3   606  LEU606      0.0001
     92  N        -30.9300   73.4860   28.9890 N.am  607  VAL607     -0.1977
     93  CA       -32.2030   72.8830   29.3590 C.3   607  VAL607      0.1596
     94  C        -32.5640   73.4500   30.7150 C.2   607  VAL607      0.2287
     95  O        -31.7670   73.3560   31.6400 O.2   607  VAL607     -0.2864
     96  CB       -32.1130   71.3410   29.3600 C.3   607  VAL607      0.0276
     97  CG1      -33.5000   70.7360   29.4210 C.3   607  VAL607      0.0022
     98  CG2      -31.4170   70.8380   28.0980 C.3   607  VAL607      0.0022
     99  N        -33.7040   68.3980   36.5360 N.3   611  GLU611     -0.1245
    100  CA       -33.7450   66.9410   36.3830 C.3   611  GLU611      0.1567
    101  C        -35.1000   66.2990   36.6770 C.2   611  GLU611      0.2260
    102  O        -35.8930   66.8160   37.4730 O.2   611  GLU611     -0.2867
    103  CB       -32.7110   66.2790   37.2970 C.3   611  GLU611      0.0388
    104  CG       -31.2830   66.4930   36.8390 C.3   611  GLU611      0.1160
    105  CD       -30.2490   66.2210   37.9040 C.2   611  GLU611      0.3649
    106  OE1      -30.5460   65.5310   38.9070 O.co2 611  GLU611     -0.2457
    107  OE2      -29.1220   66.7220   37.7330 O.co2 611  GLU611     -0.2457
    108  N        -31.3350   56.4290   34.0730 N.3   652  LYS652     -0.1245
    109  CA       -31.8440   56.7270   35.4270 C.3   652  LYS652      0.1561
    110  C        -32.3950   58.1550   35.4580 C.2   652  LYS652      0.2260
    111  O        -31.9340   58.9940   34.6940 O.2   652  LYS652     -0.2867
    112  CB       -30.7260   56.5820   36.4450 C.3   652  LYS652      0.0271
    113  CG       -29.4840   57.3610   36.0840 C.3   652  LYS652      0.0035
    114  CD       -28.3980   57.2020   37.1240 C.3   652  LYS652      0.0206
    115  CE       -27.2150   58.1020   36.7910 C.3   652  LYS652      0.1093
    116  NZ       -26.0070   57.6460   37.5250 N.3   652  LYS652     -0.1314
    117  N        -31.7890   60.7920   36.9920 N.3   654  GLU654     -0.1231
    118  CA       -30.7700   61.8530   37.0410 C.3   654  GLU654      0.1699
    119  C        -30.2510   62.2280   35.6510 C.2   654  GLU654      0.2592
    120  O        -29.8700   63.3770   35.4190 O.2   654  GLU654     -0.2718
    121  CB       -29.5470   61.4440   37.8730 C.3   654  GLU654      0.0402
    122  CG       -29.8230   61.1270   39.3110 C.3   654  GLU654      0.1161
    123  CD       -29.8670   59.6400   39.5890 C.2   654  GLU654      0.3649
    124  OE1      -30.6710   58.9480   38.9290 O.co2 654  GLU654     -0.2457
    125  OE2      -29.1020   59.1790   40.4850 O.co2 654  GLU654     -0.2457
    126  N        -30.1960   61.2630   34.7460 N.am  655  ASN655     -0.1974
    127  CA       -29.6930   61.5320   33.4080 C.3   655  ASN655      0.1688
    128  C        -30.7360   62.0770   32.4080 C.2   655  ASN655      0.2292
    129  O        -30.4510   62.1780   31.2390 O.2   655  ASN655     -0.2864
    130  CB       -28.9330   60.3100   32.8710 C.3   655  ASN655      0.1181
    131  CG       -27.5750   60.1400   33.5300 C.2   655  ASN655      0.2629
    132  OD1      -27.0950   61.0320   34.2330 O.2   655  ASN655     -0.2716
    133  ND2      -26.9430   59.0030   33.2950 N.am  655  ASN655     -0.0877
    134  N        -33.1530   65.4920   31.8180 N.3   657  LEU657     -0.1245
    135  CA       -33.5980   66.8330   32.1580 C.3   657  LEU657      0.1561
    136  C        -34.9570   67.1550   31.5510 C.2   657  LEU657      0.2260
    137  O        -35.4380   66.4600   30.6570 O.2   657  LEU657     -0.2867
    138  CB       -32.5710   67.8430   31.6930 C.3   657  LEU657      0.0270
    139  CG       -31.1310   67.6440   32.1580 C.3   657  LEU657      0.0019
    140  CD1      -30.2930   68.8430   31.7450 C.3   657  LEU657      0.0001
    141  CD2      -31.0480   67.4650   33.6700 C.3   657  LEU657      0.0001
    142  N        -29.6150   63.1310   28.6410 N.3   667  ILE667     -0.1231
    143  CA       -28.2500   63.6790   28.6440 C.3   667  ILE667      0.1692
    144  C        -27.2370   62.5970   29.0490 C.2   667  ILE667      0.2592
    145  O        -27.6110   61.4490   29.2900 O.2   667  ILE667     -0.2718
    146  CB       -28.1340   64.9240   29.5610 C.3   667  ILE667      0.0266
    147  CG1      -28.5280   64.6020   31.0220 C.3   667  ILE667      0.0019
    148  CG2      -29.0310   66.0350   29.0500 C.3   667  ILE667      0.0020
    149  CD1      -27.9700   65.5540   32.0670 C.3   667  ILE667      0.0001
    150  N        -25.9560   62.9650   29.0750 N.am  668  ASP668     -0.1974
    151  CA       -24.8660   62.1290   29.6200 C.3   668  ASP668      0.1709
    152  C        -24.6660   60.7800   28.9350 C.2   668  ASP668      0.2293
    153  O        -25.1320   59.7310   29.4460 O.2   668  ASP668     -0.2864
    154  CB       -25.0200   61.9160   31.1400 C.3   668  ASP668      0.1436
    155  CG       -23.6960   61.4730   31.8230 C.2   668  ASP668      0.3671
    156  OD1      -22.6140   61.4500   31.1570 O.co2 668  ASP668     -0.2456
    157  OD2      -23.7340   61.1630   33.0460 O.co2 668  ASP668     -0.2456
    158  N        -31.9990   74.8370   38.0340 N.3   808  TYR808     -0.1227
    159  CA       -30.7820   74.0610   37.7980 C.3   808  TYR808      0.1736
    160  C        -30.4620   73.2220   39.0180 C.2   808  TYR808      0.2595
    161  O        -30.9910   73.4720   40.1110 O.2   808  TYR808     -0.2718
    162  CB       -29.6370   75.0010   37.4380 C.3   808  TYR808      0.0548
    163  CG       -29.9820   75.8450   36.2300 C.ar  808  TYR808     -0.0200
    164  CD1      -29.9380   75.2970   34.9490 C.ar  808  TYR808     -0.0009
    165  CD2      -30.4020   77.1750   36.3640 C.ar  808  TYR808     -0.0009
    166  CE1      -30.2750   76.0480   33.8370 C.ar  808  TYR808      0.0417
    167  CE2      -30.7440   77.9330   35.2500 C.ar  808  TYR808      0.0417
    168  CZ       -30.6740   77.3620   33.9880 C.ar  808  TYR808      0.1957
    169  OH       -31.0010   78.0810   32.8640 O.3   808  TYR808     -0.2866
    170  N        -29.5970   72.2270   38.8430 N.am  809  ALA809     -0.1980
    171  CA       -29.2350   71.3050   39.9340 C.3   809  ALA809      0.1597
    172  C        -28.2590   71.9430   40.9580 C.2   809  ALA809      0.2287
    173  O        -27.2380   71.3460   41.3030 O.2   809  ALA809     -0.2864
    174  CB       -28.6480   70.0260   39.3360 C.3   809  ALA809      0.0319
@<TRIPOS>BOND
     1    63    62    2
     2    62    61    1
     3    82    81   ar
     4    83    81   ar
     5    81    80    1
     6    79    80    1
     7    79    76    1
     8    75    76    1
     9    75    70   am
    10    69    68    1
    11    69    70    1
    12    69    72    1
    13    61    60    1
    14    61    64    1
    15    76    77    1
    16    70    71    2
    17    74    72    1
    18    72    73    1
    19    66    64    1
    20    64    65    1
    21    65    67    1
    22    77    84   am
    23    77    78    2
    24    84    85    1
    25    49    48    2
    26    87    86    2
    27    46    47    1
    28    85    86    1
    29    85    88    1
    30    48    47    1
    31    86    92   am
    32    88    89    1
    33    98    96    1
    34    47    50    1
    35    54    53    2
    36   142   143    1
    37   143   144    1
    38   143   146    1
    39    51    52    1
    40   152   153    2
    41   152   151    1
    42    92    93    1
    43   144   150   am
    44   144   145    2
    45   148   146    1
    46   150   151    1
    47    93    96    1
    48    93    94    1
    49    96    97    1
    50    89    91    1
    51    89    90    1
    52    55    52    1
    53    55    56    1
    54   146   147    1
    55   151   154    1
    56    53    52    1
    57    57    56    1
    58    57    58    1
    59   137   136    2
    60    94    95    2
    61   147   149    1
    62   154   155    1
    63   156   155   ar
    64   129   128    2
    65    58    59    1
    66   136   135    1
    67   138   139    1
    68   138   135    1
    69   140   139    1
    70   134   135    1
    71   155   157   ar
    72   139   141    1
    73   128   127    1
    74    44    43    1
    75   169   168    1
    76   130   127    1
    77   130   131    1
    78     8     6    1
    79    37    35   ar
    80    37    38   ar
    81   133   131   am
    82    35    33   ar
    83    45    43    1
    84   127   126    1
    85   131   132    2
    86    40    43    1
    87    40    41    1
    88    40    39    1
    89    41    42    2
    90   166   168   ar
    91   166   164   ar
    92   168   167   ar
    93   108   109    1
    94     6     5    1
    95    38    36   ar
    96    33    32    1
    97    33    34   ar
    98   111   110    2
    99    32    29    1
   100   126   119   am
   101   164   163   ar
   102    31    30    2
   103   167   165   ar
   104     5     7    1
   105     5     2    1
   106   120   119    2
   107   109   110    1
   108   109   112    1
   109    36    34   ar
   110    30    29    1
   111   119   118    1
   112    29    28    1
   113   113   112    1
   114   113   114    1
   115   163   165   ar
   116   163   162    1
   117   100    99    1
   118   100   101    1
   119   100   103    1
   120     1     2    1
   121     2     3    1
   122   101   102    2
   123     4     3    2
   124   115   114    1
   125   115   116    1
   126     3     9   am
   127   104   103    1
   128   104   105    1
   129   117   118    1
   130   118   121    1
   131     9    10    1
   132    10    11    1
   133    12    11    2
   134    25    24    1
   135    25    26    1
   136   162   159    1
   137    24    15   am
   138    11    13   am
   139   107   105   ar
   140   159   158    1
   141   159   160    1
   142   121   122    1
   143   105   106   ar
   144    27    26    2
   145    13    14    1
   146    15    14    1
   147    15    16    2
   148    14    17    1
   149   170   160   am
   150   170   171    1
   151   124   123   ar
   152   160   161    2
   153   122   123    1
   154   174   171    1
   155   123   125   ar
   156   171   172    1
   157    17    18    1
   158    18    19    1
   159   172   173    2
   160    22    21    1
   161    19    20    1
   162    21    20    2
   163    21    23    1
