@<TRIPOS>MOLECULE
tmp/5dzfA00.pdb
 117 108 0 0 0
SMALL
GASTEIGER

@<TRIPOS>ATOM
      1  N        -34.0580  -24.7670   26.2630 N.3    45  ARG45      -0.1245
      2  CA       -34.8360  -24.0090   25.2980 C.3    45  ARG45       0.1563
      3  C        -35.9780  -24.8750   24.8090 C.2    45  ARG45       0.2260
      4  O        -35.7460  -25.9950   24.3500 O.2    45  ARG45      -0.2867
      5  CB       -33.9650  -23.5750   24.1200 C.3    45  ARG45       0.0307
      6  CG       -34.7240  -22.8520   23.0090 C.3    45  ARG45       0.0489
      7  CD       -33.7200  -22.2690   22.0110 C.3    45  ARG45       0.2205
      8  NE       -33.2660  -23.2430   21.0120 N.pl3  45  ARG45      -0.0865
      9  CZ       -32.0150  -23.3420   20.5610 C.cat  45  ARG45       0.5346
     10  NH1      -31.0550  -22.5550   21.0420 N.pl3  45  ARG45       0.1354
     11  NH2      -31.7200  -24.2410   19.6280 N.pl3  45  ARG45       0.1354
     12  N        -30.4220  -14.2430   30.8330 N.3    72  ASN72      -0.1240
     13  CA       -31.4260  -13.7990   29.8830 C.3    72  ASN72       0.1653
     14  C        -32.5630  -14.8090   29.9480 C.2    72  ASN72       0.2266
     15  O        -32.3340  -15.9840   29.7160 O.2    72  ASN72      -0.2867
     16  CB       -30.8180  -13.7090   28.4610 C.3    72  ASN72       0.1155
     17  CG       -31.8300  -13.2950   27.3820 C.2    72  ASN72       0.2627
     18  OD1      -32.9460  -13.8240   27.3050 O.2    72  ASN72      -0.2716
     19  ND2      -31.4190  -12.3580   26.5170 N.am   72  ASN72      -0.0877
     20  N        -36.6140  -15.3230   28.4300 N.3    74  ASN74      -0.1240
     21  CA       -37.2820  -14.7490   27.2770 C.3    74  ASN74       0.1653
     22  C        -38.4870  -15.5280   26.7730 C.2    74  ASN74       0.2266
     23  O        -38.7750  -16.6340   27.2310 O.2    74  ASN74      -0.2867
     24  CB       -36.2560  -14.6220   26.1400 C.3    74  ASN74       0.1155
     25  CG       -35.5930  -15.9560   25.8180 C.2    74  ASN74       0.2627
     26  OD1      -36.2660  -16.8960   25.3980 O.2    74  ASN74      -0.2716
     27  ND2      -34.2790  -16.0500   26.0300 N.am   74  ASN74      -0.0877
     28  N        -39.9770  -15.6670   22.5330 N.3    76  TYR76      -0.1241
     29  CA       -39.7610  -15.0200   21.2480 C.3    76  TYR76       0.1605
     30  C        -40.1840  -15.8940   20.0710 C.2    76  TYR76       0.2264
     31  O        -40.3830  -17.1020   20.2030 O.2    76  TYR76      -0.2867
     32  CB       -38.2810  -14.5990   21.1110 C.3    76  TYR76       0.0534
     33  CG       -37.2760  -15.7290   21.0240 C.ar   76  TYR76      -0.0201
     34  CD1      -36.8170  -16.3910   22.1640 C.ar   76  TYR76      -0.0009
     35  CD2      -36.7610  -16.1170   19.7940 C.ar   76  TYR76      -0.0009
     36  CE1      -35.8840  -17.4180   22.0690 C.ar   76  TYR76       0.0417
     37  CE2      -35.8400  -17.1330   19.6880 C.ar   76  TYR76       0.0417
     38  CZ       -35.3980  -17.7840   20.8140 C.ar   76  TYR76       0.1957
     39  OH       -34.4770  -18.8000   20.6560 O.3    76  TYR76      -0.2866
     40  N        -38.9810  -16.9800   16.1970 N.3    78  SER78      -0.1217
     41  CA       -37.8560  -16.9940   15.2690 C.3    78  SER78       0.1889
     42  C        -38.1270  -17.9750   14.1380 C.2    78  SER78       0.2288
     43  O        -38.7110  -19.0390   14.3630 O.2    78  SER78      -0.2866
     44  CB       -36.5520  -17.3560   15.9820 C.3    78  SER78       0.2089
     45  OG       -35.4920  -17.4880   15.0410 O.3    78  SER78      -0.2183
     46  N        -33.8740  -20.7420   15.1750 N.3    81  GLU81      -0.1245
     47  CA       -32.8220  -20.3310   16.0980 C.3    81  GLU81       0.1567
     48  C        -31.4500  -20.7670   15.5810 C.2    81  GLU81       0.2260
     49  O        -31.2320  -21.9400   15.2830 O.2    81  GLU81      -0.2867
     50  CB       -33.0660  -20.9040   17.4970 C.3    81  GLU81       0.0388
     51  CG       -32.0560  -20.4150   18.5240 C.3    81  GLU81       0.1160
     52  CD       -31.9150  -18.8980   18.5080 C.2    81  GLU81       0.3649
     53  OE1      -32.9460  -18.1980   18.5140 O.co2  81  GLU81      -0.2457
     54  OE2      -30.7690  -18.4010   18.4770 O.co2  81  GLU81      -0.2457
     55  N        -32.2410  -15.0290   10.0150 N.3    86  GLN86      -0.1245
     56  CA       -33.5440  -15.2680   10.6200 C.3    86  GLN86       0.1566
     57  C        -34.4270  -14.0200   10.6880 C.2    86  GLN86       0.2260
     58  O        -33.9380  -12.8900   10.7250 O.2    86  GLN86      -0.2867
     59  CB       -33.3700  -15.8410   12.0330 C.3    86  GLN86       0.0367
     60  CG       -33.2460  -14.7850   13.1270 C.3    86  GLN86       0.0905
     61  CD       -31.8840  -14.1100   13.1680 C.2    86  GLN86       0.2608
     62  OE1      -31.0620  -14.2700   12.2640 O.2    86  GLN86      -0.2717
     63  NE2      -31.6360  -13.3570   14.2320 N.am   86  GLN86      -0.0878
     64  N        -37.2440  -12.5650   13.4020 N.3    88  ALA88      -0.1245
     65  CA       -37.5400  -12.8350   14.8070 C.3    88  ALA88       0.1562
     66  C        -38.2130  -11.6580   15.5000 C.2    88  ALA88       0.2260
     67  O        -38.1020  -10.5260   15.0480 O.2    88  ALA88      -0.2867
     68  CB       -36.2730  -13.2090   15.5410 C.3    88  ALA88       0.0290
     69  N        -38.8360  -10.4580   19.7090 N.3    90  ASP90      -0.1239
     70  CA       -38.3690  -10.8140   21.0610 C.3    90  ASP90       0.1674
     71  C        -39.0260  -10.0980   22.2360 C.2    90  ASP90       0.2266
     72  O        -39.2580   -8.8840   22.1790 O.2    90  ASP90      -0.2867
     73  CB       -36.8650  -10.5270   21.1980 C.3    90  ASP90       0.1410
     74  CG       -36.0180  -11.2600   20.1860 C.2    90  ASP90       0.3668
     75  OD1      -36.0760  -12.5030   20.1300 O.co2  90  ASP90      -0.2456
     76  OD2      -35.2550  -10.5930   19.4630 O.co2  90  ASP90      -0.2456
     77  N        -37.1210  -10.0580   25.8210 N.3    92  GLU92      -0.1245
     78  CA       -35.9700  -10.5610   26.5750 C.3    92  GLU92       0.1567
     79  C        -35.8230   -9.8190   27.8980 C.2    92  GLU92       0.2260
     80  O        -35.6700   -8.5950   27.9220 O.2    92  GLU92      -0.2867
     81  CB       -34.6740  -10.4440   25.7570 C.3    92  GLU92       0.0388
     82  CG       -34.6110  -11.4040   24.5530 C.3    92  GLU92       0.1160
     83  CD       -33.4850  -11.0630   23.5950 C.2    92  GLU92       0.3649
     84  OE1      -33.6800  -10.1690   22.7340 O.co2  92  GLU92      -0.2457
     85  OE2      -32.4050  -11.6860   23.7040 O.co2  92  GLU92      -0.2457
     86  N        -35.9510   -8.9130   14.3390 N.3   106  TYR106     -0.1241
     87  CA       -34.9260   -9.1820   13.3440 C.3   106  TYR106      0.1605
     88  C        -35.5410   -9.3870   11.9840 C.2   106  TYR106      0.2264
     89  O        -36.6100   -9.9980   11.8610 O.2   106  TYR106     -0.2867
     90  CB       -34.1090  -10.4240   13.7110 C.3   106  TYR106      0.0534
     91  CG       -33.2510  -10.2650   14.9460 C.ar  106  TYR106     -0.0201
     92  CD1      -33.8190  -10.2750   16.2160 C.ar  106  TYR106     -0.0009
     93  CD2      -31.8730  -10.1110   14.8430 C.ar  106  TYR106     -0.0009
     94  CE1      -33.0370  -10.1350   17.3480 C.ar  106  TYR106      0.0417
     95  CE2      -31.0780   -9.9710   15.9750 C.ar  106  TYR106      0.0417
     96  CZ       -31.6710   -9.9790   17.2240 C.ar  106  TYR106      0.1957
     97  OH       -30.9050   -9.8380   18.3540 O.3   106  TYR106     -0.2866
     98  N        -36.1500  -19.6000   26.0880 N.3   168  SER168     -0.1217
     99  CA       -34.9370  -20.1630   26.6740 C.3   168  SER168      0.1889
    100  C        -34.5130  -19.3780   27.8970 C.2   168  SER168      0.2288
    101  O        -35.0370  -18.2990   28.1730 O.2   168  SER168     -0.2866
    102  CB       -33.7880  -20.1780   25.6670 C.3   168  SER168      0.2089
    103  OG       -33.3470  -18.8550   25.3890 O.3   168  SER168     -0.2183
    104  N        -30.6010  -18.3830   29.3610 N.3   170  TRP170     -0.1241
    105  CA       -29.1760  -18.5270   29.1070 C.3   170  TRP170      0.1605
    106  C        -28.3670  -17.4590   29.8170 C.2   170  TRP170      0.2264
    107  O        -28.9110  -16.4610   30.2880 O.2   170  TRP170     -0.2867
    108  CB       -28.8830  -18.5050   27.5980 C.3   170  TRP170      0.0550
    109  CG       -29.3320  -17.2830   26.8040 C.ar  170  TRP170      0.0003
    110  CD1      -30.6190  -16.9310   26.4860 C.ar  170  TRP170      0.0946
    111  CD2      -28.4850  -16.3140   26.1620 C.ar  170  TRP170      0.0152
    112  NE1      -30.6240  -15.7860   25.7130 N.ar  170  TRP170     -0.2442
    113  CE2      -29.3260  -15.3890   25.5040 C.ar  170  TRP170      0.0810
    114  CE3      -27.0970  -16.1290   26.0930 C.ar  170  TRP170      0.0012
    115  CZ2      -28.8240  -14.3020   24.7770 C.ar  170  TRP170      0.0191
    116  CZ3      -26.6030  -15.0460   25.3680 C.ar  170  TRP170      0.0001
    117  CH2      -27.4690  -14.1460   24.7290 C.ar  170  TRP170      0.0015
@<TRIPOS>BOND
     1    55    56    1
     2    56    57    1
     3    56    59    1
     4    57    58    2
     5    89    88    2
     6    88    87    1
     7    59    60    1
     8    62    61    2
     9    60    61    1
    10    61    63   am
    11    87    90    1
    12    87    86    1
    13    64    65    1
    14    90    91    1
    15    42    43    2
    16    42    41    1
    17    65    66    1
    18    65    68    1
    19    93    91   ar
    20    93    95   ar
    21    91    92   ar
    22    45    44    1
    23    67    66    2
    24    46    47    1
    25    41    44    1
    26    41    40    1
    27    49    48    2
    28    48    47    1
    29    95    96   ar
    30    47    50    1
    31    92    94   ar
    32    96    94   ar
    33    96    97    1
    34    50    51    1
    35    54    52   ar
    36    52    53   ar
    37    52    51    1
    38    76    74   ar
    39    11     9    1
    40    37    35   ar
    41    37    38   ar
    42    69    70    1
    43    35    33   ar
    44    30    31    2
    45    30    29    1
    46    75    74   ar
    47    74    73    1
    48     9     8    2
    49     9    10    1
    50    39    38    1
    51    38    36   ar
    52     8     7    1
    53    33    32    1
    54    33    34   ar
    55    70    73    1
    56    70    71    1
    57    32    29    1
    58    29    28    1
    59     7     6    1
    60    36    34   ar
    61    72    71    2
    62    84    83   ar
    63     6     5    1
    64    83    85   ar
    65    83    82    1
    66     5     2    1
    67     4     3    2
    68    82    81    1
    69   117   115   ar
    70   117   116   ar
    71   115   113   ar
    72     3     2    1
    73     2     1    1
    74   116   114   ar
    75   103   102    1
    76    26    25    2
    77   113   112   ar
    78   113   111   ar
    79   102    99    1
    80   112   110   ar
    81    81    78    1
    82    25    27   am
    83    25    24    1
    84    77    78    1
    85    98    99    1
    86   114   111   ar
    87    24    21    1
    88   111   109   ar
    89   110   109   ar
    90    19    17   am
    91    78    79    1
    92    99   100    1
    93    22    23    2
    94    22    21    1
    95   109   108    1
    96    21    20    1
    97    18    17    2
    98    17    16    1
    99   108   105    1
   100   100   101    2
   101    79    80    2
   102    16    13    1
   103   105   104    1
   104   105   106    1
   105    15    14    2
   106   106   107    2
   107    13    14    1
   108    13    12    1
