@<TRIPOS>MOLECULE
tmp/5dzjB00.pdb
 177 172 0 0 0
SMALL
GASTEIGER

@<TRIPOS>ATOM
      1  N        -18.6010  -16.4010  166.4150 N.3   228  THR228     -0.1204
      2  CA       -18.5160  -15.4070  167.4850 C.3   228  THR228      0.1979
      3  C        -19.5890  -14.3410  167.2500 C.2   228  THR228      0.2460
      4  O        -19.2770  -13.1770  166.9660 O.2   228  THR228     -0.2732
      5  CB       -17.1100  -14.7480  167.5600 C.3   228  THR228      0.1783
      6  OG1      -16.7970  -14.0940  166.3220 O.3   228  THR228     -0.2211
      7  CG2      -16.0220  -15.7900  167.8710 C.3   228  THR228      0.0376
      8  N        -20.8620  -14.7460  167.3410 N.am  229  PRO229     -0.2717
      9  CA       -21.9590  -13.8700  166.9250 C.3   229  PRO229      0.1536
     10  C        -22.2220  -12.7450  167.9170 C.2   229  PRO229      0.2599
     11  O        -21.8950  -12.8660  169.1000 O.2   229  PRO229     -0.2715
     12  CB       -23.1510  -14.8220  166.8600 C.3   229  PRO229      0.0310
     13  CG       -22.8580  -15.8330  167.9280 C.3   229  PRO229      0.0237
     14  CD       -21.3530  -15.9910  167.9590 C.3   229  PRO229      0.0939
     15  N        -22.7890  -11.6520  167.4210 N.am  230  THR230     -0.1937
     16  CA       -23.3110  -10.5970  168.2710 C.3   230  THR230      0.2028
     17  C        -24.6490  -11.0690  168.8340 C.2   230  THR230      0.2642
     18  O        -25.5270  -11.4960  168.0740 O.2   230  THR230     -0.2714
     19  CB       -23.4820   -9.2880  167.4820 C.3   230  THR230      0.1808
     20  OG1      -22.2210   -8.9100  166.9050 O.3   230  THR230     -0.2208
     21  CG2      -24.0140   -8.1670  168.3710 C.3   230  THR230      0.0379
     22  N        -24.7890  -11.0230  170.1580 N.am  231  ALA231     -0.1977
     23  CA       -26.0320  -11.3880  170.8340 C.3   231  ALA231      0.1597
     24  C        -27.1630  -10.4110  170.5310 C.2   231  ALA231      0.2287
     25  O        -26.9560   -9.1930  170.5120 O.2   231  ALA231     -0.2864
     26  CB       -25.8140  -11.4630  172.3420 C.3   231  ALA231      0.0319
     27  N        -29.0510   -3.1850  174.3550 N.3   235  TYR235     -0.1241
     28  CA       -27.7910   -2.7430  174.9590 C.3   235  TYR235      0.1605
     29  C        -27.8950   -1.2980  175.4180 C.2   235  TYR235      0.2264
     30  O        -28.4810   -0.4650  174.7190 O.2   235  TYR235     -0.2867
     31  CB       -26.6310   -2.8340  173.9640 C.3   235  TYR235      0.0534
     32  CG       -26.2730   -4.2070  173.4590 C.ar  235  TYR235     -0.0201
     33  CD1      -27.1360   -4.9140  172.6230 C.ar  235  TYR235     -0.0009
     34  CD2      -25.0450   -4.7780  173.7700 C.ar  235  TYR235     -0.0009
     35  CE1      -26.8000   -6.1590  172.1470 C.ar  235  TYR235      0.0417
     36  CE2      -24.7000   -6.0270  173.2990 C.ar  235  TYR235      0.0417
     37  CZ       -25.5820   -6.7140  172.4850 C.ar  235  TYR235      0.1957
     38  OH       -25.2430   -7.9560  172.0020 O.3   235  TYR235     -0.2866
     39  N         -8.4300   -2.4490  172.6130 N.3   246  MET246     -0.1245
     40  CA        -9.3750   -3.4590  173.0440 C.3   246  MET246      0.1570
     41  C         -8.6540   -4.7770  173.2980 C.2   246  MET246      0.2261
     42  O         -8.0270   -5.3480  172.4120 O.2   246  MET246     -0.2867
     43  CB       -10.5010   -3.6070  172.0240 C.3   246  MET246      0.0387
     44  CG       -11.4260   -2.3920  172.0400 C.3   246  MET246      0.0595
     45  SD       -12.9940   -2.6100  171.1860 S.3   246  MET246     -0.1393
     46  CE       -12.4470   -3.0730  169.5530 C.3   246  MET246      0.0692
     47  N         -9.0290   -8.5560  174.7350 N.3   248  SER248     -0.1217
     48  CA       -10.0030   -9.6220  174.9620 C.3   248  SER248      0.1889
     49  C         -9.8920  -10.2080  176.3620 C.2   248  SER248      0.2288
     50  O        -10.8660  -10.7530  176.8860 O.2   248  SER248     -0.2866
     51  CB        -9.8470  -10.7400  173.9260 C.3   248  SER248      0.2089
     52  OG        -8.5990  -11.4050  174.0500 O.3   248  SER248     -0.2183
     53  N        -12.3470   -9.0910  179.0150 N.3   251  TYR251     -0.1241
     54  CA       -13.7130   -9.6180  179.0060 C.3   251  TYR251      0.1605
     55  C        -13.7700  -11.1310  179.1740 C.2   251  TYR251      0.2264
     56  O        -14.8320  -11.7310  179.0330 O.2   251  TYR251     -0.2867
     57  CB       -14.4170   -9.1960  177.7130 C.3   251  TYR251      0.0534
     58  CG       -14.1870   -7.7350  177.4150 C.ar  251  TYR251     -0.0201
     59  CD1      -14.7710   -6.7510  178.2000 C.ar  251  TYR251     -0.0009
     60  CD2      -13.3580   -7.3380  176.3700 C.ar  251  TYR251     -0.0009
     61  CE1      -14.5470   -5.4090  177.9480 C.ar  251  TYR251      0.0417
     62  CE2      -13.1320   -6.0050  176.1060 C.ar  251  TYR251      0.0417
     63  CZ       -13.7250   -5.0420  176.8970 C.ar  251  TYR251      0.1957
     64  OH       -13.4930   -3.7080  176.6410 O.3   251  TYR251     -0.2866
     65  N        -11.5460  -13.5390  177.6590 N.3   253  VAL253     -0.1245
     66  CA       -10.8680  -14.3300  176.6360 C.3   253  VAL253      0.1561
     67  C         -9.3600  -14.0400  176.5750 C.2   253  VAL253      0.2260
     68  O         -8.9570  -12.9200  176.2580 O.2   253  VAL253     -0.2867
     69  CB       -11.4900  -14.0640  175.2520 C.3   253  VAL253      0.0252
     70  CG1      -10.9780  -15.0550  174.2330 C.3   253  VAL253      0.0019
     71  CG2      -13.0140  -14.1060  175.3430 C.3   253  VAL253      0.0019
     72  N         -7.7510  -11.4540  171.1070 N.3   261  TYR261     -0.1241
     73  CA        -7.3530  -10.3100  170.2980 C.3   261  TYR261      0.1605
     74  C         -6.8310   -9.1930  171.1870 C.2   261  TYR261      0.2264
     75  O         -7.1700   -9.0900  172.3730 O.2   261  TYR261     -0.2867
     76  CB        -8.5270   -9.7810  169.4650 C.3   261  TYR261      0.0534
     77  CG        -9.7500   -9.5350  170.3120 C.ar  261  TYR261     -0.0201
     78  CD1       -9.8890   -8.3570  171.0330 C.ar  261  TYR261     -0.0009
     79  CD2      -10.7480  -10.4960  170.4230 C.ar  261  TYR261     -0.0009
     80  CE1      -10.9890   -8.1330  171.8350 C.ar  261  TYR261      0.0417
     81  CE2      -11.8610  -10.2850  171.2120 C.ar  261  TYR261      0.0417
     82  CZ       -11.9770   -9.0990  171.9200 C.ar  261  TYR261      0.1957
     83  OH       -13.0760   -8.8670  172.7190 O.3   261  TYR261     -0.2866
     84  N         -6.2790   -5.0660  170.0640 N.3   263  THR263     -0.1218
     85  CA        -6.3910   -4.2120  168.8930 C.3   263  THR263      0.1862
     86  C         -6.6340   -2.7690  169.2810 C.2   263  THR263      0.2287
     87  O         -7.5640   -2.4710  170.0330 O.2   263  THR263     -0.2866
     88  CB        -7.5420   -4.6690  167.9810 C.3   263  THR263      0.1770
     89  OG1       -7.4680   -6.0870  167.7910 O.3   263  THR263     -0.2211
     90  CG2       -7.4740   -3.9630  166.6300 C.3   263  THR263      0.0375
     91  N        -19.5840   -7.1900  178.4620 N.3   274  SER274     -0.1202
     92  CA       -18.9940   -8.3540  177.8110 C.3   274  SER274      0.2020
     93  C        -18.0300   -7.9430  176.6940 C.2   274  SER274      0.2619
     94  O        -17.3540   -8.7890  176.1100 O.2   274  SER274     -0.2717
     95  CB       -20.0820   -9.2760  177.2580 C.3   274  SER274      0.2103
     96  OG       -20.8140   -8.6410  176.2300 O.3   274  SER274     -0.2182
     97  N        -17.9750   -6.6450  176.3980 N.am  275  GLY275     -0.1942
     98  CA       -16.9960   -6.1190  175.4640 C.3   275  GLY275      0.2014
     99  C        -17.4760   -5.7960  174.0570 C.2   275  GLY275      0.2639
    100  O        -16.6540   -5.6390  173.1440 O.2   275  GLY275     -0.2714
    101  N        -18.7880   -5.7020  173.8600 N.am  276  VAL276     -0.1963
    102  CA       -19.3050   -5.2470  172.5700 C.3   276  VAL276      0.1727
    103  C        -19.1780   -3.7230  172.4580 C.2   276  VAL276      0.2616
    104  O        -19.6020   -2.9730  173.3510 O.2   276  VAL276     -0.2715
    105  CB       -20.7700   -5.6690  172.3530 C.3   276  VAL276      0.0290
    106  CG1      -21.2960   -5.1370  171.0190 C.3   276  VAL276      0.0023
    107  CG2      -20.8800   -7.1840  172.3850 C.3   276  VAL276      0.0023
    108  N        -18.5490   -3.2850  171.3750 N.am  277  PHE277     -0.1974
    109  CA       -18.3950   -1.8730  171.0680 C.3   277  PHE277      0.1639
    110  C        -18.9750   -1.5660  169.6950 C.2   277  PHE277      0.2290
    111  O        -19.0440   -2.4440  168.8360 O.2   277  PHE277     -0.2864
    112  CB       -16.9180   -1.4590  171.0770 C.3   277  PHE277      0.0560
    113  CG       -16.2810   -1.4280  172.4440 C.ar  277  PHE277     -0.0200
    114  CD1      -15.9570   -2.6030  173.1020 C.ar  277  PHE277     -0.0042
    115  CD2      -15.9440   -0.2180  173.0370 C.ar  277  PHE277     -0.0042
    116  CE1      -15.3390   -2.5710  174.3500 C.ar  277  PHE277     -0.0003
    117  CE2      -15.3230   -0.1770  174.2860 C.ar  277  PHE277     -0.0003
    118  CZ       -15.0260   -1.3590  174.9400 C.ar  277  PHE277     -0.0000
    119  N        -17.5040    0.6620  166.8420 N.3   279  HIS279     -0.1241
    120  CA       -16.2190    1.3260  166.6190 C.3   279  HIS279      0.1621
    121  C        -15.7960    1.3830  165.1600 C.2   279  HIS279      0.2264
    122  O        -16.3460    0.6710  164.3020 O.2   279  HIS279     -0.2867
    123  CB       -15.1130    0.6270  167.4290 C.3   279  HIS279      0.0745
    124  CG       -14.7690   -0.7370  166.9190 C.ar  279  HIS279      0.0817
    125  ND1      -13.9100   -0.9410  165.8610 N.ar  279  HIS279     -0.2268
    126  CD2      -15.1820   -1.9640  167.3110 C.ar  279  HIS279      0.1154
    127  CE1      -13.8080   -2.2360  165.6240 C.ar  279  HIS279      0.1986
    128  NE2      -14.5690   -2.8800  166.4920 N.ar  279  HIS279     -0.2212
    129  N        -16.6500   -9.8920  162.5680 N.3   294  SER294     -0.1202
    130  CA       -16.0150   -9.4450  163.8050 C.3   294  SER294      0.2020
    131  C        -16.0950  -10.5020  164.9110 C.2   294  SER294      0.2619
    132  O        -16.6490  -11.5870  164.7080 O.2   294  SER294     -0.2717
    133  CB       -16.6520   -8.1340  164.2820 C.3   294  SER294      0.2103
    134  OG       -17.8940   -8.3690  164.9290 O.3   294  SER294     -0.2182
    135  N        -15.5370  -10.1650  166.0740 N.am  295  HIS295     -0.1961
    136  CA       -15.6410  -10.9980  167.2720 C.3   295  HIS295      0.1787
    137  C        -16.9510  -10.7420  168.0430 C.2   295  HIS295      0.2621
    138  O        -17.2190  -11.3730  169.0580 O.2   295  HIS295     -0.2715
    139  CB       -14.4400  -10.7520  168.1930 C.3   295  HIS295      0.0785
    140  CG       -13.1570  -11.3330  167.6840 C.ar  295  HIS295      0.0821
    141  ND1      -12.2630  -10.6100  166.9230 N.ar  295  HIS295     -0.2267
    142  CD2      -12.6140  -12.5660  167.8340 C.ar  295  HIS295      0.1154
    143  CE1      -11.2280  -11.3730  166.6210 C.ar  295  HIS295      0.1986
    144  NE2      -11.4160  -12.5650  167.1610 N.ar  295  HIS295     -0.2212
    145  N        -17.7590   -9.8060  167.5610 N.am  296  GLY296     -0.1940
    146  CA       -19.0480   -9.5350  168.1680 C.3   296  GLY296      0.2014
    147  C        -19.3620   -8.0530  168.1410 C.2   296  GLY296      0.2639
    148  O        -20.5030   -7.6560  168.3400 O.2   296  GLY296     -0.2714
    149  N        -18.3500   -7.2330  167.8740 N.am  297  CYS297     -0.1967
    150  CA       -18.5290   -5.7870  167.8360 C.3   297  CYS297      0.1712
    151  C        -19.3670   -5.4000  166.6460 C.2   297  CYS297      0.2296
    152  O        -19.5100   -6.1690  165.6840 O.2   297  CYS297     -0.2864
    153  CB       -17.1930   -5.0460  167.7600 C.3   297  CYS297      0.0983
    154  SG       -16.1540   -5.2050  169.2120 S.3   297  CYS297     -0.0798
    155  N        -28.4480  -11.1250  174.8820 N.3   328  LEU328     -0.1231
    156  CA       -27.5020  -10.5490  175.8390 C.3   328  LEU328      0.1678
    157  C        -27.9970  -10.7430  177.2740 C.2   328  LEU328      0.2434
    158  O        -29.1420  -10.4210  177.5710 O.2   328  LEU328     -0.2733
    159  CB       -27.3000   -9.0550  175.5410 C.3   328  LEU328      0.0284
    160  CG       -26.3730   -8.2410  176.4490 C.3   328  LEU328      0.0019
    161  CD1      -24.9020   -8.6050  176.1780 C.3   328  LEU328      0.0001
    162  CD2      -26.6120   -6.7430  176.2530 C.3   328  LEU328      0.0001
    163  N        -27.1370  -11.2700  178.1670 N.am  329  PRO329     -0.2729
    164  CA       -27.5230  -11.5230  179.5660 C.3   329  PRO329      0.1401
    165  C        -28.1060  -10.3010  180.2590 C.2   329  PRO329      0.2269
    166  O        -27.5950   -9.1840  180.0940 O.2   329  PRO329     -0.2865
    167  CB       -26.1930  -11.9400  180.2280 C.3   329  PRO329      0.0296
    168  CG       -25.4270  -12.6060  179.0900 C.3   329  PRO329      0.0237
    169  CD       -25.7730  -11.7550  177.8730 C.3   329  PRO329      0.0939
    170  N        -25.4880   -8.5240  182.4090 N.3   332  ASP332     -0.1239
    171  CA       -24.2400   -8.0980  181.7750 C.3   332  ASP332      0.1674
    172  C        -23.6090   -6.9210  182.5030 C.2   332  ASP332      0.2266
    173  O        -22.3950   -6.8770  182.6870 O.2   332  ASP332     -0.2867
    174  CB       -24.4810   -7.6850  180.3150 C.3   332  ASP332      0.1410
    175  CG       -23.2940   -6.9150  179.7140 C.2   332  ASP332      0.3668
    176  OD1      -23.2400   -5.6640  179.8500 O.co2 332  ASP332     -0.2456
    177  OD2      -22.4170   -7.5670  179.0980 O.co2 332  ASP332     -0.2456
@<TRIPOS>BOND
     1   129   130    1
     2   130   133    1
     3   130   131    1
     4   133   134    1
     5   122   121    2
     6   132   131    2
     7   131   135   am
     8   121   120    1
     9   127   125   ar
    10   127   128   ar
    11   152   151    2
    12   125   124   ar
    13   135   136    1
    14     6     5    1
    15     1     2    1
    16   128   126   ar
    17   120   119    1
    18   120   123    1
    19   143   141   ar
    20   143   144   ar
    21    90    88    1
    22   151   150    1
    23    12     9    1
    24    12    13    1
    25    20    19    1
    26   124   126   ar
    27   124   123    1
    28   141   140   ar
    29     9     8    1
    30     9    10    1
    31     4     3    2
    32   144   142   ar
    33     3     8   am
    34     3     2    1
    35   136   137    1
    36   136   139    1
    37     8    14    1
    38    15    10   am
    39    15    16    1
    40    19    16    1
    41    19    21    1
    42     2     5    1
    43     5     7    1
    44   145   137   am
    45   145   146    1
    46   140   142   ar
    47   140   139    1
    48   153   150    1
    49   153   154    1
    50    89    88    1
    51   150   149    1
    52   149   147   am
    53    10    11    2
    54    13    14    1
    55    88    85    1
    56   137   138    2
    57    18    17    2
    58   147   146    1
    59   147   148    2
    60    16    17    1
    61    17    22   am
    62   111   110    2
    63    85    86    1
    64    85    84    1
    65    86    87    2
    66    76    73    1
    67    76    77    1
    68    46    45    1
    69   110   109    1
    70    22    23    1
    71    73    72    1
    72    73    74    1
    73    77    79   ar
    74    77    78   ar
    75    79    81   ar
    76    25    24    2
    77    24    23    1
    78    23    26    1
    79   106   105    1
    80    78    80   ar
    81   109   112    1
    82   109   108    1
    83   112   113    1
    84    45    44    1
    85    74    75    2
    86    81    82   ar
    87   108   103   am
    88    80    82   ar
    89    82    83    1
    90    38    37    1
    91    43    44    1
    92    43    40    1
    93    35    37   ar
    94    35    33   ar
    95   105   107    1
    96   105   102    1
    97    42    41    2
    98   113   115   ar
    99   113   114   ar
   100   103   102    1
   101   103   104    2
   102    37    36   ar
   103   102   101    1
   104    39    40    1
   105    33    32   ar
   106   115   117   ar
   107    40    41    1
   108   114   116   ar
   109   100    99    2
   110    36    34   ar
   111    32    34   ar
   112    32    31    1
   113   101    99   am
   114    51    52    1
   115    51    48    1
   116    31    28    1
   117    99    98    1
   118    70    69    1
   119   117   118   ar
   120   116   118   ar
   121    27    28    1
   122    30    29    2
   123    47    48    1
   124   155   156    1
   125    28    29    1
   126    48    49    1
   127    69    71    1
   128    69    66    1
   129    98    97    1
   130   159   156    1
   131   159   160    1
   132   156   157    1
   133    62    60   ar
   134    62    63   ar
   135    94    93    2
   136   161   160    1
   137    96    95    1
   138   162   160    1
   139    68    67    2
   140    49    50    2
   141    60    58   ar
   142    97    93   am
   143    67    66    1
   144    66    65    1
   145    64    63    1
   146    93    92    1
   147    63    61   ar
   148    95    92    1
   149   157   158    2
   150   157   163   am
   151    58    57    1
   152    58    59   ar
   153    57    54    1
   154    92    91    1
   155   169   163    1
   156   169   168    1
   157    61    59   ar
   158   163   164    1
   159    54    53    1
   160    54    55    1
   161    56    55    2
   162   168   167    1
   163   177   175   ar
   164   164   167    1
   165   164   165    1
   166   175   176   ar
   167   175   174    1
   168   166   165    2
   169   174   171    1
   170   171   170    1
   171   171   172    1
   172   172   173    2
