@<TRIPOS>MOLECULE
tmp/5dzkC00.pdb
 123 115 0 0 0
SMALL
GASTEIGER

@<TRIPOS>ATOM
      1  N         28.3830  109.7180   88.8410 N.3    33  GLN33      -0.1245
      2  CA        29.4780  109.6660   87.8730 C.3    33  GLN33       0.1566
      3  C         29.0840  108.7570   86.7180 C.2    33  GLN33       0.2260
      4  O         28.6810  107.6120   86.8930 O.2    33  GLN33      -0.2867
      5  CB        30.8110  109.2080   88.5030 C.3    33  GLN33       0.0367
      6  CG        32.0580  109.4440   87.6160 C.3    33  GLN33       0.0905
      7  CD        33.3070  109.9960   88.3330 C.2    33  GLN33       0.2608
      8  OE1       33.2220  110.8800   89.1570 O.2    33  GLN33      -0.2717
      9  NE2       34.4610  109.4730   87.9800 N.am   33  GLN33      -0.0878
     10  N         32.7250  111.8270   84.2550 N.3    67  GLY67      -0.1210
     11  CA        32.6580  110.4260   83.8420 C.3    67  GLY67       0.1956
     12  C         33.3410  110.0030   82.5510 C.2    67  GLY67       0.2612
     13  O         33.9580  110.7940   81.8810 O.2    67  GLY67      -0.2717
     14  N         33.1810  108.7260   82.2200 N.am   68  GLY68      -0.1942
     15  CA        33.8740  108.0670   81.1170 C.3    68  GLY68       0.2014
     16  C         33.6400  108.7490   79.7760 C.2    68  GLY68       0.2638
     17  O         32.5360  109.2160   79.4800 O.2    68  GLY68      -0.2714
     18  N         34.6600  108.7690   78.9290 N.am   69  PHE69      -0.1973
     19  CA        34.5460  109.4040   77.6120 C.3    69  PHE69       0.1639
     20  C         33.7360  108.5460   76.6510 C.2    69  PHE69       0.2290
     21  O         32.9050  109.0270   75.8990 O.2    69  PHE69      -0.2864
     22  CB        35.8970  109.6970   76.9780 C.3    69  PHE69       0.0560
     23  CG        35.7850  110.4210   75.6630 C.ar   69  PHE69      -0.0200
     24  CD1       34.9650  111.5400   75.5380 C.ar   69  PHE69      -0.0042
     25  CD2       36.4540  109.9730   74.5430 C.ar   69  PHE69      -0.0042
     26  CE1       34.8400  112.2130   74.3290 C.ar   69  PHE69      -0.0003
     27  CE2       36.3410  110.6390   73.3400 C.ar   69  PHE69      -0.0003
     28  CZ        35.5290  111.7530   73.2250 C.ar   69  PHE69      -0.0000
     29  N         30.1540  109.1790   77.6070 N.3    72  LEU72      -0.1245
     30  CA        29.8230  110.5610   77.1760 C.3    72  LEU72       0.1561
     31  C         29.3100  110.5360   75.7750 C.2    72  LEU72       0.2260
     32  O         28.2410  111.0110   75.5040 O.2    72  LEU72      -0.2867
     33  CB        31.0430  111.5140   77.2200 C.3    72  LEU72       0.0270
     34  CG        30.9760  113.0390   76.9280 C.3    72  LEU72       0.0019
     35  CD1       31.6250  113.3630   75.6180 C.3    72  LEU72       0.0001
     36  CD2       29.5950  113.6860   76.9390 C.3    72  LEU72       0.0001
     37  N         33.4400  118.0210   83.6940 N.3    96  SER96      -0.1202
     38  CA        34.0890  117.1130   82.7820 C.3    96  SER96       0.2020
     39  C         33.1700  116.7950   81.5790 C.2    96  SER96       0.2618
     40  O         32.9990  117.6000   80.6670 O.2    96  SER96      -0.2717
     41  CB        34.4260  115.8070   83.5440 C.3    96  SER96       0.2103
     42  OG        35.7660  115.4500   83.3880 O.3    96  SER96      -0.2182
     43  N         32.6640  115.5600   81.6010 N.am   97  ALA97      -0.1979
     44  CA        31.8480  114.9710   80.5510 C.3    97  ALA97       0.1597
     45  C         30.4930  115.6170   80.6320 C.2    97  ALA97       0.2287
     46  O         29.8610  115.9140   79.6220 O.2    97  ALA97      -0.2864
     47  CB        31.7060  113.4600   80.7700 C.3    97  ALA97       0.0319
     48  N         29.8970  118.7600   78.7730 N.3   100  VAL100     -0.1245
     49  CA        29.6590  118.5940   77.3420 C.3   100  VAL100      0.1561
     50  C         28.1990  118.2770   77.0850 C.2   100  VAL100      0.2260
     51  O         27.5360  118.8090   76.1810 O.2   100  VAL100     -0.2867
     52  CB        30.5320  117.4820   76.7590 C.3   100  VAL100      0.0252
     53  CG1       30.1510  117.1940   75.3190 C.3   100  VAL100      0.0019
     54  CG2       31.9990  117.8960   76.8580 C.3   100  VAL100      0.0019
     55  N         37.5410  120.2390   81.0990 N.3   121  HIS121     -0.1241
     56  CA        38.9530  119.9000   81.1310 C.3   121  HIS121      0.1621
     57  C         39.1520  118.7860   80.1410 C.2   121  HIS121      0.2264
     58  O         38.1730  118.1980   79.6990 O.2   121  HIS121     -0.2867
     59  CB        39.4100  119.5840   82.5750 C.3   121  HIS121      0.0745
     60  CG        39.2430  118.1590   82.9790 C.ar  121  HIS121      0.0817
     61  ND1       40.2100  117.4620   83.6760 N.ar  121  HIS121     -0.2268
     62  CD2       38.2280  117.2950   82.7680 C.ar  121  HIS121      0.1154
     63  CE1       39.8060  116.2190   83.8650 C.ar  121  HIS121      0.1986
     64  NE2       38.6090  116.0920   83.3250 N.ar  121  HIS121     -0.2212
     65  N         40.5500  115.1510   78.5880 N.3   123  PRO123     -0.2102
     66  CA        40.4810  113.8080   79.1270 C.3   123  PRO123      0.1504
     67  C         41.7240  113.3430   79.8150 C.2   123  PRO123      0.2576
     68  O         42.8110  113.4630   79.2910 O.2   123  PRO123     -0.2718
     69  CB        40.2520  112.9290   77.8920 C.3   123  PRO123      0.0282
     70  CG        39.6880  113.8190   76.8520 C.3   123  PRO123      0.0208
     71  CD        40.2090  115.1940   77.1600 C.3   123  PRO123      0.0893
     72  N         41.5220  112.8320   81.0180 N.am  124  SER124     -0.1938
     73  CA        42.5970  112.2720   81.8340 C.3   124  SER124      0.2055
     74  C         42.3860  110.8230   81.9310 C.2   124  SER124      0.2643
     75  O         41.2930  110.3170   81.7800 O.2   124  SER124     -0.2714
     76  CB        42.5940  112.7590   83.2980 C.3   124  SER124      0.2130
     77  OG        42.5130  114.1660   83.4130 O.3   124  SER124     -0.2179
     78  N         43.4430  110.1620   82.2670 N.am  125  LEU125     -0.1963
     79  CA        43.3870  108.7640   82.5590 C.3   125  LEU125      0.1728
     80  C         44.0500  108.6210   83.8920 C.2   125  LEU125      0.2616
     81  O         45.2830  108.7140   83.9800 O.2   125  LEU125     -0.2715
     82  CB        44.1390  108.0220   81.4560 C.3   125  LEU125      0.0311
     83  CG        44.6300  106.5980   81.6680 C.3   125  LEU125      0.0022
     84  CD1       43.5210  105.6680   82.1550 C.3   125  LEU125      0.0001
     85  CD2       45.2170  106.1230   80.3400 C.3   125  LEU125      0.0001
     86  N         43.2640  108.5010   84.9530 N.am  126  SER126     -0.1950
     87  CA        43.8750  108.1360   86.2280 C.3   126  SER126      0.1924
     88  C         43.9760  106.6670   86.2200 C.2   126  SER126      0.2314
     89  O         43.1590  106.0030   85.5900 O.2   126  SER126     -0.2863
     90  CB        42.9650  108.4960   87.3690 C.3   126  SER126      0.2116
     91  OG        42.7150  107.4570   88.3160 O.3   126  SER126     -0.2180
     92  N         47.5650  102.5910   81.9450 N.3   129  ILE129     -0.1245
     93  CA        47.4960  101.5510   80.9220 C.3   129  ILE129      0.1561
     94  C         48.8890  101.0590   80.5690 C.2   129  ILE129      0.2260
     95  O         49.7500  101.7950   80.0740 O.2   129  ILE129     -0.2867
     96  CB        46.7830  101.9990   79.6750 C.3   129  ILE129      0.0252
     97  CG1       45.3350  102.3440   80.0150 C.3   129  ILE129      0.0019
     98  CG2       46.8210  100.9070   78.6160 C.3   129  ILE129      0.0019
     99  CD1       44.5060  102.7970   78.8120 C.3   129  ILE129      0.0001
    100  N         43.5340  108.1370   72.0690 N.3   143  ILE143     -0.1245
    101  CA        43.2510  109.1610   73.0590 C.3   143  ILE143      0.1561
    102  C         43.3040  110.5570   72.4650 C.2   143  ILE143      0.2260
    103  O         42.5650  111.4120   72.8600 O.2   143  ILE143     -0.2867
    104  CB        44.1650  109.0310   74.2830 C.3   143  ILE143      0.0252
    105  CG1       43.8750  107.7040   74.9870 C.3   143  ILE143      0.0019
    106  CG2       43.9590  110.1710   75.2700 C.3   143  ILE143      0.0019
    107  CD1       44.8670  107.3850   76.0770 C.3   143  ILE143      0.0001
    108  N         40.1070  111.0670   70.8010 N.3   146  MET146     -0.1245
    109  CA        39.0570  111.2240   71.8200 C.3   146  MET146      0.1570
    110  C         39.1060  112.6530   72.3050 C.2   146  MET146      0.2261
    111  O         38.1130  113.3820   72.2450 O.2   146  MET146     -0.2867
    112  CB        39.2340  110.2550   72.9710 C.3   146  MET146      0.0387
    113  CG        38.6200  108.8860   72.7250 C.3   146  MET146      0.0595
    114  SD        38.6490  107.5890   73.9680 S.3   146  MET146     -0.1393
    115  CE        39.1660  108.1540   75.5920 C.3   146  MET146      0.0692
    116  N         36.1530  115.6100   71.6950 N.3   150  MET150     -0.1245
    117  CA        35.5320  116.4140   72.7730 C.3   150  MET150      0.1570
    118  C         35.5280  117.8690   72.3460 C.2   150  MET150      0.2261
    119  O         34.5600  118.5890   72.5070 O.2   150  MET150     -0.2867
    120  CB        36.2790  116.2880   74.0990 C.3   150  MET150      0.0387
    121  CG        35.5200  116.8400   75.3220 C.3   150  MET150      0.0595
    122  SD        36.4650  117.6770   76.6540 S.3   150  MET150     -0.1393
    123  CE        37.1460  116.2230   77.3700 C.3   150  MET150      0.0692
@<TRIPOS>BOND
     1   108   109    1
     2   116   117    1
     3   109   110    1
     4   109   112    1
     5   100   101    1
     6   111   110    2
     7   118   119    2
     8   118   117    1
     9   102   103    2
    10   102   101    1
    11   113   112    1
    12   113   114    1
    13   117   120    1
    14   101   104    1
    15    28    27   ar
    16    28    26   ar
    17    27    25   ar
    18   114   115    1
    19   120   121    1
    20   104   105    1
    21   104   106    1
    22    26    24   ar
    23    25    23   ar
    24   105   107    1
    25    53    52    1
    26   121   122    1
    27    32    31    2
    28    24    23   ar
    29    35    34    1
    30    23    22    1
    31    31    30    1
    32    21    20    2
    33    51    50    2
    34    20    19    1
    35   122   123    1
    36    52    54    1
    37    52    49    1
    38    70    71    1
    39    70    69    1
    40    34    36    1
    41    34    33    1
    42    22    19    1
    43    50    49    1
    44    71    65    1
    45    30    33    1
    46    30    29    1
    47    49    48    1
    48    19    18    1
    49    69    66    1
    50    65    66    1
    51    98    96    1
    52    99    97    1
    53    18    16   am
    54    66    67    1
    55    68    67    2
    56    17    16    2
    57    46    45    2
    58    96    97    1
    59    96    93    1
    60    58    57    2
    61    16    15    1
    62    67    72   am
    63    95    94    2
    64    57    56    1
    65    85    83    1
    66    44    45    1
    67    44    47    1
    68    44    43    1
    69    94    93    1
    70    40    39    2
    71    93    92    1
    72    72    73    1
    73    55    56    1
    74    15    14    1
    75    56    59    1
    76    82    83    1
    77    82    79    1
    78    39    43   am
    79    39    38    1
    80    83    84    1
    81    75    74    2
    82    73    74    1
    83    73    76    1
    84    13    12    2
    85    74    78   am
    86    14    12   am
    87    78    79    1
    88    12    11    1
    89    79    80    1
    90    59    60    1
    91    62    60   ar
    92    62    64   ar
    93    38    41    1
    94    38    37    1
    95    60    61   ar
    96    76    77    1
    97    64    63   ar
    98    42    41    1
    99    61    63   ar
   100    11    10    1
   101    80    81    2
   102    80    86   am
   103    86    87    1
   104    89    88    2
   105    88    87    1
   106    87    90    1
   107     3     4    2
   108     3     2    1
   109    90    91    1
   110     6     7    1
   111     6     5    1
   112     2     5    1
   113     2     1    1
   114     9     7   am
   115     7     8    2
