@<TRIPOS>MOLECULE
tmp/5dzkY00.pdb
 175 172 0 0 0
SMALL
GASTEIGER

@<TRIPOS>ATOM
      1  N         59.8950  103.7290  125.4480 N.3    21  GLU21      -0.1245
      2  CA        58.9050  102.9510  126.1680 C.3    21  GLU21       0.1567
      3  C         59.6680  101.9030  126.9530 C.2    21  GLU21       0.2260
      4  O         60.6000  101.2910  126.4490 O.2    21  GLU21      -0.2867
      5  CB        57.8680  102.2730  125.2360 C.3    21  GLU21       0.0388
      6  CG        56.3930  102.5590  125.6310 C.3    21  GLU21       0.1160
      7  CD        55.4850  101.3420  125.5720 C.2    21  GLU21       0.3649
      8  OE1       55.7310  100.4950  124.6730 O.co2  21  GLU21      -0.2457
      9  OE2       54.5570  101.2380  126.4280 O.co2  21  GLU21      -0.2457
     10  N         58.2560  107.8880  127.8960 N.3    53  PRO53      -0.2102
     11  CA        56.8330  108.1140  128.1280 C.3    53  PRO53       0.1504
     12  C         56.2280  107.2020  129.2080 C.2    53  PRO53       0.2576
     13  O         55.0250  107.2530  129.4670 O.2    53  PRO53      -0.2718
     14  CB        56.2490  107.7410  126.7530 C.3    53  PRO53       0.0282
     15  CG        57.0420  106.5460  126.3940 C.3    53  PRO53       0.0208
     16  CD        58.4530  106.8980  126.8040 C.3    53  PRO53       0.0893
     17  N         57.0220  106.2790  129.7070 N.am   54  GLY54      -0.1943
     18  CA        56.5380  105.2840  130.6590 C.3    54  GLY54       0.2014
     19  C         56.5640  103.8930  130.0860 C.2    54  GLY54       0.2639
     20  O         57.1920  103.6610  129.0610 O.2    54  GLY54      -0.2714
     21  N         55.8590  102.9730  130.7280 N.am   55  GLY55      -0.1939
     22  CA        55.8260  101.5810  130.2850 C.3    55  GLY55       0.2014
     23  C         55.4310  100.5420  131.3020 C.2    55  GLY55       0.2640
     24  O         54.6500  100.7930  132.1950 O.2    55  GLY55      -0.2714
     25  N         55.9760   99.3490  131.1440 N.am   56  SER56      -0.1935
     26  CA        55.5850   98.1780  131.9650 C.3    56  SER56       0.2055
     27  C         56.0410   98.3470  133.3870 C.2    56  SER56       0.2643
     28  O         57.2090   98.6510  133.6470 O.2    56  SER56      -0.2714
     29  CB        56.1810   96.8700  131.4030 C.3    56  SER56       0.2130
     30  OG        56.2150   95.8260  132.3610 O.3    56  SER56      -0.2179
     31  N         55.1350   98.1350  134.3220 N.am   57  ILE57      -0.1963
     32  CA        55.5380   98.1980  135.7450 C.3    57  ILE57       0.1727
     33  C         56.5270   97.0810  136.1350 C.2    57  ILE57       0.2616
     34  O         57.6090   97.3650  136.6940 O.2    57  ILE57      -0.2715
     35  CB        54.3480   98.1080  136.7130 C.3    57  ILE57       0.0290
     36  CG1       53.4490   99.3120  136.5190 C.3    57  ILE57       0.0022
     37  CG2       54.8360   98.0480  138.1560 C.3    57  ILE57       0.0023
     38  CD1       52.2580   99.3310  137.4460 C.3    57  ILE57       0.0001
     39  N         56.1180   95.8390  135.8790 N.am   58  SER58      -0.1950
     40  CA        57.0000   94.6790  136.0310 C.3    58  SER58       0.1924
     41  C         58.4680   94.9930  135.5990 C.2    58  SER58       0.2314
     42  O         59.4250   94.9200  136.3670 O.2    58  SER58      -0.2863
     43  CB        56.4270   93.5250  135.2270 C.3    58  SER58       0.2116
     44  OG        57.5060   92.8110  134.6420 O.3    58  SER58      -0.2180
     45  N         55.3340  108.7430  133.9280 N.3    84  SER84      -0.1202
     46  CA        54.8010  107.4830  134.4630 C.3    84  SER84       0.2020
     47  C         55.9590  106.6430  135.0260 C.2    84  SER84       0.2618
     48  O         56.6430  107.1420  135.9270 O.2    84  SER84      -0.2717
     49  CB        54.0130  106.7870  133.3660 C.3    84  SER84       0.2103
     50  OG        52.8630  107.5500  133.0290 O.3    84  SER84      -0.2182
     51  N         56.2430  105.4370  134.5110 N.am   85  MET85      -0.1979
     52  CA        57.4710  104.6880  134.9910 C.3    85  MET85       0.1605
     53  C         58.7230  105.5730  134.9130 C.2    85  MET85       0.2287
     54  O         59.5840  105.5450  135.7820 O.2    85  MET85      -0.2864
     55  CB        57.7930  103.4070  134.2170 C.3    85  MET85       0.0413
     56  CG        57.2550  102.1010  134.7930 C.3    85  MET85       0.0598
     57  SD        57.3970  101.8130  136.5850 S.3    85  MET85      -0.1393
     58  CE        59.1080  102.1940  136.9040 C.3    85  MET85       0.0692
     59  N         58.9130  108.7840  135.3050 N.3    87  GLU87      -0.1231
     60  CA        58.9210  109.7010  136.4730 C.3    87  GLU87       0.1699
     61  C         59.3850  108.9050  137.7010 C.2    87  GLU87       0.2592
     62  O         60.2210  109.3560  138.4810 O.2    87  GLU87      -0.2718
     63  CB        57.5560  110.4420  136.7030 C.3    87  GLU87       0.0402
     64  CG        56.4690  109.8400  137.6190 C.3    87  GLU87       0.1161
     65  CD        56.7760  109.7910  139.1040 C.2    87  GLU87       0.3649
     66  OE1       57.8870  110.1430  139.3940 O.co2  87  GLU87      -0.2457
     67  OE2       55.9920  109.3630  140.0110 O.co2  87  GLU87      -0.2457
     68  N         58.7690  107.7390  137.8810 N.am   88  PHE88      -0.1976
     69  CA        59.0450  106.8410  139.0090 C.3    88  PHE88       0.1639
     70  C         60.5410  106.5640  139.1190 C.2    88  PHE88       0.2290
     71  O         61.1760  106.7290  140.1780 O.2    88  PHE88      -0.2864
     72  CB        58.2540  105.5490  138.8240 C.3    88  PHE88       0.0560
     73  CG        58.3530  104.5840  139.9720 C.ar   88  PHE88      -0.0200
     74  CD1       59.3390  103.5980  140.0050 C.ar   88  PHE88      -0.0042
     75  CD2       57.4400  104.6350  141.0280 C.ar   88  PHE88      -0.0042
     76  CE1       59.4320  102.7060  141.0580 C.ar   88  PHE88      -0.0003
     77  CE2       57.5340  103.7370  142.0890 C.ar   88  PHE88      -0.0003
     78  CZ        58.5270  102.7720  142.0940 C.ar   88  PHE88      -0.0000
     79  N         50.9180  109.6960  137.1250 N.3   109  HIS109     -0.1226
     80  CA        49.5200  109.1700  137.1540 C.3   109  HIS109      0.1752
     81  C         49.4420  107.7090  137.6770 C.2   109  HIS109      0.2596
     82  O         50.4780  107.0770  138.0010 O.2   109  HIS109     -0.2718
     83  CB        48.8310  109.3100  135.8190 C.3   109  HIS109      0.0759
     84  CG        49.3610  108.3860  134.7880 C.ar  109  HIS109      0.0818
     85  ND1       48.6440  108.0400  133.6690 N.ar  109  HIS109     -0.2268
     86  CD2       50.5520  107.7660  134.6840 C.ar  109  HIS109      0.1154
     87  CE1       49.3690  107.2320  132.9210 C.ar  109  HIS109      0.1986
     88  NE2       50.5330  107.0470  133.5200 N.ar  109  HIS109     -0.2212
     89  N         48.2190  107.2310  137.8800 N.am  110  GLN110     -0.1966
     90  CA        47.9920  105.8750  138.3940 C.3   110  GLN110      0.1718
     91  C         48.1150  104.8840  137.2500 C.2   110  GLN110      0.2458
     92  O         47.9940  105.2710  136.0660 O.2   110  GLN110     -0.2730
     93  CB        46.6170  105.7210  139.0560 C.3   110  GLN110      0.0407
     94  CG        45.4540  106.0350  138.1460 C.3   110  GLN110      0.0908
     95  CD        44.1360  105.3810  138.5340 C.2   110  GLN110      0.2608
     96  OE1       43.9640  104.1350  138.6530 O.2   110  GLN110     -0.2717
     97  NE2       43.1770  106.2250  138.6770 N.am  110  GLN110     -0.0878
     98  N         48.2740  103.5960  137.6100 N.am  111  PRO111     -0.2716
     99  CA        48.4020  102.5290  136.6290 C.3   111  PRO111      0.1536
    100  C         47.2100  102.3510  135.7280 C.2   111  PRO111      0.2598
    101  O         46.0690  102.5510  136.1290 O.2   111  PRO111     -0.2715
    102  CB        48.5970  101.2520  137.4880 C.3   111  PRO111      0.0310
    103  CG        49.0410  101.7350  138.8160 C.3   111  PRO111      0.0237
    104  CD        48.3570  103.0590  138.9800 C.3   111  PRO111      0.0939
    105  N         47.5120  101.9760  134.5010 N.am  112  LEU112     -0.1964
    106  CA        46.4780  101.5730  133.5970 C.3   112  LEU112      0.1728
    107  C         46.8060  100.0920  133.2330 C.2   112  LEU112      0.2617
    108  O         47.8610   99.5070  133.5790 O.2   112  LEU112     -0.2715
    109  CB        46.1270  102.6760  132.5500 C.3   112  LEU112      0.0311
    110  CG        47.3660  103.3570  131.8760 C.3   112  LEU112      0.0022
    111  CD1       47.9210  102.4040  130.7950 C.3   112  LEU112      0.0001
    112  CD2       47.2640  104.7630  131.2530 C.3   112  LEU112      0.0001
    113  N         45.8320   99.4230  132.6890 N.am  113  GLY113     -0.1940
    114  CA        45.9930   98.0200  132.3780 C.3   113  GLY113      0.2014
    115  C         44.8030   97.4820  131.6020 C.2   113  GLY113      0.2639
    116  O         44.1800   98.1890  130.8020 O.2   113  GLY113     -0.2714
    117  N         44.5400   96.2100  131.8100 N.am  114  GLY114     -0.1954
    118  CA        43.5140   95.5230  131.1030 C.3   114  GLY114      0.1869
    119  C         42.8810   94.4690  131.9650 C.2   114  GLY114      0.2309
    120  O         43.4610   93.9530  132.9180 O.2   114  GLY114     -0.2863
    121  N         44.9870   92.0580  142.3800 N.3   128  GLN128     -0.1231
    122  CA        46.3680   92.4030  142.0170 C.3   128  GLN128      0.1698
    123  C         46.5460   93.8900  141.7590 C.2   128  GLN128      0.2592
    124  O         47.5940   94.4790  142.0820 O.2   128  GLN128     -0.2718
    125  CB        46.8190   91.6590  140.7550 C.3   128  GLN128      0.0381
    126  CG        47.6120   90.3940  141.0340 C.3   128  GLN128      0.0905
    127  CD        48.7440   90.5760  142.0410 C.2   128  GLN128      0.2608
    128  OE1       49.8600   90.9370  141.6660 O.2   128  GLN128     -0.2717
    129  NE2       48.4810   90.2340  143.3110 N.am  128  GLN128     -0.0878
    130  N         45.5480   94.4810  141.1190 N.am  129  PHE129     -0.1976
    131  CA        45.5560   95.9340  140.8440 C.3   129  PHE129      0.1639
    132  C         45.6440   96.6990  142.1460 C.2   129  PHE129      0.2290
    133  O         46.4930   97.5810  142.2930 O.2   129  PHE129     -0.2864
    134  CB        44.3130   96.4100  140.0960 C.3   129  PHE129      0.0560
    135  CG        44.1310   95.7990  138.7230 C.ar  129  PHE129     -0.0200
    136  CD1       42.8860   95.7440  138.1710 C.ar  129  PHE129     -0.0042
    137  CD2       45.2090   95.2750  137.9870 C.ar  129  PHE129     -0.0042
    138  CE1       42.7120   95.2140  136.9060 C.ar  129  PHE129     -0.0003
    139  CE2       45.0330   94.7130  136.7240 C.ar  129  PHE129     -0.0003
    140  CZ        43.7800   94.6930  136.1860 C.ar  129  PHE129     -0.0000
    141  N         49.1920   96.4490  143.6410 N.3   132  ILE132     -0.1245
    142  CA        50.1380   97.2000  142.8470 C.3   132  ILE132      0.1561
    143  C         49.9550   98.6980  142.9360 C.2   132  ILE132      0.2260
    144  O         50.8900   99.4430  143.2120 O.2   132  ILE132     -0.2867
    145  CB        50.0270   96.7910  141.3660 C.3   132  ILE132      0.0252
    146  CG1       50.5330   95.3580  141.1950 C.3   132  ILE132      0.0019
    147  CG2       50.8620   97.7250  140.4860 C.3   132  ILE132      0.0019
    148  CD1       50.2680   94.7910  139.8380 C.3   132  ILE132      0.0001
    149  N         52.8450  101.0790  144.3700 N.3   136  MET136     -0.1230
    150  CA        53.4460  102.1090  143.5250 C.3   136  MET136      0.1702
    151  C         53.2790  103.4610  144.1800 C.2   136  MET136      0.2592
    152  O         54.1580  104.3310  144.1120 O.2   136  MET136     -0.2718
    153  CB        52.8890  102.1490  142.1080 C.3   136  MET136      0.0401
    154  CG        53.2990  100.9610  141.2710 C.3   136  MET136      0.0596
    155  SD        55.0600  100.5270  141.2850 S.3   136  MET136     -0.1393
    156  CE        55.7840  101.6700  140.1280 C.3   136  MET136      0.0692
    157  N         52.1440  103.6440  144.8180 N.am  137  PHE137     -0.1976
    158  CA        51.8710  104.9190  145.5490 C.3   137  PHE137      0.1639
    159  C         52.7920  105.0860  146.7480 C.2   137  PHE137      0.2290
    160  O         53.4050  106.1170  146.9200 O.2   137  PHE137     -0.2864
    161  CB        50.4210  105.0070  146.0200 C.3   137  PHE137      0.0560
    162  CG        49.4280  105.2830  144.9270 C.ar  137  PHE137     -0.0200
    163  CD1       48.0800  105.0010  145.1340 C.ar  137  PHE137     -0.0042
    164  CD2       49.8400  105.7970  143.6680 C.ar  137  PHE137     -0.0042
    165  CE1       47.1500  105.2390  144.1390 C.ar  137  PHE137     -0.0003
    166  CE2       48.9210  106.0110  142.6590 C.ar  137  PHE137     -0.0003
    167  CZ        47.5710  105.7360  142.8970 C.ar  137  PHE137     -0.0000
    168  N         56.2360  106.1490  145.5860 N.3   140  ASN140     -0.1240
    169  CA        56.3100  107.5520  145.0820 C.3   140  ASN140      0.1653
    170  C         56.2150  108.5360  146.1910 C.2   140  ASN140      0.2266
    171  O         56.8830  109.5610  146.2050 O.2   140  ASN140     -0.2867
    172  CB        55.1930  107.8790  144.1010 C.3   140  ASN140      0.1155
    173  CG        55.6850  108.1330  142.6630 C.2   140  ASN140      0.2627
    174  OD1       56.8440  108.5260  142.3980 O.2   140  ASN140     -0.2716
    175  ND2       54.7840  107.8960  141.7170 N.am  140  ASN140     -0.0877
@<TRIPOS>BOND
     1     8     7   ar
     2     5     6    1
     3     5     2    1
     4     1     2    1
     5     7     6    1
     6     7     9   ar
     7     2     3    1
     8    15    14    1
     9    15    16    1
    10     4     3    2
    11    14    11    1
    12    16    10    1
    13    10    11    1
    14    11    12    1
    15    20    19    2
    16    12    13    2
    17    12    17   am
    18    17    18    1
    19    19    18    1
    20    19    21   am
    21    22    21    1
    22    22    23    1
    23   111   110    1
    24   116   115    2
    25   118   117    1
    26   118   119    1
    27    25    23   am
    28    25    26    1
    29   112   110    1
    30    23    24    2
    31    29    26    1
    32    29    30    1
    33   115   117   am
    34   115   114    1
    35   110   109    1
    36    26    27    1
    37   119   120    2
    38   114   113    1
    39   109   106    1
    40   113   107   am
    41    87    88   ar
    42    87    85   ar
    43    50    49    1
    44   107   108    2
    45   107   106    1
    46    49    46    1
    47    27    28    2
    48    27    31   am
    49    88    86   ar
    50   106   105    1
    51    85    84   ar
    52    45    46    1
    53    55    56    1
    54    55    52    1
    55    31    32    1
    56    46    47    1
    57   105   100   am
    58    51    52    1
    59    51    47   am
    60    44    43    1
    61    86    84   ar
    62    84    83    1
    63    56    57    1
    64    53    52    1
    65    53    54    2
    66    47    48    2
    67    43    40    1
    68    59    60    1
    69    41    40    1
    70    41    42    2
    71   100   101    2
    72   100    99    1
    73    32    33    1
    74    32    35    1
    75    83    80    1
    76    39    40    1
    77    39    33   am
    78    92    91    2
    79    33    34    2
    80   140   139   ar
    81   140   138   ar
    82    60    63    1
    83    60    61    1
    84    36    35    1
    85    36    38    1
    86    57    58    1
    87    99   102    1
    88    99    98    1
    89    63    64    1
    90    35    37    1
    91   139   137   ar
    92   138   136   ar
    93    79    80    1
    94    80    81    1
    95    91    98   am
    96    91    90    1
    97   102   103    1
    98    98   104    1
    99    64    65    1
   100    81    89   am
   101    81    82    2
   102    61    68   am
   103    61    62    2
   104    89    90    1
   105    68    69    1
   106   137   135   ar
   107    94    95    1
   108    94    93    1
   109   136   135   ar
   110    90    93    1
   111    95    96    2
   112    95    97   am
   113   135   134    1
   114   103   104    1
   115    72    69    1
   116    72    73    1
   117    69    70    1
   118    65    66   ar
   119    65    67   ar
   120    70    71    2
   121   148   146    1
   122    73    74   ar
   123    73    75   ar
   124    74    76   ar
   125   134   131    1
   126   156   155    1
   127   147   145    1
   128   125   126    1
   129   125   122    1
   130   131   130    1
   131   131   132    1
   132    75    77   ar
   133   126   127    1
   134    76    78   ar
   135   130   123   am
   136   146   145    1
   137   154   155    1
   138   154   153    1
   139   145   142    1
   140   128   127    2
   141   175   173   am
   142   123   122    1
   143   123   124    2
   144   122   121    1
   145   127   129   am
   146    77    78   ar
   147   153   150    1
   148   132   133    2
   149   174   173    2
   150   166   167   ar
   151   166   164   ar
   152   173   172    1
   153   142   143    1
   154   142   141    1
   155   167   165   ar
   156   143   144    2
   157   150   151    1
   158   150   149    1
   159   164   162   ar
   160   172   169    1
   161   152   151    2
   162   165   163   ar
   163   151   157   am
   164   157   158    1
   165   162   163   ar
   166   162   161    1
   167   169   168    1
   168   169   170    1
   169   158   161    1
   170   158   159    1
   171   170   171    2
   172   159   160    2
