@<TRIPOS>MOLECULE
tmp/5dztA00.pdb
 143 131 0 0 0
SMALL
GASTEIGER

@<TRIPOS>ATOM
      1  N         48.7900   30.6920  112.7870 N.3   230  GLU230     -0.1245
      2  CA        48.2240   30.4920  111.4340 C.3   230  GLU230      0.1567
      3  C         46.8930   31.2450  111.1950 C.2   230  GLU230      0.2260
      4  O         45.9650   30.7020  110.5830 O.2   230  GLU230     -0.2867
      5  CB        48.0880   28.9900  111.1030 C.3   230  GLU230      0.0388
      6  CG        49.3440   28.1480  111.3210 C.3   230  GLU230      0.1160
      7  CD        49.1030   26.6430  111.1910 C.2   230  GLU230      0.3649
      8  OE1       49.6840   25.8740  111.9880 O.co2 230  GLU230     -0.2457
      9  OE2       48.3420   26.2100  110.2970 O.co2 230  GLU230     -0.2457
     10  N         45.2620   33.4660  109.0830 N.3   232  GLN232     -0.1245
     11  CA        45.2140   34.1000  107.7460 C.3   232  GLN232      0.1566
     12  C         44.4090   35.3950  107.7380 C.2   232  GLN232      0.2260
     13  O         43.3360   35.4590  108.3450 O.2   232  GLN232     -0.2867
     14  CB        44.6100   33.1480  106.7020 C.3   232  GLN232      0.0367
     15  CG        45.5590   32.0890  106.1540 C.3   232  GLN232      0.0905
     16  CD        45.7670   30.9230  107.1060 C.2   232  GLN232      0.2608
     17  OE1       46.8470   30.3280  107.1450 O.2   232  GLN232     -0.2717
     18  NE2       44.7350   30.5920  107.8840 N.am  232  GLN232     -0.0878
     19  N         39.9680   31.9350  111.0340 N.3   242  VAL242     -0.1245
     20  CA        40.4420   30.6130  111.3870 C.3   242  VAL242      0.1561
     21  C         41.8000   30.6760  112.0830 C.2   242  VAL242      0.2260
     22  O         42.6720   31.4530  111.6900 O.2   242  VAL242     -0.2867
     23  CB        40.5620   29.7340  110.1260 C.3   242  VAL242      0.0252
     24  CG1       41.2430   28.4090  110.4360 C.3   242  VAL242      0.0019
     25  CG2       39.1730   29.5130  109.5230 C.3   242  VAL242      0.0019
     26  N         44.8480   28.0490  114.2910 N.3   244  THR244     -0.1218
     27  CA        45.3720   26.8310  114.8760 C.3   244  THR244      0.1862
     28  C         45.6690   27.0830  116.3410 C.2   244  THR244      0.2287
     29  O         46.2890   28.0830  116.6930 O.2   244  THR244     -0.2866
     30  CB        46.6440   26.4050  114.1370 C.3   244  THR244      0.1770
     31  OG1       46.2830   26.1110  112.7930 O.3   244  THR244     -0.2211
     32  CG2       47.2460   25.1680  114.7410 C.3   244  THR244      0.0375
     33  N         42.2680   22.9500  114.9060 N.3   254  VAL254     -0.1245
     34  CA        41.9540   24.1790  114.1400 C.3   254  VAL254      0.1561
     35  C         40.5550   24.7330  114.5290 C.2   254  VAL254      0.2260
     36  O         39.5640   24.0010  114.5330 O.2   254  VAL254     -0.2867
     37  CB        42.0780   23.9060  112.6280 C.3   254  VAL254      0.0252
     38  CG1       41.9480   25.1840  111.7890 C.3   254  VAL254      0.0019
     39  CG2       43.4040   23.2220  112.3420 C.3   254  VAL254      0.0019
     40  N         37.4530   26.9500  113.7820 N.3   256  LYS256     -0.1245
     41  CA        36.7970   27.5890  112.6410 C.3   256  LYS256      0.1561
     42  C         35.4570   28.2070  113.0490 C.2   256  LYS256      0.2260
     43  O         34.4200   27.5280  113.0900 O.2   256  LYS256     -0.2867
     44  CB        36.6440   26.6280  111.4790 C.3   256  LYS256      0.0271
     45  CG        37.9420   25.8900  111.1310 C.3   256  LYS256      0.0035
     46  CD        37.9150   25.3780  109.7020 C.3   256  LYS256      0.0206
     47  CE        39.1290   24.5200  109.4410 C.3   256  LYS256      0.1093
     48  NZ        39.2840   24.2480  107.9930 N.3   256  LYS256     -0.1314
     49  N         32.8340   29.5050  111.8660 N.3   258  LYS258     -0.1245
     50  CA        31.9880   29.6600  110.6600 C.3   258  LYS258      0.1561
     51  C         30.6540   28.8810  110.7370 C.2   258  LYS258      0.2260
     52  O         30.5780   27.7440  111.2800 O.2   258  LYS258     -0.2867
     53  CB        32.7650   29.2210  109.3980 C.3   258  LYS258      0.0271
     54  CG        34.2890   29.3940  109.5290 C.3   258  LYS258      0.0035
     55  CD        35.0120   29.7020  108.2300 C.3   258  LYS258      0.0206
     56  CE        35.3650   28.4400  107.4860 C.3   258  LYS258      0.1093
     57  NZ        35.7910   28.8420  106.1210 N.3   258  LYS258     -0.1314
     58  N         37.8680   13.5820  108.3030 N.3   283  VAL283     -0.1245
     59  CA        38.5450   14.4230  109.3100 C.3   283  VAL283      0.1561
     60  C         37.7200   14.5410  110.5950 C.2   283  VAL283      0.2260
     61  O         36.5800   14.9640  110.5420 O.2   283  VAL283     -0.2867
     62  CB        38.9000   15.8290  108.7420 C.3   283  VAL283      0.0252
     63  CG1       39.5960   16.6860  109.7830 C.3   283  VAL283      0.0019
     64  CG2       39.7880   15.6940  107.5240 C.3   283  VAL283      0.0019
     65  N         38.4770   21.3810  114.2690 N.3   294  GLU294     -0.1231
     66  CA        38.8710   20.3570  113.3340 C.3   294  GLU294      0.1699
     67  C         40.2120   19.7560  113.7440 C.2   294  GLU294      0.2592
     68  O         41.0710   20.4460  114.2810 O.2   294  GLU294     -0.2718
     69  CB        38.9840   21.0180  111.9880 C.3   294  GLU294      0.0402
     70  CG        38.9250   20.1030  110.8160 C.3   294  GLU294      0.1161
     71  CD        38.7080   20.8790  109.5530 C.2   294  GLU294      0.3649
     72  OE1       39.4680   21.8120  109.2760 O.co2 294  GLU294     -0.2457
     73  OE2       37.7590   20.5640  108.8340 O.co2 294  GLU294     -0.2457
     74  N         40.3570   18.4630  113.4960 N.am  295  GLU295     -0.1966
     75  CA        41.6240   17.7270  113.6410 C.3   295  GLU295      0.1733
     76  C         42.7540   18.4410  112.8880 C.2   295  GLU295      0.2616
     77  O         42.5690   18.8670  111.7620 O.2   295  GLU295     -0.2715
     78  CB        41.4430   16.3180  113.0320 C.3   295  GLU295      0.0429
     79  CG        42.4850   15.2990  113.4470 C.3   295  GLU295      0.1163
     80  CD        42.2970   13.9170  112.8070 C.2   295  GLU295      0.3649
     81  OE1       41.3200   13.6640  112.0750 O.co2 295  GLU295     -0.2457
     82  OE2       43.1600   13.0510  113.0470 O.co2 295  GLU295     -0.2457
     83  N         43.9200   18.5620  113.4920 N.am  296  TYR296     -0.1960
     84  CA        45.0660   19.1130  112.7540 C.3   296  TYR296      0.1771
     85  C         45.6310   18.0490  111.8300 C.2   296  TYR296      0.2619
     86  O         46.0070   16.9960  112.3040 O.2   296  TYR296     -0.2715
     87  CB        46.1860   19.6210  113.6850 C.3   296  TYR296      0.0574
     88  CG        47.1670   20.4140  112.8850 C.ar  296  TYR296     -0.0198
     89  CD1       46.9120   21.7340  112.6030 C.ar  296  TYR296     -0.0009
     90  CD2       48.3200   19.8140  112.3320 C.ar  296  TYR296     -0.0009
     91  CE1       47.7650   22.4710  111.8210 C.ar  296  TYR296      0.0417
     92  CE2       49.1920   20.5480  111.5510 C.ar  296  TYR296      0.0417
     93  CZ        48.9000   21.8800  111.3070 C.ar  296  TYR296      0.1957
     94  OH        49.7260   22.6680  110.5350 O.3   296  TYR296     -0.2866
     95  N         45.6810   18.3240  110.5310 N.am  297  ILE297     -0.1977
     96  CA        46.1170   17.3310  109.5360 C.3   297  ILE297      0.1596
     97  C         47.4750   17.7520  108.9610 C.2   297  ILE297      0.2287
     98  O         47.5660   18.7450  108.2490 O.2   297  ILE297     -0.2864
     99  CB        45.1040   17.1830  108.3420 C.3   297  ILE297      0.0276
    100  CG1       43.6870   16.8640  108.8230 C.3   297  ILE297      0.0022
    101  CG2       45.5880   16.1220  107.3430 C.3   297  ILE297      0.0022
    102  CD1       43.5790   15.5730  109.6130 C.3   297  ILE297      0.0001
    103  N         46.1730   23.4390   98.6370 N.3   334  ASN334     -0.1240
    104  CA        45.2350   23.3540   99.8040 C.3   334  ASN334      0.1653
    105  C         44.7800   21.9270  100.1330 C.2   334  ASN334      0.2266
    106  O         44.3000   21.6680  101.2300 O.2   334  ASN334     -0.2867
    107  CB        43.9860   24.2630   99.7240 C.3   334  ASN334      0.1155
    108  CG        44.3200   25.7490   99.6170 C.2   334  ASN334      0.2627
    109  OD1       45.4680   26.1670   99.7510 O.2   334  ASN334     -0.2716
    110  ND2       43.3010   26.5490   99.3300 N.am  334  ASN334     -0.0877
    111  N         45.7130   18.5710  101.5350 N.3   336  ILE336     -0.1245
    112  CA        46.8570   18.1460  102.3170 C.3   336  ILE336      0.1561
    113  C         47.1510   16.6930  101.9980 C.2   336  ILE336      0.2260
    114  O         46.2580   15.8350  102.0540 O.2   336  ILE336     -0.2867
    115  CB        46.6610   18.4130  103.8180 C.3   336  ILE336      0.0252
    116  CG1       46.4350   19.9160  104.0250 C.3   336  ILE336      0.0019
    117  CG2       47.8630   17.9030  104.6130 C.3   336  ILE336      0.0019
    118  CD1       46.1670   20.3460  105.4590 C.3   336  ILE336      0.0001
    119  N         40.3980   19.8350  103.5710 N.3   345  ILE345     -0.1231
    120  CA        40.2290   20.4220  104.9000 C.3   345  ILE345      0.1692
    121  C         39.2220   21.5620  104.8830 C.2   345  ILE345      0.2592
    122  O         38.9670   22.1710  105.9040 O.2   345  ILE345     -0.2718
    123  CB        41.5800   20.8370  105.5330 C.3   345  ILE345      0.0266
    124  CG1       42.4520   21.6370  104.5500 C.3   345  ILE345      0.0019
    125  CG2       42.3400   19.5880  105.9910 C.3   345  ILE345      0.0020
    126  CD1       42.0640   23.0940  104.3790 C.3   345  ILE345      0.0001
    127  N         38.6700   21.8500  103.7130 N.am  346  ASP346     -0.1974
    128  CA        37.6040   22.8420  103.5620 C.3   346  ASP346      0.1709
    129  C         36.4760   22.2790  102.7110 C.2   346  ASP346      0.2293
    130  O         36.6310   22.1480  101.5130 O.2   346  ASP346     -0.2864
    131  CB        38.1400   24.1070  102.9010 C.3   346  ASP346      0.1436
    132  CG        38.0840   25.2980  103.8120 C.2   346  ASP346      0.3671
    133  OD1       38.3300   25.1330  105.0300 O.co2 346  ASP346     -0.2456
    134  OD2       37.7690   26.4000  103.3070 O.co2 346  ASP346     -0.2456
    135  N         52.0500   21.8980  100.4910 N.3   383  LYS383     -0.1245
    136  CA        51.5870   20.8220  101.3780 C.3   383  LYS383      0.1561
    137  C         50.7040   19.8010  100.6560 C.2   383  LYS383      0.2260
    138  O         50.2630   18.8110  101.2580 O.2   383  LYS383     -0.2867
    139  CB        50.8100   21.3930  102.5670 C.3   383  LYS383      0.0271
    140  CG        51.6200   21.5480  103.8350 C.3   383  LYS383      0.0035
    141  CD        50.7170   21.9390  104.9920 C.3   383  LYS383      0.0206
    142  CE        51.3670   21.6360  106.3300 C.3   383  LYS383      0.1093
    143  NZ        51.7940   20.2090  106.4290 N.3   383  LYS383     -0.1314
@<TRIPOS>BOND
     1   103   104    1
     2   110   108   am
     3   108   107    1
     4   108   109    2
     5   107   104    1
     6   104   105    1
     7   105   106    2
     8   135   136    1
     9   137   138    2
    10   137   136    1
    11   136   139    1
    12   130   129    2
    13   111   112    1
    14   113   114    2
    15   113   112    1
    16   112   115    1
    17   139   140    1
    18   129   128    1
    19   131   128    1
    20   131   132    1
    21   134   132   ar
    22   128   127    1
    23   119   120    1
    24   127   121   am
    25   132   133   ar
    26   115   116    1
    27   115   117    1
    28   140   141    1
    29   116   118    1
    30   126   124    1
    31   124   123    1
    32   121   120    1
    33   121   122    2
    34   120   123    1
    35   141   142    1
    36   123   125    1
    37    57    56    1
    38    15    14    1
    39    15    16    1
    40   142   143    1
    41    14    11    1
    42    16    17    2
    43    16    18   am
    44   101    99    1
    45    56    55    1
    46    64    62    1
    47    12    11    1
    48    12    13    2
    49    11    10    1
    50    48    47    1
    51    55    54    1
    52    98    97    2
    53    58    59    1
    54    99   100    1
    55    99    96    1
    56    62    59    1
    57    62    63    1
    58   100   102    1
    59    73    71   ar
    60    97    96    1
    61    72    71   ar
    62    59    60    1
    63    53    54    1
    64    53    50    1
    65    47    46    1
    66    25    23    1
    67    96    95    1
    68    71    70    1
    69    46    45    1
    70    23    24    1
    71    23    20    1
    72     9     7   ar
    73    95    85   am
    74    94    93    1
    75    61    60    2
    76     4     3    2
    77    50    51    1
    78    50    49    1
    79    51    52    2
    80    70    69    1
    81    19    20    1
    82     5     6    1
    83     5     2    1
    84    45    44    1
    85     7     6    1
    86     7     8   ar
    87     3     2    1
    88    93    92   ar
    89    93    91   ar
    90    20    21    1
    91     2     1    1
    92    44    41    1
    93    92    90   ar
    94    22    21    2
    95    77    76    2
    96    38    37    1
    97    91    89   ar
    98    85    86    2
    99    85    84    1
   100    69    66    1
   101    81    80   ar
   102    90    88   ar
   103    39    37    1
   104    89    88   ar
   105    37    34    1
   106    41    42    1
   107    41    40    1
   108    84    83    1
   109    84    87    1
   110    31    30    1
   111    80    82   ar
   112    80    79    1
   113    88    87    1
   114    76    83   am
   115    76    75    1
   116    78    79    1
   117    78    75    1
   118    42    43    2
   119    66    67    1
   120    66    65    1
   121    74    75    1
   122    74    67   am
   123    67    68    2
   124    30    32    1
   125    30    27    1
   126    34    35    1
   127    34    33    1
   128    26    27    1
   129    35    36    2
   130    27    28    1
   131    28    29    2
