@<TRIPOS>MOLECULE
tmp/5e02A01.pdb
 117 112 0 0 0
SMALL
GASTEIGER

@<TRIPOS>ATOM
      1  N         28.4300 -104.4140  303.9170 N.3    67  LYS67      -0.1231
      2  CA        29.8440 -104.3970  303.5630 C.3    67  LYS67       0.1693
      3  C         30.0790 -103.4820  302.3650 C.2    67  LYS67       0.2592
      4  O         29.4090 -103.6110  301.3400 O.2    67  LYS67      -0.2718
      5  CB        30.3330 -105.8120  303.2550 C.3    67  LYS67       0.0285
      6  CG        31.5450 -106.2510  304.0560 C.3    67  LYS67       0.0035
      7  CD        31.3080 -106.1050  305.5500 C.3    67  LYS67       0.0206
      8  CE        32.2740 -106.9690  306.3450 C.3    67  LYS67       0.1093
      9  NZ        33.6830 -106.7990  305.8940 N.3    67  LYS67      -0.1314
     10  N         31.0270 -102.5580  302.4960 N.am   68  LEU68      -0.1966
     11  CA        31.2750 -101.5700  301.4480 C.3    68  LEU68       0.1728
     12  C         32.7610 -101.3080  301.2060 C.2    68  LEU68       0.2616
     13  O         33.5390 -101.1590  302.1480 O.2    68  LEU68      -0.2715
     14  CB        30.5780 -100.2500  301.7910 C.3    68  LEU68       0.0311
     15  CG        29.0480 -100.2310  301.8260 C.3    68  LEU68       0.0022
     16  CD1       28.5450  -98.8950  302.3460 C.3    68  LEU68       0.0001
     17  CD2       28.4720 -100.5230  300.4490 C.3    68  LEU68       0.0001
     18  N         33.1430 -101.2520  299.9330 N.am   69  ASP69      -0.1971
     19  CA        34.4930 -100.8520  299.5460 C.3    69  ASP69       0.1709
     20  C         34.5540  -99.3350  299.3770 C.2    69  ASP69       0.2293
     21  O         33.5170  -98.6950  299.2050 O.2    69  ASP69      -0.2864
     22  CB        34.9260 -101.5640  298.2560 C.3    69  ASP69       0.1436
     23  CG        33.9600 -101.3440  297.1000 C.2    69  ASP69       0.3671
     24  OD1       33.6730 -100.1780  296.7570 O.co2  69  ASP69      -0.2456
     25  OD2       33.4910 -102.3490  296.5240 O.co2  69  ASP69      -0.2456
     26  N         32.3410  -97.8270  296.3600 N.3    72  GLN72      -0.1245
     27  CA        30.8920  -97.7860  296.5030 C.3    72  GLN72       0.1566
     28  C         30.4740  -96.8680  297.6500 C.2    72  GLN72       0.2260
     29  O         29.2950  -96.5510  297.8050 O.2    72  GLN72      -0.2867
     30  CB        30.3440  -99.1960  296.7220 C.3    72  GLN72       0.0367
     31  CG        30.6410 -100.1520  295.5780 C.3    72  GLN72       0.0905
     32  CD        30.5120 -101.6030  295.9870 C.2    72  GLN72       0.2608
     33  OE1       30.5510 -101.9300  297.1740 O.2    72  GLN72      -0.2717
     34  NE2       30.3430 -102.4840  295.0080 N.am   72  GLN72      -0.0878
     35  N         31.1840 -104.0720  285.0900 N.3    91  THR91      -0.1203
     36  CA        30.2100 -104.8890  285.8100 C.3    91  THR91       0.1994
     37  C         30.8520 -105.6740  286.9540 C.2    91  THR91       0.2619
     38  O         30.1570 -106.2580  287.7860 O.2    91  THR91      -0.2717
     39  CB        29.4950 -105.8730  284.8640 C.3    91  THR91       0.1784
     40  OG1       30.4680 -106.6430  284.1440 O.3    91  THR91      -0.2211
     41  CG2       28.6190 -105.1200  283.8750 C.3    91  THR91       0.0376
     42  N         32.1810 -105.6830  286.9910 N.am   92  SER92      -0.1937
     43  CA        32.9220 -106.3270  288.0670 C.3    92  SER92       0.2055
     44  C         32.9550 -105.4630  289.3260 C.2    92  SER92       0.2643
     45  O         33.2340 -105.9570  290.4170 O.2    92  SER92      -0.2714
     46  CB        34.3490 -106.6420  287.6140 C.3    92  SER92       0.2130
     47  OG        35.1350 -107.1240  288.6910 O.3    92  SER92      -0.2179
     48  N         32.6570 -104.1750  289.1700 N.am   93  ALA93      -0.1963
     49  CA        32.7880 -103.2140  290.2650 C.3    93  ALA93       0.1728
     50  C         31.7290 -103.3860  291.3470 C.2    93  ALA93       0.2617
     51  O         31.8300 -102.7940  292.4190 O.2    93  ALA93      -0.2715
     52  CB        32.7420 -101.7980  289.7260 C.3    93  ALA93       0.0334
     53  N         30.7180 -104.2000  291.0750 N.am   94  GLY94      -0.1940
     54  CA        29.6660 -104.4040  292.0510 C.3    94  GLY94       0.2014
     55  C         28.6980 -103.2430  292.1890 C.2    94  GLY94       0.2639
     56  O         28.4260 -102.7800  293.2960 O.2    94  GLY94      -0.2714
     57  N         28.1710 -102.7810  291.0600 N.am   95  LYS95      -0.1963
     58  CA        27.2480 -101.6520  291.0440 C.3    95  LYS95       0.1728
     59  C         25.9080 -101.9500  291.7310 C.2    95  LYS95       0.2617
     60  O         25.2910 -101.0420  292.2840 O.2    95  LYS95      -0.2715
     61  CB        26.9980 -101.2040  289.6020 C.3    95  LYS95       0.0311
     62  CG        28.2670 -100.8770  288.8220 C.3    95  LYS95       0.0038
     63  CD        28.0120 -100.8630  287.3210 C.3    95  LYS95       0.0206
     64  CE        27.5110 -102.2170  286.8380 C.3    95  LYS95       0.1093
     65  NZ        27.2960 -102.2580  285.3650 N.3    95  LYS95      -0.1314
     66  N         25.4640 -103.2070  291.7050 N.am   96  THR96      -0.1937
     67  CA        24.1420 -103.5740  292.2350 C.3    96  THR96       0.2028
     68  C         23.9560 -103.1720  293.7000 C.2    96  THR96       0.2642
     69  O         22.8480 -102.8340  294.1230 O.2    96  THR96      -0.2714
     70  CB        23.8760 -105.0990  292.0930 C.3    96  THR96       0.1808
     71  OG1       23.7370 -105.4340  290.7070 O.3    96  THR96      -0.2208
     72  CG2       22.6050 -105.5170  292.8120 C.3    96  THR96       0.0379
     73  N         25.0420 -103.1780  294.4640 N.am   97  VAL97      -0.1977
     74  CA        24.9530 -102.8920  295.8920 C.3    97  VAL97       0.1596
     75  C         24.5010 -101.4520  296.1610 C.2    97  VAL97       0.2287
     76  O         23.8850 -101.1770  297.1900 O.2    97  VAL97      -0.2864
     77  CB        26.3000 -103.1530  296.6070 C.3    97  VAL97       0.0276
     78  CG1       27.2660 -102.0110  296.3740 C.3    97  VAL97       0.0022
     79  CG2       26.0780 -103.3640  298.0960 C.3    97  VAL97       0.0022
     80  N         39.8300 -106.1600  288.6810 N.3   241  PRO241     -0.2116
     81  CA        40.5540 -107.0330  289.6150 C.3   241  PRO241      0.1372
     82  C         41.6890 -107.8600  289.0020 C.2   241  PRO241      0.2244
     83  O         42.5590 -108.3160  289.7430 O.2   241  PRO241     -0.2868
     84  CB        39.4510 -107.9600  290.1440 C.3   241  PRO241      0.0268
     85  CG        38.1880 -107.1950  289.9510 C.3   241  PRO241      0.0207
     86  CD        38.3860 -106.4490  288.6710 C.3   241  PRO241      0.0892
     87  N         23.9510 -108.6610  281.5090 N.3   400  GLY400     -0.1210
     88  CA        23.3320 -109.1050  282.7440 C.3   400  GLY400      0.1956
     89  C         24.2110 -109.0040  283.9730 C.2   400  GLY400      0.2612
     90  O         25.2300 -108.3090  283.9760 O.2   400  GLY400     -0.2717
     91  N         23.8000 -109.7070  285.0230 N.am  401  LEU401     -0.1965
     92  CA        24.5140 -109.6970  286.2900 C.3   401  LEU401      0.1728
     93  C         25.9170 -110.2580  286.1050 C.2   401  LEU401      0.2616
     94  O         26.1740 -111.0310  285.1750 O.2   401  LEU401     -0.2715
     95  CB        23.7420 -110.5060  287.3420 C.3   401  LEU401      0.0311
     96  CG        24.2110 -110.5060  288.7990 C.3   401  LEU401      0.0022
     97  CD1       24.1810 -109.1000  289.3770 C.3   401  LEU401      0.0001
     98  CD2       23.3560 -111.4500  289.6360 C.3   401  LEU401      0.0001
     99  N         26.8210 -109.8470  286.9900 N.am  402  ASN402     -0.1972
    100  CA        28.2060 -110.2880  286.9400 C.3   402  ASN402      0.1688
    101  C         28.3180 -111.8030  286.9990 C.2   402  ASN402      0.2292
    102  O         27.8190 -112.4390  287.9260 O.2   402  ASN402     -0.2864
    103  CB        29.0020 -109.6710  288.0930 C.3   402  ASN402      0.1181
    104  CG        28.5680 -110.2030  289.4520 C.2   402  ASN402      0.2629
    105  OD1       29.3130 -110.9240  290.1110 O.2   402  ASN402     -0.2716
    106  ND2       27.3500 -109.8680  289.8640 N.am  402  ASN402     -0.0877
    107  N         38.8510 -113.2570  290.7050 N.3   439  ARG439     -0.1245
    108  CA        39.7090 -112.6660  291.7250 C.3   439  ARG439      0.1563
    109  C         41.0030 -113.4370  291.9160 C.2   439  ARG439      0.2260
    110  O         42.0960 -113.0190  291.5270 O.2   439  ARG439     -0.2867
    111  CB        39.0390 -112.6190  293.0690 C.3   439  ARG439      0.0307
    112  CG        37.6240 -112.0710  293.1080 C.3   439  ARG439      0.0489
    113  CD        36.9480 -112.4830  294.4040 C.3   439  ARG439      0.2205
    114  NE        35.7720 -111.6700  294.6910 N.pl3 439  ARG439     -0.0865
    115  CZ        34.9170 -111.9140  295.6800 C.cat 439  ARG439      0.5346
    116  NH1       35.1020 -112.9550  296.4810 N.pl3 439  ARG439      0.1354
    117  NH2       33.8730 -111.1180  295.8650 N.pl3 439  ARG439      0.1354
@<TRIPOS>BOND
     1    87    88    1
     2    88    89    1
     3    41    39    1
     4    89    90    2
     5    89    91   am
     6    40    39    1
     7    39    36    1
     8    91    92    1
     9    35    36    1
    10    94    93    2
    11    65    64    1
    12    36    37    1
    13    93    92    1
    14    93    99   am
    15    92    95    1
    16    64    63    1
    17   100    99    1
    18   100   101    1
    19   100   103    1
    20    37    42   am
    21    37    38    2
    22    42    43    1
    23   101   102    2
    24    63    62    1
    25    95    96    1
    26    46    43    1
    27    46    47    1
    28    43    44    1
    29   103   104    1
    30    86    80    1
    31    86    85    1
    32    80    81    1
    33    96    97    1
    34    96    98    1
    35    62    61    1
    36    82    81    1
    37    82    83    2
    38    48    44   am
    39    48    49    1
    40    44    45    2
    41   104   106   am
    42   104   105    2
    43    61    58    1
    44    81    84    1
    45    52    49    1
    46    85    84    1
    47    49    50    1
    48   107   108    1
    49    71    70    1
    50    58    57    1
    51    58    59    1
    52    57    55   am
    53    53    50   am
    54    53    54    1
    55    50    51    2
    56   110   109    2
    57    66    59   am
    58    66    67    1
    59   108   109    1
    60   108   111    1
    61    59    60    2
    62    54    55    1
    63    70    67    1
    64    70    72    1
    65    55    56    2
    66    67    68    1
    67   111   112    1
    68   112   113    1
    69    68    69    2
    70    68    73   am
    71   113   114    1
    72    73    74    1
    73   114   115    2
    74    34    32   am
    75    31    32    1
    76    31    30    1
    77   115   117    1
    78   115   116    1
    79    74    75    1
    80    74    77    1
    81    32    33    2
    82    75    76    2
    83    26    27    1
    84    78    77    1
    85    27    30    1
    86    27    28    1
    87    25    23   ar
    88    77    79    1
    89    24    23   ar
    90    23    22    1
    91    28    29    2
    92    22    19    1
    93    21    20    2
    94    20    19    1
    95    19    18    1
    96    18    12   am
    97    17    15    1
    98    12    11    1
    99    12    13    2
   100     4     3    2
   101    11    14    1
   102    11    10    1
   103    14    15    1
   104    15    16    1
   105     3    10   am
   106     3     2    1
   107     5     2    1
   108     5     6    1
   109     2     1    1
   110     6     7    1
   111     7     8    1
   112     9     8    1
