@<TRIPOS>MOLECULE
tmp/5e0bC01.pdb
 84 82 0 0 0
SMALL
GASTEIGER

@<TRIPOS>ATOM
      1  N        -19.9010  -39.3120  -24.6080 N.3    24  GLU24      -0.1245
      2  CA       -18.7160  -38.6160  -24.0850 C.3    24  GLU24       0.1567
      3  C        -18.2390  -39.2730  -22.7890 C.2    24  GLU24       0.2260
      4  O        -19.0340  -39.8910  -22.0720 O.2    24  GLU24      -0.2867
      5  CB       -19.0090  -37.1280  -23.8370 C.3    24  GLU24       0.0388
      6  CG       -17.7250  -36.2970  -23.6790 C.3    24  GLU24       0.1160
      7  CD       -17.9320  -34.7800  -23.8760 C.2    24  GLU24       0.3649
      8  OE1      -18.7270  -34.4000  -24.7750 O.co2  24  GLU24      -0.2457
      9  OE2      -17.2950  -33.9710  -23.1400 O.co2  24  GLU24      -0.2457
     10  N        -32.7580  -35.4920  -24.2110 N.3    66  TRP66      -0.1227
     11  CA       -31.3740  -35.8140  -23.8590 C.3    66  TRP66       0.1737
     12  C        -30.9260  -37.2640  -24.1650 C.2    66  TRP66       0.2595
     13  O        -31.7480  -38.1740  -24.3080 O.2    66  TRP66      -0.2718
     14  CB       -31.1560  -35.5060  -22.3770 C.3    66  TRP66       0.0564
     15  CG       -30.9900  -34.0560  -22.0730 C.ar   66  TRP66       0.0003
     16  CD1      -30.9550  -33.0250  -22.9730 C.ar   66  TRP66       0.0946
     17  CD2      -30.7220  -33.4780  -20.7920 C.ar   66  TRP66       0.0152
     18  NE1      -30.6710  -31.8430  -22.3310 N.ar   66  TRP66      -0.2442
     19  CE2      -30.5210  -32.0940  -20.9920 C.ar   66  TRP66       0.0810
     20  CE3      -30.6270  -33.9920  -19.4950 C.ar   66  TRP66       0.0012
     21  CZ2      -30.2240  -31.2230  -19.9390 C.ar   66  TRP66       0.0191
     22  CZ3      -30.3360  -33.1310  -18.4570 C.ar   66  TRP66       0.0001
     23  CH2      -30.1370  -31.7600  -18.6830 C.ar   66  TRP66       0.0015
     24  N        -29.6110  -37.4700  -24.2320 N.am   67  CYS67      -0.1970
     25  CA       -29.0690  -38.7930  -24.5400 C.3    67  CYS67       0.1712
     26  C        -29.2470  -39.8130  -23.4310 C.2    67  CYS67       0.2296
     27  O        -29.0270  -40.9980  -23.6490 O.2    67  CYS67      -0.2864
     28  CB       -27.5890  -38.7130  -24.8970 C.3    67  CYS67       0.0983
     29  SG       -26.5330  -38.0670  -23.5830 S.3    67  CYS67      -0.0798
     30  N        -25.7570  -42.3730  -15.4670 N.3    85  ARG85      -0.1245
     31  CA       -24.8150  -42.4540  -16.5680 C.3    85  ARG85       0.1563
     32  C        -23.6090  -43.2380  -16.0800 C.2    85  ARG85       0.2260
     33  O        -22.8250  -43.7350  -16.8760 O.2    85  ARG85      -0.2867
     34  CB       -24.4080  -41.0530  -17.0290 C.3    85  ARG85       0.0307
     35  CG       -25.5790  -40.2660  -17.5710 C.3    85  ARG85       0.0489
     36  CD       -25.1590  -39.1860  -18.5250 C.3    85  ARG85       0.2205
     37  NE       -26.3220  -38.4790  -19.0450 N.pl3  85  ARG85      -0.0865
     38  CZ       -26.2650  -37.3970  -19.8040 C.cat  85  ARG85       0.5346
     39  NH1      -25.1000  -36.8780  -20.1490 N.pl3  85  ARG85       0.1354
     40  NH2      -27.3840  -36.8420  -20.2090 N.pl3  85  ARG85       0.1354
     41  N        -19.7970  -38.6610  -19.0430 N.3    90  LYS90      -0.1231
     42  CA       -20.0610  -37.3110  -18.5810 C.3    90  LYS90       0.1693
     43  C        -21.5590  -37.0510  -18.4980 C.2    90  LYS90       0.2593
     44  O        -22.2890  -37.2110  -19.4860 O.2    90  LYS90      -0.2718
     45  CB       -19.4140  -36.2960  -19.5160 C.3    90  LYS90       0.0285
     46  CG       -19.5600  -34.8590  -19.0750 C.3    90  LYS90       0.0035
     47  CD       -18.8590  -33.9300  -20.0490 C.3    90  LYS90       0.0206
     48  CE       -19.3650  -34.1430  -21.4710 C.3    90  LYS90       0.1093
     49  NZ       -20.7770  -33.7220  -21.7080 N.3    90  LYS90      -0.1314
     50  N        -22.0070  -36.6550  -17.3090 N.am   91  GLY91      -0.1942
     51  CA       -23.4130  -36.3600  -17.1070 C.3    91  GLY91       0.2014
     52  C        -23.7880  -34.9530  -17.5620 C.2    91  GLY91       0.2638
     53  O        -22.9620  -34.1890  -18.0370 O.2    91  GLY91      -0.2714
     54  N        -25.0670  -34.6480  -17.4310 N.am   92  ALA92      -0.1977
     55  CA       -25.6370  -33.3570  -17.7530 C.3    92  ALA92       0.1597
     56  C        -26.4000  -32.9590  -16.5220 C.2    92  ALA92       0.2287
     57  O        -27.6110  -33.1480  -16.4730 O.2    92  ALA92      -0.2864
     58  CB       -26.5910  -33.4960  -18.8750 C.3    92  ALA92       0.0319
     59  N        -24.2620  -27.8950  -15.6360 N.3    95  GLY95      -0.1210
     60  CA       -23.6600  -26.9600  -16.5700 C.3    95  GLY95       0.1940
     61  C        -22.3840  -27.4320  -17.2470 C.2    95  GLY95       0.2453
     62  O        -21.7490  -28.3810  -16.8060 O.2    95  GLY95      -0.2732
     63  N        -21.9760  -26.7480  -18.3310 N.am   96  PRO96      -0.2728
     64  CA       -20.7870  -27.0400  -19.1410 C.3    96  PRO96       0.1401
     65  C        -19.4290  -26.9140  -18.4790 C.2    96  PRO96       0.2269
     66  O        -18.4470  -27.4740  -18.9640 O.2    96  PRO96      -0.2865
     67  CB       -20.9430  -26.0960  -20.3300 C.3    96  PRO96       0.0296
     68  CG       -21.5000  -24.8670  -19.6730 C.3    96  PRO96       0.0237
     69  CD       -22.5630  -25.4530  -18.7370 C.3    96  PRO96       0.0939
     70  N        -19.8310  -30.2710  -15.5110 N.3    99  ASN99      -0.1226
     71  CA       -20.1370  -31.6250  -15.9540 C.3    99  ASN99       0.1770
     72  C        -18.9030  -32.4560  -16.3210 C.2    99  ASN99       0.2439
     73  O        -18.7650  -33.5860  -15.8870 O.2    99  ASN99      -0.2733
     74  CB       -21.1270  -31.6080  -17.1390 C.3    99  ASN99       0.1168
     75  CG       -22.5240  -31.1210  -16.7350 C.2    99  ASN99       0.2627
     76  OD1      -22.8960  -31.1730  -15.5650 O.2    99  ASN99      -0.2716
     77  ND2      -23.2970  -30.6670  -17.6990 N.am   99  ASN99      -0.0877
     78  N        -17.9800  -31.8960  -17.1130 N.am  100  PRO100     -0.2729
     79  CA       -16.7990  -32.6870  -17.4840 C.3   100  PRO100      0.1401
     80  C        -15.7620  -32.9260  -16.3780 C.2   100  PRO100      0.2269
     81  O        -14.8370  -33.7220  -16.5480 O.2   100  PRO100     -0.2865
     82  CB       -16.2330  -31.9020  -18.6610 C.3   100  PRO100      0.0296
     83  CG       -16.4770  -30.4690  -18.2340 C.3   100  PRO100      0.0237
     84  CD       -17.9010  -30.5240  -17.6680 C.3   100  PRO100      0.0939
@<TRIPOS>BOND
     1    28    25    1
     2    28    29    1
     3     8     7   ar
     4     1     2    1
     5    25    24    1
     6    25    26    1
     7    13    12    2
     8    24    12   am
     9    10    11    1
    10    12    11    1
    11     2     5    1
    12     2     3    1
    13     7     6    1
    14     7     9   ar
    15    11    14    1
    16     5     6    1
    17    27    26    2
    18    16    18   ar
    19    16    15   ar
    20     3     4    2
    21    14    15    1
    22    18    19   ar
    23    15    17   ar
    24    49    48    1
    25    48    47    1
    26    19    17   ar
    27    19    21   ar
    28    17    20   ar
    29    67    68    1
    30    67    64    1
    31    40    38    1
    32    39    38    1
    33    47    46    1
    34    21    23   ar
    35    38    37    2
    36    68    69    1
    37    45    46    1
    38    45    42    1
    39    20    22   ar
    40    44    43    2
    41    64    65    1
    42    64    63    1
    43    37    36    1
    44    41    42    1
    45    66    65    2
    46    58    55    1
    47    69    63    1
    48    23    22   ar
    49    82    83    1
    50    82    79    1
    51    42    43    1
    52    36    35    1
    53    43    50   am
    54    63    61   am
    55    83    84    1
    56    53    52    2
    57    55    54    1
    58    55    56    1
    59    77    75   am
    60    84    78    1
    61    35    34    1
    62    52    54   am
    63    52    51    1
    64    79    78    1
    65    79    80    1
    66    50    51    1
    67    61    62    2
    68    61    60    1
    69    74    75    1
    70    74    71    1
    71    78    72   am
    72    34    31    1
    73    33    32    2
    74    75    76    2
    75    60    59    1
    76    31    32    1
    77    31    30    1
    78    81    80    2
    79    56    57    2
    80    72    71    1
    81    72    73    2
    82    71    70    1
