@<TRIPOS>MOLECULE
tmp/5e0eA02.pdb
 171 164 0 0 0
SMALL
GASTEIGER

@<TRIPOS>ATOM
      1  N         -0.7500   12.4060   27.7260 N.3    42  LEU42      -0.1245
      2  CA        -0.0390   11.2810   27.1740 C.3    42  LEU42       0.1561
      3  C          0.5250   10.5570   28.3660 C.2    42  LEU42       0.2260
      4  O          1.2060   11.1600   29.1770 O.2    42  LEU42      -0.2867
      5  CB         1.0880   11.7740   26.2810 C.3    42  LEU42       0.0270
      6  CG         0.7840   12.2960   24.8700 C.3    42  LEU42       0.0019
      7  CD1       -0.4350   13.1990   24.7950 C.3    42  LEU42       0.0001
      8  CD2        2.0180   13.0220   24.3390 C.3    42  LEU42       0.0001
      9  N          1.5170   12.3250   31.4180 N.3    45  ARG45      -0.1245
     10  CA         2.1970   13.5720   31.0780 C.3    45  ARG45       0.1563
     11  C          1.2440   14.5780   30.4370 C.2    45  ARG45       0.2260
     12  O          0.9330   14.4490   29.2600 O.2    45  ARG45      -0.2867
     13  CB         3.3310   13.2530   30.1070 C.3    45  ARG45       0.0307
     14  CG         4.1440   14.4350   29.6490 C.3    45  ARG45       0.0489
     15  CD         5.0570   14.0890   28.4660 C.3    45  ARG45       0.2205
     16  NE         5.9660   12.9660   28.7280 N.pl3  45  ARG45      -0.0865
     17  CZ         7.1340   12.7750   28.1110 C.cat  45  ARG45       0.5346
     18  NH1        7.5660   13.6440   27.1890 N.pl3  45  ARG45       0.1354
     19  NH2        7.8750   11.7110   28.4270 N.pl3  45  ARG45       0.1354
     20  N         12.0730   14.5750   26.2440 N.3    73  ILE73      -0.1245
     21  CA        11.8840   13.3770   25.4270 C.3    73  ILE73       0.1561
     22  C         12.6390   12.1710   25.9430 C.2    73  ILE73       0.2260
     23  O         13.7390   11.8480   25.5190 O.2    73  ILE73      -0.2867
     24  CB        11.8940   13.6070   23.8990 C.3    73  ILE73       0.0252
     25  CG1       13.2510   13.5140   23.2700 C.3    73  ILE73       0.0019
     26  CG2       11.4940   15.0250   23.6100 C.3    73  ILE73       0.0019
     27  CD1       13.1850   13.9900   21.8530 C.3    73  ILE73       0.0001
     28  N         13.2060    9.0420   26.0240 N.3    75  VAL75      -0.1245
     29  CA        13.7550    7.7770   25.5160 C.3    75  VAL75       0.1561
     30  C         15.2050    7.9350   25.1130 C.2    75  VAL75       0.2260
     31  O         16.0520    7.0830   25.3460 O.2    75  VAL75      -0.2867
     32  CB        12.9040    7.2320   24.3280 C.3    75  VAL75       0.0252
     33  CG1       12.6540    8.3140   23.2980 C.3    75  VAL75       0.0019
     34  CG2       13.5330    6.0050   23.6890 C.3    75  VAL75       0.0019
     35  N         13.8120    4.2230   18.1630 N.3   181  ILE181     -0.1245
     36  CA        13.1650    5.2390   18.9670 C.3   181  ILE181      0.1561
     37  C         11.7480    5.3910   18.4870 C.2   181  ILE181      0.2260
     38  O         10.8550    5.7820   19.2360 O.2   181  ILE181     -0.2867
     39  CB        13.8120    6.5920   18.8520 C.3   181  ILE181      0.0252
     40  CG1       15.2690    6.5430   19.2460 C.3   181  ILE181      0.0019
     41  CG2       13.1630    7.4900   19.8130 C.3   181  ILE181      0.0019
     42  CD1       16.0250    7.7740   18.8590 C.3   181  ILE181      0.0001
     43  N          7.8000    4.0580   22.3740 N.3   187  GLN187     -0.1245
     44  CA         6.7290    4.9590   22.7170 C.3   187  GLN187      0.1566
     45  C          6.2080    4.6570   24.1060 C.2   187  GLN187      0.2260
     46  O          5.9020    5.5780   24.8670 O.2   187  GLN187     -0.2867
     47  CB         5.6280    4.8740   21.6950 C.3   187  GLN187      0.0367
     48  CG         5.9120    5.6950   20.4730 C.3   187  GLN187      0.0905
     49  CD         5.3610    5.0470   19.2070 C.2   187  GLN187      0.2608
     50  OE1        6.0630    4.2560   18.5670 O.2   187  GLN187     -0.2717
     51  NE2        4.0990    5.3660   18.8390 N.am  187  GLN187     -0.0878
     52  N          8.7910    5.9430   26.4680 N.3   190  GLU190     -0.1231
     53  CA         8.7860    7.3770   26.4860 C.3   190  GLU190      0.1699
     54  C          7.9580    7.8830   27.6280 C.2   190  GLU190      0.2592
     55  O          8.3080    8.8770   28.2620 O.2   190  GLU190     -0.2718
     56  CB         8.1900    7.8950   25.1940 C.3   190  GLU190      0.0402
     57  CG         8.1020    9.3910   25.1460 C.3   190  GLU190      0.1161
     58  CD         9.3990   10.0290   25.5330 C.2   190  GLU190      0.3649
     59  OE1        9.3890   10.9540   26.3620 O.co2 190  GLU190     -0.2457
     60  OE2       10.4410    9.5900   25.0180 O.co2 190  GLU190     -0.2457
     61  N          6.8570    7.1830   27.8840 N.am  191  LEU191     -0.1980
     62  CA         5.8580    7.6240   28.8620 C.3   191  LEU191      0.1596
     63  C          6.0110    6.9640   30.2240 C.2   191  LEU191      0.2287
     64  O          5.8510    7.6170   31.2480 O.2   191  LEU191     -0.2864
     65  CB         4.4370    7.4470   28.3100 C.3   191  LEU191      0.0297
     66  CG         4.2490    8.1960   26.9830 C.3   191  LEU191      0.0022
     67  CD1        3.1130    7.6160   26.2130 C.3   191  LEU191      0.0001
     68  CD2        4.0670    9.7060   27.1660 C.3   191  LEU191      0.0001
     69  N         22.1370   13.9270   15.1540 N.3   269  PHE269     -0.1241
     70  CA        20.8230   13.4570   15.4540 C.3   269  PHE269      0.1605
     71  C         19.7800   14.2860   14.7570 C.2   269  PHE269      0.2264
     72  O         18.8450   13.7570   14.1820 O.2   269  PHE269     -0.2867
     73  CB        20.6020   13.5130   16.9260 C.3   269  PHE269      0.0534
     74  CG        19.6790   12.4740   17.3920 C.ar  269  PHE269     -0.0203
     75  CD1       20.0840   11.1300   17.3970 C.ar  269  PHE269     -0.0042
     76  CD2       18.3780   12.8160   17.7980 C.ar  269  PHE269     -0.0042
     77  CE1       19.2250   10.1370   17.8330 C.ar  269  PHE269     -0.0003
     78  CE2       17.4850   11.8360   18.2350 C.ar  269  PHE269     -0.0003
     79  CZ        17.9070   10.4880   18.2490 C.ar  269  PHE269     -0.0000
     80  N         18.3210   12.1820    9.4290 N.3   273  GLU273     -0.1231
     81  CA        17.0370   11.5880    9.0700 C.3   273  GLU273      0.1699
     82  C         16.0990   12.5490    8.3400 C.2   273  GLU273      0.2592
     83  O         15.5970   12.2320    7.2620 O.2   273  GLU273     -0.2718
     84  CB        16.3430   11.0290   10.3150 C.3   273  GLU273      0.0402
     85  CG        14.8400   10.8610   10.1650 C.3   273  GLU273      0.1161
     86  CD        14.4700    9.8250    9.1220 C.2   273  GLU273      0.3649
     87  OE1       13.2660    9.6780    8.8300 O.co2 273  GLU273     -0.2457
     88  OE2       15.3860    9.1590    8.5950 O.co2 273  GLU273     -0.2457
     89  N         15.8560   13.7150    8.9310 N.am  274  THR274     -0.1953
     90  CA        14.8890   14.6360    8.3930 C.3   274  THR274      0.1897
     91  C         15.3360   15.1280    7.0320 C.2   274  THR274      0.2313
     92  O         14.6900   14.8290    6.0220 O.2   274  THR274     -0.2863
     93  CB        14.6460   15.7950    9.3700 C.3   274  THR274      0.1794
     94  OG1       14.1540   15.2580   10.6060 O.3   274  THR274     -0.2208
     95  CG2       13.6220   16.7510    8.8330 C.3   274  THR274      0.0378
     96  N          7.5010   16.8540    7.6330 N.3   334  LEU334     -0.1231
     97  CA         8.2450   15.7280    8.1800 C.3   334  LEU334      0.1693
     98  C          8.3660   15.6980    9.6950 C.2   334  LEU334      0.2592
     99  O          8.5020   14.6290   10.2770 O.2   334  LEU334     -0.2718
    100  CB         9.6010   15.5740    7.4990 C.3   334  LEU334      0.0284
    101  CG         9.5870   15.2130    6.0100 C.3   334  LEU334      0.0019
    102  CD1        9.0280   16.2970    5.1490 C.3   334  LEU334      0.0001
    103  CD2       10.9890   14.9180    5.5670 C.3   334  LEU334      0.0001
    104  N          8.3250   16.8550   10.3370 N.am  335  ILE335     -0.1966
    105  CA         8.0900   16.8550   11.7640 C.3   335  ILE335      0.1712
    106  C          6.7150   17.4040   11.8740 C.2   335  ILE335      0.2458
    107  O          6.4940   18.5780   11.6120 O.2   335  ILE335     -0.2730
    108  CB         9.0430   17.7220   12.5730 C.3   335  ILE335      0.0289
    109  CG1       10.4860   17.3280   12.2810 C.3   335  ILE335      0.0022
    110  CG2        8.7290   17.5620   14.0570 C.3   335  ILE335      0.0023
    111  CD1       11.4280   18.4630   12.3810 C.3   335  ILE335      0.0001
    112  N          5.7690   16.5470   12.2210 N.am  336  PRO336     -0.2716
    113  CA         4.3970   17.0130   12.2270 C.3   336  PRO336      0.1536
    114  C          3.9420   17.4530   13.6100 C.2   336  PRO336      0.2598
    115  O          2.9770   18.1840   13.7510 O.2   336  PRO336     -0.2715
    116  CB         3.6100   15.7790   11.7610 C.3   336  PRO336      0.0310
    117  CG         4.6670   14.6930   11.5030 C.3   336  PRO336      0.0237
    118  CD         5.8520   15.0850   12.2880 C.3   336  PRO336      0.0939
    119  N          4.6500   17.0160   14.6240 N.am  337  ILE337     -0.1964
    120  CA         4.1920   17.2190   15.9550 C.3   337  ILE337      0.1727
    121  C          5.1250   18.2230   16.5940 C.2   337  ILE337      0.2617
    122  O          5.0130   18.5120   17.7860 O.2   337  ILE337     -0.2715
    123  CB         4.2450   15.8810   16.7110 C.3   337  ILE337      0.0290
    124  CG1        3.4230   15.9280   18.0020 C.3   337  ILE337      0.0022
    125  CG2        5.7160   15.4450   16.9660 C.3   337  ILE337      0.0023
    126  CD1        1.9160   15.8860   17.7370 C.3   337  ILE337      0.0001
    127  N          6.0770   18.7220   15.8090 N.am  338  GLY338     -0.1940
    128  CA         7.1610   19.5560   16.3510 C.3   338  GLY338      0.2014
    129  C          7.9710   18.8570   17.4190 C.2   338  GLY338      0.2639
    130  O          7.6090   17.7740   17.8680 O.2   338  GLY338     -0.2714
    131  N          9.0650   19.4580   17.8500 N.am  339  VAL339     -0.1963
    132  CA         9.7860   18.8290   18.9530 C.3   339  VAL339      0.1712
    133  C          9.5450   19.5570   20.2870 C.2   339  VAL339      0.2458
    134  O          9.7130   20.7760   20.3550 O.2   339  VAL339     -0.2730
    135  CB        11.2760   18.6010   18.6210 C.3   339  VAL339      0.0289
    136  CG1       11.9000   19.8540   18.0870 C.3   339  VAL339      0.0023
    137  CG2       12.0180   18.0610   19.8280 C.3   339  VAL339      0.0023
    138  N          9.1500   18.8150   21.3390 N.am  340  PRO340     -0.2727
    139  CA         8.6510   19.3130   22.6170 C.3   340  PRO340      0.1402
    140  C          9.2240   20.6320   23.2140 C.2   340  PRO340      0.2269
    141  O         10.4210   20.7460   23.5040 O.2   340  PRO340     -0.2865
    142  CB         8.9520   18.1480   23.5540 C.3   340  PRO340      0.0296
    143  CG         8.7920   17.0010   22.7190 C.3   340  PRO340      0.0237
    144  CD         9.3410   17.3620   21.3930 C.3   340  PRO340      0.0939
    145  N          3.4730   20.8230   22.8940 N.3   361  TYR361     -0.1241
    146  CA         3.7400   20.4350   21.5120 C.3   361  TYR361      0.1605
    147  C          3.1100   21.4380   20.5610 C.2   361  TYR361      0.2264
    148  O          1.8940   21.5420   20.4830 O.2   361  TYR361     -0.2867
    149  CB         3.2620   18.9930   21.1960 C.3   361  TYR361      0.0534
    150  CG         3.8520   17.9340   22.0900 C.ar  361  TYR361     -0.0201
    151  CD1        4.9900   18.2130   22.8260 C.ar  361  TYR361     -0.0009
    152  CD2        3.3030   16.6610   22.2010 C.ar  361  TYR361     -0.0009
    153  CE1        5.5760   17.2690   23.7030 C.ar  361  TYR361      0.0417
    154  CE2        3.8780   15.6850   23.0880 C.ar  361  TYR361      0.0417
    155  CZ         5.0390   16.0070   23.8370 C.ar  361  TYR361      0.1957
    156  OH         5.7310   15.1610   24.7170 O.3   361  TYR361     -0.2866
    157  N          5.2480    8.2680   14.2250 N.3   449  PHE449     -0.1227
    158  CA         5.3280    9.7080   14.4100 C.3   449  PHE449      0.1736
    159  C          6.4590   10.2700   13.5760 C.2   449  PHE449      0.2596
    160  O          7.0370   11.2920   13.9220 O.2   449  PHE449     -0.2718
    161  CB         5.5600   10.0470   15.8830 C.3   449  PHE449      0.0547
    162  CG         4.3110    9.9810   16.7170 C.ar  449  PHE449     -0.0202
    163  CD1        3.0560    9.8220   16.1710 C.ar  449  PHE449     -0.0042
    164  CD2        4.4360   10.1380   18.0930 C.ar  449  PHE449     -0.0042
    165  CE1        1.8880    9.7820   16.9470 C.ar  449  PHE449     -0.0003
    166  CE2        3.2900   10.1030   18.8970 C.ar  449  PHE449     -0.0003
    167  CZ         1.9930    9.9190   18.3360 C.ar  449  PHE449     -0.0000
    168  N          6.7670    9.6150   12.4650 N.am  450  GLY450     -0.1957
    169  CA         7.8090   10.1030   11.5850 C.3   450  GLY450      0.1869
    170  C          7.6660    9.5520   10.1850 C.2   450  GLY450      0.2309
    171  O          8.5520    8.8490    9.6980 O.2   450  GLY450     -0.2863
@<TRIPOS>BOND
     1   102   101    1
     2   103   101    1
     3   101   100    1
     4    92    91    2
     5    91    90    1
     6    83    82    2
     7   100    97    1
     8    96    97    1
     9    97    98    1
    10    82    89   am
    11    82    81    1
    12    90    89    1
    13    90    93    1
    14    88    86   ar
    15    87    86   ar
    16    95    93    1
    17    81    80    1
    18    81    84    1
    19    86    85    1
    20    93    94    1
    21    98    99    2
    22    98   104   am
    23   171   170    2
    24    85    84    1
    25   170   169    1
    26   104   105    1
    27   117   116    1
    28   117   118    1
    29   169   168    1
    30   107   106    2
    31   116   113    1
    32   105   106    1
    33   105   108    1
    34   106   112   am
    35   112   113    1
    36   112   118    1
    37   113   114    1
    38   109   111    1
    39   109   108    1
    40   168   159   am
    41   108   110    1
    42   159   160    2
    43   159   158    1
    44   114   115    2
    45   114   119   am
    46    72    71    2
    47   157   158    1
    48   158   161    1
    49   119   120    1
    50    71    70    1
    51    69    70    1
    52    70    73    1
    53   127   128    1
    54   127   121   am
    55   161   162    1
    56   120   121    1
    57   120   123    1
    58   163   162   ar
    59   163   165   ar
    60   128   129    1
    61   121   122    2
    62   123   125    1
    63   123   124    1
    64   162   164   ar
    65    73    74    1
    66   165   167   ar
    67    74    75   ar
    68    74    76   ar
    69    75    77   ar
    70   129   131   am
    71   129   130    2
    72   126   124    1
    73    76    78   ar
    74    77    79   ar
    75   131   132    1
    76   136   135    1
    77   164   166   ar
    78    35    36    1
    79    78    79   ar
    80   167   166   ar
    81    37    36    1
    82    37    38    2
    83    50    49    2
    84   135   132    1
    85   135   137    1
    86    51    49   am
    87    39    36    1
    88    39    40    1
    89    39    41    1
    90    42    40    1
    91   132   133    1
    92    49    48    1
    93   133   134    2
    94   133   138   am
    95    48    47    1
    96   148   147    2
    97   147   146    1
    98   149   146    1
    99   149   150    1
   100   138   144    1
   101   138   139    1
   102   144   143    1
   103   146   145    1
   104    47    44    1
   105    27    25    1
   106   150   152   ar
   107   150   151   ar
   108   152   154   ar
   109    43    44    1
   110   139   140    1
   111   139   142    1
   112    44    45    1
   113   143   142    1
   114   151   153   ar
   115   154   155   ar
   116   140   141    2
   117    25    24    1
   118    33    32    1
   119    26    24    1
   120    34    32    1
   121   153   155   ar
   122   155   156    1
   123    24    21    1
   124    45    46    2
   125    32    29    1
   126     8     6    1
   127     7     6    1
   128     6     5    1
   129    60    58   ar
   130    30    31    2
   131    30    29    1
   132    57    56    1
   133    57    58    1
   134    56    53    1
   135    21    22    1
   136    21    20    1
   137    29    28    1
   138    23    22    2
   139    58    59   ar
   140    67    66    1
   141     5     2    1
   142    52    53    1
   143    53    54    1
   144    66    68    1
   145    66    65    1
   146     2     1    1
   147     2     3    1
   148    18    17    1
   149    54    61   am
   150    54    55    2
   151    61    62    1
   152    17    19    1
   153    17    16    2
   154    65    62    1
   155     3     4    2
   156    15    16    1
   157    15    14    1
   158    62    63    1
   159    12    11    2
   160    14    13    1
   161    13    10    1
   162    63    64    2
   163    11    10    1
   164    10     9    1
