@<TRIPOS>MOLECULE
tmp/5e0eA03.pdb
 89 85 0 0 0
SMALL
GASTEIGER

@<TRIPOS>ATOM
      1  N         -4.1940    7.9470   25.8120 N.3    15  LEU15      -0.1245
      2  CA        -3.5420    7.0610   24.8520 C.3    15  LEU15       0.1561
      3  C         -4.5060    6.0730   24.1950 C.2    15  LEU15       0.2260
      4  O         -4.2250    5.4950   23.1240 O.2    15  LEU15      -0.2867
      5  CB        -2.3990    6.3230   25.5140 C.3    15  LEU15       0.0270
      6  CG        -1.3970    7.2650   26.1380 C.3    15  LEU15       0.0019
      7  CD1       -0.3020    6.3990   26.6910 C.3    15  LEU15       0.0001
      8  CD2       -0.8760    8.2790   25.1270 C.3    15  LEU15       0.0001
      9  N         -6.5990    7.7400   21.1850 N.3    18  MET18      -0.1230
     10  CA        -5.8090    8.1740   20.0360 C.3    18  MET18       0.1702
     11  C         -6.0270    7.3240   18.7550 C.2    18  MET18       0.2592
     12  O         -5.9230    7.9780   17.6920 O.2    18  MET18      -0.2718
     13  CB        -4.3170    8.1990   20.3700 C.3    18  MET18       0.0401
     14  CG        -3.9470    9.2520   21.4060 C.3    18  MET18       0.0596
     15  SD        -4.3890   10.9440   20.9540 S.3    18  MET18      -0.1393
     16  CE        -4.9270   11.5580   22.5270 C.3    18  MET18       0.0692
     17  N         -5.8570    6.0160   19.1500 N.am   19  ASP19      -0.1974
     18  CA        -5.9070    5.0070   18.0920 C.3    19  ASP19       0.1709
     19  C         -6.9520    5.3160   17.0190 C.2    19  ASP19       0.2293
     20  O         -6.7300    5.0820   15.8320 O.2    19  ASP19      -0.2864
     21  CB        -6.1630    3.6210   18.6880 C.3    19  ASP19       0.1436
     22  CG        -7.4850    3.5410   19.4260 C.2    19  ASP19       0.3671
     23  OD1       -8.4660    3.0390   18.8380 O.co2  19  ASP19      -0.2456
     24  OD2       -7.5430    3.9780   20.5940 O.co2  19  ASP19      -0.2456
     25  N         -8.4930    6.2360   14.2490 N.3    21  GLY21      -0.1210
     26  CA        -7.7960    6.7820   13.0780 C.3    21  GLY21       0.1956
     27  C         -6.3180    7.0270   13.3640 C.2    21  GLY21       0.2612
     28  O         -5.7060    6.3280   14.1810 O.2    21  GLY21      -0.2717
     29  N         -5.7430    8.0240   12.6920 N.am   22  GLY22      -0.1942
     30  CA        -4.3400    8.3920   12.8850 C.3    22  GLY22       0.2014
     31  C         -4.1280    9.0690   14.2240 C.2    22  GLY22       0.2638
     32  O         -5.0520    9.6660   14.7840 O.2    22  GLY22      -0.2714
     33  N         -2.9010    9.0280   14.7200 N.am   23  PHE23      -0.1973
     34  CA        -2.5320    9.6030   16.0090 C.3    23  PHE23       0.1639
     35  C         -2.3130   11.0990   15.9240 C.2    23  PHE23       0.2290
     36  O         -1.5750   11.6700   16.7030 O.2    23  PHE23      -0.2864
     37  CB        -1.2330    8.9560   16.4580 C.3    23  PHE23       0.0560
     38  CG        -1.3110    7.4540   16.7850 C.ar   23  PHE23      -0.0200
     39  CD1       -2.5200    6.8870   17.1270 C.ar   23  PHE23      -0.0042
     40  CD2       -0.1340    6.7110   16.7780 C.ar   23  PHE23      -0.0042
     41  CE1       -2.5260    5.5480   17.4610 C.ar   23  PHE23      -0.0003
     42  CE2       -0.1550    5.3790   17.1160 C.ar   23  PHE23      -0.0003
     43  CZ        -1.3700    4.8100   17.4590 C.ar   23  PHE23      -0.0000
     44  N          7.0430    0.7210   18.9780 N.3   184  PHE184     -0.1241
     45  CA         6.0670    0.7060   20.0580 C.3   184  PHE184      0.1605
     46  C          6.7580    0.7540   21.4180 C.2   184  PHE184      0.2264
     47  O          6.4780    1.6440   22.2350 O.2   184  PHE184     -0.2867
     48  CB         5.1110   -0.4760   19.9580 C.3   184  PHE184      0.0534
     49  CG         4.0540   -0.4980   21.0310 C.ar  184  PHE184     -0.0203
     50  CD1        3.1140    0.5080   21.1190 C.ar  184  PHE184     -0.0042
     51  CD2        3.9940   -1.5390   21.9420 C.ar  184  PHE184     -0.0042
     52  CE1        2.1530    0.4860   22.1080 C.ar  184  PHE184     -0.0003
     53  CE2        3.0350   -1.5630   22.9320 C.ar  184  PHE184     -0.0003
     54  CZ         2.1150   -0.5470   23.0160 C.ar  184  PHE184     -0.0000
     55  N          7.8000    4.0580   22.3740 N.3   187  GLN187     -0.1231
     56  CA         6.7290    4.9590   22.7170 C.3   187  GLN187      0.1698
     57  C          6.2080    4.6570   24.1060 C.2   187  GLN187      0.2592
     58  O          5.9020    5.5780   24.8670 O.2   187  GLN187     -0.2718
     59  CB         5.6280    4.8740   21.6950 C.3   187  GLN187      0.0381
     60  CG         5.9120    5.6950   20.4730 C.3   187  GLN187      0.0905
     61  CD         5.3610    5.0470   19.2070 C.2   187  GLN187      0.2608
     62  OE1        6.0630    4.2560   18.5670 O.2   187  GLN187     -0.2717
     63  NE2        4.0990    5.3660   18.8390 N.am  187  GLN187     -0.0878
     64  N          6.1390    3.3770   24.4580 N.am  188  VAL188     -0.1980
     65  CA         5.6920    3.0400   25.7910 C.3   188  VAL188      0.1595
     66  C          6.7170    3.5660   26.7440 C.2   188  VAL188      0.2287
     67  O          6.3810    4.2260   27.7160 O.2   188  VAL188     -0.2864
     68  CB         5.5260    1.5540   26.0170 C.3   188  VAL188      0.0276
     69  CG1        5.4050    1.2620   27.5110 C.3   188  VAL188      0.0022
     70  CG2        4.3040    1.0770   25.3010 C.3   188  VAL188      0.0022
     71  N          6.8570    7.1830   27.8840 N.3   191  LEU191     -0.1245
     72  CA         5.8580    7.6240   28.8620 C.3   191  LEU191      0.1561
     73  C          6.0110    6.9640   30.2240 C.2   191  LEU191      0.2260
     74  O          5.8510    7.6170   31.2480 O.2   191  LEU191     -0.2867
     75  CB         4.4370    7.4470   28.3100 C.3   191  LEU191      0.0270
     76  CG         4.2490    8.1960   26.9830 C.3   191  LEU191      0.0019
     77  CD1        3.1130    7.6160   26.2130 C.3   191  LEU191      0.0001
     78  CD2        4.0670    9.7060   27.1660 C.3   191  LEU191      0.0001
     79  N          5.2480    8.2680   14.2250 N.3   449  PHE449     -0.1241
     80  CA         5.3280    9.7080   14.4100 C.3   449  PHE449      0.1605
     81  C          6.4590   10.2700   13.5760 C.2   449  PHE449      0.2264
     82  O          7.0370   11.2920   13.9220 O.2   449  PHE449     -0.2867
     83  CB         5.5600   10.0470   15.8830 C.3   449  PHE449      0.0534
     84  CG         4.3110    9.9810   16.7170 C.ar  449  PHE449     -0.0203
     85  CD1        3.0560    9.8220   16.1710 C.ar  449  PHE449     -0.0042
     86  CD2        4.4360   10.1380   18.0930 C.ar  449  PHE449     -0.0042
     87  CE1        1.8880    9.7820   16.9470 C.ar  449  PHE449     -0.0003
     88  CE2        3.2900   10.1030   18.8970 C.ar  449  PHE449     -0.0003
     89  CZ         1.9930    9.9190   18.3360 C.ar  449  PHE449     -0.0000
@<TRIPOS>BOND
     1    29    30    1
     2    29    27   am
     3    30    31    1
     4    26    27    1
     5    26    25    1
     6    27    28    2
     7    81    82    2
     8    81    80    1
     9    31    33   am
    10    31    32    2
    11    79    80    1
    12    80    83    1
    13    33    34    1
    14    20    19    2
    15    83    84    1
    16    35    34    1
    17    35    36    2
    18    34    37    1
    19    85    84   ar
    20    85    87   ar
    21    37    38    1
    22    84    86   ar
    23    40    38   ar
    24    40    42   ar
    25    38    39   ar
    26    87    89   ar
    27    19    18    1
    28    42    43   ar
    29    39    41   ar
    30    43    41   ar
    31    12    11    2
    32    18    21    1
    33    18    17    1
    34    86    88   ar
    35    89    88   ar
    36    62    61    2
    37    21    22    1
    38    11    17   am
    39    11    10    1
    40    23    22   ar
    41    63    61   am
    42    44    45    1
    43    61    60    1
    44    22    24   ar
    45    48    45    1
    46    48    49    1
    47    10    13    1
    48    10     9    1
    49    45    46    1
    50    13    14    1
    51    60    59    1
    52    15    14    1
    53    15    16    1
    54    49    50   ar
    55    49    51   ar
    56    50    52   ar
    57    46    47    2
    58    59    56    1
    59    51    53   ar
    60    52    54   ar
    61    55    56    1
    62    56    57    1
    63    53    54   ar
    64     4     3    2
    65    57    64   am
    66    57    58    2
    67     3     2    1
    68    64    65    1
    69     2     5    1
    70     2     1    1
    71     8     6    1
    72    70    68    1
    73     5     6    1
    74    65    68    1
    75    65    66    1
    76    68    69    1
    77     6     7    1
    78    77    76    1
    79    66    67    2
    80    76    78    1
    81    76    75    1
    82    71    72    1
    83    75    72    1
    84    72    73    1
    85    73    74    2
