@<TRIPOS>MOLECULE
tmp/5e0fA00.pdb
 191 188 0 0 0
SMALL
GASTEIGER

@<TRIPOS>ATOM
      1  N          2.7290   11.6850  -26.2800 N.3    57  TRP57      -0.1227
      2  CA         2.2260   12.4350  -25.1280 C.3    57  TRP57       0.1737
      3  C          1.7540   11.4420  -24.0600 C.2    57  TRP57       0.2595
      4  O          1.9280   11.6750  -22.8460 O.2    57  TRP57      -0.2718
      5  CB         1.0940   13.4030  -25.5220 C.3    57  TRP57       0.0564
      6  CG        -0.0980   12.7550  -26.1010 C.ar   57  TRP57       0.0003
      7  CD1       -0.3250   12.5010  -27.4120 C.ar   57  TRP57       0.0946
      8  CD2       -1.2370   12.2720  -25.3980 C.ar   57  TRP57       0.0152
      9  NE1       -1.5390   11.8830  -27.5760 N.ar   57  TRP57      -0.2442
     10  CE2       -2.1170   11.7130  -26.3370 C.ar   57  TRP57       0.0810
     11  CE3       -1.5930   12.2430  -24.0480 C.ar   57  TRP57       0.0012
     12  CZ2       -3.3420   11.1590  -25.9740 C.ar   57  TRP57       0.0191
     13  CZ3       -2.7810   11.6820  -23.6920 C.ar   57  TRP57       0.0001
     14  CH2       -3.6530   11.1600  -24.6490 C.ar   57  TRP57       0.0015
     15  N          1.1810   10.3260  -24.4830 N.am   58  TRP58      -0.1976
     16  CA         0.5480    9.4390  -23.5120 C.3    58  TRP58       0.1640
     17  C          1.5360    8.6250  -22.6740 C.2    58  TRP58       0.2290
     18  O          1.1130    7.9560  -21.7350 O.2    58  TRP58      -0.2864
     19  CB        -0.5420    8.5660  -24.1690 C.3    58  TRP58       0.0576
     20  CG        -0.2470    7.9210  -25.5020 C.ar   58  TRP58       0.0006
     21  CD1       -0.7210    8.3160  -26.7170 C.ar   58  TRP58       0.0946
     22  CD2        0.5320    6.7350  -25.7400 C.ar   58  TRP58       0.0152
     23  NE1       -0.2720    7.4660  -27.6870 N.ar   58  TRP58      -0.2442
     24  CE2        0.5080    6.4940  -27.1220 C.ar   58  TRP58       0.0810
     25  CE3        1.2620    5.8710  -24.9180 C.ar   58  TRP58       0.0012
     26  CZ2        1.1720    5.4130  -27.7030 C.ar   58  TRP58       0.0191
     27  CZ3        1.9250    4.8030  -25.4980 C.ar   58  TRP58       0.0001
     28  CH2        1.8710    4.5820  -26.8760 C.ar   58  TRP58       0.0015
     29  N          1.2900    9.1370  -18.9170 N.3    61  TYR61      -0.1227
     30  CA         0.2270    8.5010  -18.1630 C.3    61  TYR61       0.1736
     31  C          0.5730    7.0660  -17.7930 C.2    61  TYR61       0.2595
     32  O         -0.2900    6.3090  -17.3560 O.2    61  TYR61      -0.2718
     33  CB        -1.1260    8.6510  -18.8750 C.3    61  TYR61       0.0548
     34  CG        -1.5170   10.1070  -18.9130 C.ar   61  TYR61      -0.0200
     35  CD1       -2.1400   10.6960  -17.8200 C.ar   61  TYR61      -0.0009
     36  CD2       -1.1870   10.9290  -19.9860 C.ar   61  TYR61      -0.0009
     37  CE1       -2.4380   12.0670  -17.8000 C.ar   61  TYR61       0.0417
     38  CE2       -1.4940   12.2940  -19.9840 C.ar   61  TYR61       0.0417
     39  CZ        -2.1160   12.8600  -18.8830 C.ar   61  TYR61       0.1957
     40  OH        -2.3880   14.2240  -18.8960 O.3    61  TYR61      -0.2866
     41  N          1.8720    6.7570  -17.8640 N.am   62  GLN62      -0.1979
     42  CA         2.3960    5.4610  -17.4240 C.3    62  GLN62       0.1601
     43  C          3.5280    5.6490  -16.3980 C.2    62  GLN62       0.2287
     44  O          4.7100    5.7070  -16.7620 O.2    62  GLN62      -0.2864
     45  CB         2.8760    4.6800  -18.6360 C.3    62  GLN62       0.0394
     46  CG         1.7100    4.3610  -19.5710 C.3    62  GLN62       0.0908
     47  CD         2.0430    3.2920  -20.5970 C.2    62  GLN62       0.2608
     48  OE1        2.7420    2.3350  -20.2920 O.2    62  GLN62      -0.2717
     49  NE2        1.5180    3.4430  -21.8110 N.am   62  GLN62      -0.0878
     50  N         -2.8380    3.7130  -11.5860 N.3   100  HIS100     -0.1241
     51  CA        -2.0440    2.6850  -12.2430 C.3   100  HIS100      0.1621
     52  C         -0.5770    3.0560  -12.3340 C.2   100  HIS100      0.2264
     53  O         -0.1790    4.2060  -12.1110 O.2   100  HIS100     -0.2867
     54  CB        -2.6190    2.4070  -13.6460 C.3   100  HIS100      0.0745
     55  CG        -2.8020    3.6310  -14.4820 C.ar  100  HIS100      0.0817
     56  ND1       -4.0190    4.2690  -14.6190 N.ar  100  HIS100     -0.2268
     57  CD2       -1.9090    4.3650  -15.1860 C.ar  100  HIS100      0.1154
     58  CE1       -3.8650    5.3290  -15.3960 C.ar  100  HIS100      0.1986
     59  NE2       -2.5970    5.4070  -15.7530 N.ar  100  HIS100     -0.2212
     60  N        -17.6490   -2.1230  -19.7240 N.3   150  TYR150     -0.1241
     61  CA       -17.9820   -0.9670  -18.8820 C.3   150  TYR150      0.1605
     62  C        -19.3720   -1.0300  -18.2580 C.2   150  TYR150      0.2264
     63  O        -19.7330   -0.1640  -17.4630 O.2   150  TYR150     -0.2867
     64  CB       -17.8040    0.3500  -19.6460 C.3   150  TYR150      0.0534
     65  CG       -16.3570    0.7850  -19.7310 C.ar  150  TYR150     -0.0201
     66  CD1      -15.4740    0.1620  -20.6040 C.ar  150  TYR150     -0.0009
     67  CD2      -15.8650    1.8070  -18.9200 C.ar  150  TYR150     -0.0009
     68  CE1      -14.1450    0.5480  -20.6830 C.ar  150  TYR150      0.0417
     69  CE2      -14.5310    2.2040  -18.9960 C.ar  150  TYR150      0.0417
     70  CZ       -13.6790    1.5670  -19.8760 C.ar  150  TYR150      0.1957
     71  OH       -12.3540    1.9310  -19.9750 O.3   150  TYR150     -0.2866
     72  N         -6.9690   -0.9200  -17.0570 N.3   161  LEU161     -0.1231
     73  CA        -7.3290   -0.0250  -18.1540 C.3   161  LEU161      0.1693
     74  C         -6.3250   -0.1680  -19.2940 C.2   161  LEU161      0.2592
     75  O         -5.1840    0.2660  -19.1970 O.2   161  LEU161     -0.2718
     76  CB        -7.3830    1.4150  -17.6410 C.3   161  LEU161      0.0284
     77  CG        -7.5810    2.5350  -18.6660 C.3   161  LEU161      0.0019
     78  CD1       -8.8470    2.3550  -19.4530 C.3   161  LEU161      0.0001
     79  CD2       -7.5990    3.8630  -17.9370 C.3   161  LEU161      0.0001
     80  N         -6.7900   -0.7620  -20.3950 N.am  162  THR162     -0.1953
     81  CA        -5.9400   -1.0990  -21.5470 C.3   162  THR162      0.1897
     82  C         -4.5530   -1.6060  -21.1540 C.2   162  THR162      0.2313
     83  O         -3.5390   -1.1780  -21.7040 O.2   162  THR162     -0.2863
     84  CB        -5.8150    0.0620  -22.5550 C.3   162  THR162      0.1794
     85  OG1       -5.4610    1.2790  -21.8850 O.3   162  THR162     -0.2208
     86  CG2       -7.1220    0.2390  -23.2700 C.3   162  THR162      0.0378
     87  N         -2.8580   -1.2880  -18.3640 N.3   164  LEU164     -0.1245
     88  CA        -2.0830   -0.5570  -17.3640 C.3   164  LEU164      0.1561
     89  C         -2.2160   -1.2240  -16.0030 C.2   164  LEU164      0.2260
     90  O         -3.3210   -1.4770  -15.5220 O.2   164  LEU164     -0.2867
     91  CB        -2.5630    0.8930  -17.2760 C.3   164  LEU164      0.0270
     92  CG        -2.4780    1.7510  -18.5360 C.3   164  LEU164      0.0019
     93  CD1       -3.3970    2.9540  -18.3970 C.3   164  LEU164      0.0001
     94  CD2       -1.0680    2.2110  -18.7500 C.3   164  LEU164      0.0001
     95  N         -5.7960   17.4140  -10.4600 N.3   194  ARG194     -0.1245
     96  CA        -6.6480   16.6090  -11.3370 C.3   194  ARG194      0.1563
     97  C         -6.3830   15.1440  -10.9930 C.2   194  ARG194      0.2260
     98  O         -5.2370   14.7170  -11.0550 O.2   194  ARG194     -0.2867
     99  CB        -6.2390   16.8450  -12.7850 C.3   194  ARG194      0.0307
    100  CG        -6.9590   15.9700  -13.8070 C.3   194  ARG194      0.0489
    101  CD        -6.3880   16.1410  -15.1940 C.3   194  ARG194      0.2205
    102  NE        -7.1460   15.3950  -16.2050 N.pl3 194  ARG194     -0.0865
    103  CZ        -6.8650   14.1560  -16.6370 C.cat 194  ARG194      0.5346
    104  NH1       -5.8390   13.4450  -16.1830 N.pl3 194  ARG194      0.1354
    105  NH2       -7.6450   13.6280  -17.5750 N.pl3 194  ARG194      0.1354
    106  N         -6.5250   11.8110  -12.3720 N.3   196  ASP196     -0.1225
    107  CA        -6.6070   11.0980  -13.6260 C.3   196  ASP196      0.1805
    108  C         -7.3400    9.7700  -13.4580 C.2   196  ASP196      0.2597
    109  O         -7.1570    9.0630  -12.4510 O.2   196  ASP196     -0.2718
    110  CB        -5.1970   10.8170  -14.1080 C.3   196  ASP196      0.1424
    111  CG        -5.1610   10.0460  -15.4140 C.2   196  ASP196      0.3668
    112  OD1       -5.4400   10.6620  -16.4840 O.co2 196  ASP196     -0.2456
    113  OD2       -4.8110    8.8380  -15.3970 O.co2 196  ASP196     -0.2456
    114  N         -8.1560    9.4080  -14.4410 N.am  197  ALA197     -0.1979
    115  CA        -8.7980    8.1040  -14.4970 C.3   197  ALA197      0.1597
    116  C         -9.5880    7.7940  -13.2180 C.2   197  ALA197      0.2287
    117  O         -9.5810    6.6670  -12.7260 O.2   197  ALA197     -0.2864
    118  CB        -7.7600    6.9950  -14.8130 C.3   197  ALA197      0.0319
    119  N        -12.7310    7.4200  -12.8400 N.3   199  LYS199     -0.1231
    120  CA       -13.7880    6.4180  -13.0540 C.3   199  LYS199      0.1693
    121  C        -13.2440    5.0150  -12.7150 C.2   199  LYS199      0.2592
    122  O        -13.9970    4.1060  -12.3580 O.2   199  LYS199     -0.2718
    123  CB       -14.2720    6.4700  -14.5110 C.3   199  LYS199      0.0285
    124  CG       -15.1450    5.3010  -14.9620 C.3   199  LYS199      0.0035
    125  CD       -15.3100    5.2890  -16.4770 C.3   199  LYS199      0.0206
    126  CE       -16.3750    6.2550  -16.9180 C.3   199  LYS199      0.1093
    127  NZ       -16.6090    6.1820  -18.4000 N.3   199  LYS199     -0.1314
    128  N        -11.9290    4.8620  -12.8180 N.am  200  HIS200     -0.1976
    129  CA       -11.2930    3.5660  -12.6390 C.3   200  HIS200      0.1656
    130  C        -10.8500    3.3190  -11.2140 C.2   200  HIS200      0.2291
    131  O        -10.2130    2.3140  -10.9240 O.2   200  HIS200     -0.2864
    132  CB       -10.1450    3.4580  -13.6230 C.3   200  HIS200      0.0771
    133  CG       -10.6160    3.5120  -15.0280 C.ar  200  HIS200      0.0820
    134  ND1      -11.1430    2.4060  -15.6660 N.ar  200  HIS200     -0.2267
    135  CD2      -10.7390    4.5450  -15.8920 C.ar  200  HIS200      0.1154
    136  CE1      -11.5350    2.7560  -16.8800 C.ar  200  HIS200      0.1986
    137  NE2      -11.2990    4.0460  -17.0420 N.ar  200  HIS200     -0.2212
    138  N        -11.2260   13.3180  -12.9180 N.3   232  GLU232     -0.1245
    139  CA       -11.5560   13.0080  -14.3110 C.3   232  GLU232      0.1567
    140  C        -12.4560   11.8050  -14.3320 C.2   232  GLU232      0.2260
    141  O        -12.0000   10.6650  -14.2030 O.2   232  GLU232     -0.2867
    142  CB       -10.3200   12.7240  -15.1580 C.3   232  GLU232      0.0388
    143  CG       -10.6890   12.5510  -16.6140 C.3   232  GLU232      0.1160
    144  CD        -9.8230   11.5630  -17.3510 C.2   232  GLU232      0.3649
    145  OE1       -9.1760   10.6890  -16.7540 O.co2 232  GLU232     -0.2457
    146  OE2       -9.7860   11.6550  -18.6050 O.co2 232  GLU232     -0.2457
    147  N        -15.3360   10.3910  -16.9280 N.3   234  ILE234     -0.1245
    148  CA       -15.9850   10.5500  -18.2210 C.3   234  ILE234      0.1561
    149  C        -17.3420    9.8740  -18.1550 C.2   234  ILE234      0.2260
    150  O        -17.4500    8.6410  -18.2170 O.2   234  ILE234     -0.2867
    151  CB       -15.1410    9.9550  -19.3690 C.3   234  ILE234      0.0252
    152  CG1      -13.7310   10.5470  -19.3330 C.3   234  ILE234      0.0019
    153  CG2      -15.8120   10.2020  -20.7140 C.3   234  ILE234      0.0019
    154  CD1      -12.7240    9.8130  -20.2140 C.3   234  ILE234      0.0001
    155  N         -6.9530   17.4050  -23.4990 N.3   298  HIS298     -0.1226
    156  CA        -5.7910   16.9300  -24.2140 C.3   298  HIS298      0.1752
    157  C         -6.0810   15.6220  -24.9470 C.2   298  HIS298      0.2596
    158  O         -5.4640   15.3280  -25.9720 O.2   298  HIS298     -0.2718
    159  CB        -4.6240   16.7790  -23.2460 C.3   298  HIS298      0.0759
    160  CG        -4.7950   15.6650  -22.2630 C.ar  298  HIS298      0.0818
    161  ND1       -5.4780   15.7910  -21.0640 N.ar  298  HIS298     -0.2268
    162  CD2       -4.3440   14.3900  -22.3090 C.ar  298  HIS298      0.1154
    163  CE1       -5.4410   14.6330  -20.4280 C.ar  298  HIS298      0.1986
    164  NE2       -4.7580   13.7710  -21.1580 N.ar  298  HIS298     -0.2212
    165  N         -7.0310   14.8540  -24.4280 N.am  299  ASP299     -0.1974
    166  CA        -7.4090   13.5840  -25.0310 C.3   299  ASP299      0.1709
    167  C         -8.3730   13.7860  -26.1880 C.2   299  ASP299      0.2293
    168  O         -8.0920   13.3850  -27.3170 O.2   299  ASP299     -0.2864
    169  CB        -8.0690   12.6840  -23.9870 C.3   299  ASP299      0.1436
    170  CG        -7.2350   12.5410  -22.7400 C.2   299  ASP299      0.3671
    171  OD1       -6.0710   12.1050  -22.8500 O.co2 299  ASP299     -0.2456
    172  OD2       -7.7400   12.8750  -21.6490 O.co2 299  ASP299     -0.2456
    173  N        -10.5060   10.9680  -30.6730 N.3   304  HIS304     -0.1226
    174  CA       -10.8400    9.6180  -30.2190 C.3   304  HIS304      0.1752
    175  C        -11.4910    9.6460  -28.8370 C.2   304  HIS304      0.2597
    176  O        -11.5380    8.6250  -28.1430 O.2   304  HIS304     -0.2718
    177  CB        -9.5890    8.7180  -30.2130 C.3   304  HIS304      0.0759
    178  CG        -8.5430    9.1120  -29.2090 C.ar  304  HIS304      0.0818
    179  ND1       -7.3350    9.6770  -29.5730 N.ar  304  HIS304     -0.2268
    180  CD2       -8.5080    8.9950  -27.8590 C.ar  304  HIS304      0.1154
    181  CE1       -6.6120    9.9030  -28.4900 C.ar  304  HIS304      0.1986
    182  NE2       -7.2990    9.4970  -27.4350 N.ar  304  HIS304     -0.2212
    183  N        -12.0190   10.8090  -28.4570 N.am  305  GLY305     -0.1942
    184  CA       -12.4000   11.0490  -27.0800 C.3   305  GLY305      0.2014
    185  C        -13.8800   11.1710  -26.7920 C.2   305  GLY305      0.2638
    186  O        -14.7370   11.0040  -27.6640 O.2   305  GLY305     -0.2714
    187  N        -14.1720   11.4520  -25.5280 N.am  306  ALA306     -0.1977
    188  CA       -15.5350   11.6790  -25.0840 C.3   306  ALA306      0.1597
    189  C        -16.0950   12.8980  -25.7980 C.2   306  ALA306      0.2287
    190  O        -15.6490   14.0200  -25.5410 O.2   306  ALA306     -0.2864
    191  CB       -15.5520   11.8980  -23.5880 C.3   306  ALA306      0.0319
@<TRIPOS>BOND
     1   173   174    1
     2   174   177    1
     3   174   175    1
     4   177   178    1
     5   179   178   ar
     6   179   181   ar
     7   178   180   ar
     8   175   183   am
     9   175   176    2
    10   181   182   ar
    11   183   184    1
    12   180   182   ar
    13    26    24   ar
    14    26    28   ar
    15    23    24   ar
    16    23    21   ar
    17   186   185    2
    18     9     7   ar
    19     9    10   ar
    20     7     6   ar
    21   168   167    2
    22    24    22   ar
    23   184   185    1
    24    28    27   ar
    25   185   187   am
    26    21    20   ar
    27    10    12   ar
    28    10     8   ar
    29     1     2    1
    30   167   166    1
    31     6     5    1
    32     6     8   ar
    33    12    14   ar
    34   158   157    2
    35   189   190    2
    36   189   188    1
    37    22    20   ar
    38    22    25   ar
    39   187   188    1
    40     5     2    1
    41    20    19    1
    42    27    25   ar
    43     8    11   ar
    44     2     3    1
    45   188   191    1
    46   166   165    1
    47   166   169    1
    48   157   165   am
    49   157   156    1
    50    14    13   ar
    51    15     3   am
    52    15    16    1
    53   156   155    1
    54   156   159    1
    55    19    16    1
    56     3     4    2
    57    11    13   ar
    58   169   170    1
    59    16    17    1
    60    86    84    1
    61   159   160    1
    62   171   170   ar
    63   170   172   ar
    64    17    18    2
    65    84    85    1
    66    84    81    1
    67   162   160   ar
    68   162   164   ar
    69   160   161   ar
    70    49    47   am
    71    83    82    2
    72    81    82    1
    73    81    80    1
    74   164   163   ar
    75   161   163   ar
    76   153   151    1
    77    68    66   ar
    78    68    70   ar
    79    66    65   ar
    80    47    48    2
    81    47    46    1
    82    80    74   am
    83   154   152    1
    84    36    38   ar
    85    36    34   ar
    86    38    39   ar
    87    71    70    1
    88    70    69   ar
    89    65    64    1
    90    65    67   ar
    91    60    61    1
    92    64    61    1
    93    46    45    1
    94    78    77    1
    95   151   152    1
    96   151   148    1
    97    74    75    2
    98    74    73    1
    99    69    67   ar
   100    29    30    1
   101    34    33    1
   102    34    35   ar
   103    40    39    1
   104    39    37   ar
   105    61    62    1
   106    33    30    1
   107    94    92    1
   108    77    79    1
   109    77    76    1
   110    45    42    1
   111   146   144   ar
   112    92    93    1
   113    92    91    1
   114   127   126    1
   115    87    88    1
   116    62    63    2
   117   148   149    1
   118   148   147    1
   119   150   149    2
   120    30    31    1
   121    73    76    1
   122    73    72    1
   123    41    31   am
   124    41    42    1
   125    35    37   ar
   126    31    32    2
   127   105   103    1
   128    42    43    1
   129    88    91    1
   130    88    89    1
   131   144   145   ar
   132   144   143    1
   133   137   136   ar
   134   137   135   ar
   135   126   125    1
   136   136   134   ar
   137    44    43    2
   138   103   102    2
   139   103   104    1
   140   143   142    1
   141   112   111   ar
   142   125   124    1
   143   102   101    1
   144    89    90    2
   145   135   133   ar
   146    59    58   ar
   147    59    57   ar
   148   134   133   ar
   149   111   113   ar
   150   111   110    1
   151    58    56   ar
   152   101   100    1
   153    57    55   ar
   154   142   139    1
   155   133   132    1
   156   124   123    1
   157   118   115    1
   158    56    55   ar
   159   123   120    1
   160   115   114    1
   161   115   116    1
   162    55    54    1
   163   114   108   am
   164   140   139    1
   165   140   141    2
   166   139   138    1
   167   110   107    1
   168   100    99    1
   169    54    51    1
   170   107   108    1
   171   107   106    1
   172   132   129    1
   173   108   109    2
   174   116   117    2
   175   120   119    1
   176   120   121    1
   177   128   121   am
   178   128   129    1
   179    99    96    1
   180   121   122    2
   181   129   130    1
   182    52    51    1
   183    52    53    2
   184    51    50    1
   185    96    97    1
   186    96    95    1
   187   130   131    2
   188    98    97    2
