@<TRIPOS>MOLECULE
tmp/5e0hA00.pdb
 140 133 0 0 0
SMALL
GASTEIGER

@<TRIPOS>ATOM
      1  N        -12.2440   31.3600   -4.3440 N.3    15  SER15      -0.1217
      2  CA       -13.6960   31.4010   -4.4440 C.3    15  SER15       0.1889
      3  C        -14.2130   30.7140   -5.7020 C.2    15  SER15       0.2288
      4  O        -15.3940   30.8590   -6.0500 O.2    15  SER15      -0.2866
      5  CB       -14.1680   32.8720   -4.4310 C.3    15  SER15       0.2089
      6  OG       -13.3090   33.6330   -5.2940 O.3    15  SER15      -0.2183
      7  N         -9.8360   36.8910  -10.5760 N.3    31  HIS31      -0.1226
      8  CA       -10.5540   37.4020   -9.4130 C.3    31  HIS31       0.1752
      9  C        -10.9860   36.3140   -8.4410 C.2    31  HIS31       0.2595
     10  O        -11.5180   36.6370   -7.3690 O.2    31  HIS31      -0.2718
     11  CB       -11.7680   38.2540   -9.8590 C.3    31  HIS31       0.0759
     12  CG       -12.9110   37.4600  -10.4020 C.ar   31  HIS31       0.0818
     13  ND1      -13.0570   37.1930  -11.7470 N.ar   31  HIS31      -0.2268
     14  CD2      -13.9720   36.8820   -9.7830 C.ar   31  HIS31       0.1154
     15  CE1      -14.1490   36.4710  -11.9320 C.ar   31  HIS31       0.1986
     16  NE2      -14.7190   36.2650  -10.7590 N.ar   31  HIS31      -0.2212
     17  N        -10.7680   35.0280   -8.7440 N.am   32  VAL32      -0.1980
     18  CA       -11.0380   34.0170   -7.7230 C.3    32  VAL32       0.1595
     19  C         -9.8050   33.7600   -6.8630 C.2    32  VAL32       0.2287
     20  O         -9.9230   33.1040   -5.8120 O.2    32  VAL32      -0.2864
     21  CB       -11.5220   32.6700   -8.3210 C.3    32  VAL32       0.0276
     22  CG1      -12.5840   32.8750   -9.3460 C.3    32  VAL32       0.0022
     23  CG2      -10.3800   31.8920   -8.9580 C.3    32  VAL32       0.0022
     24  N         -7.8540   38.9690  -16.6380 N.3    55  GLU55      -0.1245
     25  CA        -8.5750   37.9590  -15.8540 C.3    55  GLU55       0.1567
     26  C         -8.0770   36.5470  -16.1440 C.2    55  GLU55       0.2260
     27  O         -8.6740   35.5820  -15.6300 O.2    55  GLU55      -0.2867
     28  CB       -10.0960   38.0150  -16.0510 C.3    55  GLU55       0.0388
     29  CG       -10.7240   39.1600  -15.2910 C.3    55  GLU55       0.1160
     30  CD       -10.5420   38.9920  -13.8080 C.2    55  GLU55       0.3649
     31  OE1       -9.9420   39.8870  -13.1870 O.co2  55  GLU55      -0.2457
     32  OE2      -10.9560   37.9350  -13.2620 O.co2  55  GLU55      -0.2457
     33  N        -16.0620   44.1390  -17.2960 N.3   110  ILE110     -0.1231
     34  CA       -17.1100   43.4270  -16.5660 C.3   110  ILE110      0.1692
     35  C        -17.0040   43.8050  -15.0990 C.2   110  ILE110      0.2591
     36  O        -15.9900   43.5170  -14.4440 O.2   110  ILE110     -0.2718
     37  CB       -17.0350   41.9070  -16.7780 C.3   110  ILE110      0.0266
     38  CG1      -17.2910   41.6070  -18.2590 C.3   110  ILE110      0.0019
     39  CG2      -18.0850   41.1990  -15.9460 C.3   110  ILE110      0.0020
     40  CD1      -17.2010   40.1760  -18.6350 C.3   110  ILE110      0.0001
     41  N        -18.0530   44.4600  -14.5910 N.am  111  GLN111     -0.1979
     42  CA       -18.0430   45.0890  -13.2790 C.3   111  GLN111      0.1601
     43  C        -16.7030   45.7610  -13.0110 C.2   111  GLN111      0.2287
     44  O        -16.1520   45.6320  -11.9100 O.2   111  GLN111     -0.2864
     45  CB       -18.3580   44.0640  -12.1960 C.3   111  GLN111      0.0394
     46  CG       -19.7630   43.5010  -12.3050 C.3   111  GLN111      0.0908
     47  CD       -20.0280   42.3850  -11.3180 C.2   111  GLN111      0.2608
     48  OE1      -19.6070   41.2440  -11.5280 O.2   111  GLN111     -0.2717
     49  NE2      -20.7440   42.6990  -10.2460 N.am  111  GLN111     -0.0878
     50  N        -13.7060   45.2810  -14.4480 N.3   113  ARG113     -0.1245
     51  CA       -12.5080   44.5090  -14.7130 C.3   113  ARG113      0.1563
     52  C        -12.2990   44.3960  -16.2110 C.2   113  ARG113      0.2260
     53  O        -13.2450   44.1610  -16.9700 O.2   113  ARG113     -0.2867
     54  CB       -12.5970   43.1000  -14.1110 C.3   113  ARG113      0.0307
     55  CG       -13.1860   43.0250  -12.7210 C.3   113  ARG113      0.0489
     56  CD       -12.1430   43.1180  -11.6350 C.3   113  ARG113      0.2205
     57  NE       -11.1780   42.0290  -11.7650 N.pl3 113  ARG113     -0.0865
     58  CZ       -10.2170   41.7800  -10.8870 C.cat 113  ARG113      0.5346
     59  NH1      -10.0990   42.5390   -9.8050 N.pl3 113  ARG113      0.1354
     60  NH2       -9.3720   40.7710  -11.0940 N.pl3 113  ARG113      0.1354
     61  N        -11.4050   42.3070  -19.1120 N.3   115  VAL115     -0.1245
     62  CA       -11.4630   40.8810  -19.3950 C.3   115  VAL115      0.1561
     63  C        -11.0240   40.6810  -20.8280 C.2   115  VAL115      0.2260
     64  O        -11.6680   41.1790  -21.7590 O.2   115  VAL115     -0.2867
     65  CB       -12.8730   40.3080  -19.1830 C.3   115  VAL115      0.0252
     66  CG1      -12.8580   38.7720  -19.3580 C.3   115  VAL115      0.0019
     67  CG2      -13.3830   40.7000  -17.8380 C.3   115  VAL115      0.0019
     68  N        -24.2580   28.5110  -15.7210 N.3   127  THR127     -0.1203
     69  CA       -23.1900   28.6970  -14.7490 C.3   127  THR127      0.1994
     70  C        -23.7040   29.4780  -13.5470 C.2   127  THR127      0.2618
     71  O        -24.7290   30.1580  -13.6100 O.2   127  THR127     -0.2717
     72  CB       -21.9910   29.4030  -15.3830 C.3   127  THR127      0.1784
     73  OG1      -22.4020   30.6170  -16.0100 O.3   127  THR127     -0.2211
     74  CG2      -21.4000   28.4870  -16.4170 C.3   127  THR127      0.0376
     75  N        -22.9710   29.3840  -12.4450 N.am  128  ILE128     -0.1966
     76  CA       -23.3590   30.0840  -11.2240 C.3   128  ILE128      0.1712
     77  C        -22.1600   30.8680  -10.7080 C.2   128  ILE128      0.2458
     78  O        -21.0210   30.6470  -11.1720 O.2   128  ILE128     -0.2730
     79  CB       -23.8930   29.1030  -10.1660 C.3   128  ILE128      0.0289
     80  CG1      -22.8340   28.0230   -9.8570 C.3   128  ILE128      0.0022
     81  CG2      -25.1690   28.4790  -10.6270 C.3   128  ILE128      0.0023
     82  CD1      -23.1370   27.2610   -8.6090 C.3   128  ILE128      0.0001
     83  N        -22.3400   31.7540   -9.7240 N.am  129  PRO129     -0.2727
     84  CA       -21.2060   32.6040   -9.3100 C.3   129  PRO129      0.1402
     85  C        -19.9950   31.8330   -8.7260 C.2   129  PRO129      0.2269
     86  O        -18.8680   32.3610   -8.7530 O.2   129  PRO129     -0.2865
     87  CB       -21.8370   33.5510   -8.2800 C.3   129  PRO129      0.0296
     88  CG       -23.3210   33.6150   -8.6840 C.3   129  PRO129      0.0237
     89  CD       -23.6350   32.2330   -9.1840 C.3   129  PRO129      0.0939
     90  N        -16.3520   30.1850  -11.3760 N.3   132  CYS132     -0.1235
     91  CA       -15.2900   30.8380  -12.1330 C.3   132  CYS132      0.1677
     92  C        -13.9720   30.0790  -11.9710 C.2   132  CYS132      0.2270
     93  O        -13.6970   29.4930  -10.9260 O.2   132  CYS132     -0.2867
     94  CB       -15.1300   32.3040  -11.7090 C.3   132  CYS132      0.0956
     95  SG       -16.2740   33.3750  -12.5820 S.3   132  CYS132     -0.0801
     96  N        -13.4730   29.9800  -16.8950 N.3   150  HIS150     -0.1226
     97  CA       -14.7540   30.6620  -16.7890 C.3   150  HIS150      0.1752
     98  C        -14.6270   31.9480  -16.0070 C.2   150  HIS150      0.2596
     99  O        -14.0780   31.9590  -14.8960 O.2   150  HIS150     -0.2718
    100  CB       -15.7920   29.7860  -16.1030 C.3   150  HIS150      0.0759
    101  CG       -17.1590   30.3930  -16.1480 C.ar  150  HIS150      0.0818
    102  ND1      -17.8510   30.5290  -17.3300 N.ar  150  HIS150     -0.2268
    103  CD2      -17.9280   30.9620  -15.1870 C.ar  150  HIS150      0.1154
    104  CE1      -19.0100   31.1130  -17.0940 C.ar  150  HIS150      0.1986
    105  NE2      -19.0800   31.3960  -15.8040 N.ar  150  HIS150     -0.2212
    106  N        -15.2170   33.0240  -16.5490 N.am  151  ALA151     -0.1966
    107  CA       -15.0520   34.3480  -15.9590 C.3   151  ALA151      0.1728
    108  C        -16.3540   35.1200  -15.7260 C.2   151  ALA151      0.2616
    109  O        -16.4450   35.8720  -14.7550 O.2   151  ALA151     -0.2715
    110  CB       -14.1430   35.2110  -16.8450 C.3   151  ALA151      0.0334
    111  N        -17.3620   34.9350  -16.5730 N.am  152  ALA152     -0.1963
    112  CA       -18.5820   35.7290  -16.4530 C.3   152  ALA152      0.1728
    113  C        -19.7180   35.0430  -17.1890 C.2   152  ALA152      0.2616
    114  O        -19.5090   34.1540  -18.0130 O.2   152  ALA152     -0.2715
    115  CB       -18.3650   37.1520  -16.9970 C.3   152  ALA152      0.0334
    116  N        -20.9440   35.4760  -16.8870 N.am  153  ALA153     -0.1963
    117  CA       -22.0660   35.0850  -17.7300 C.3   153  ALA153      0.1728
    118  C        -23.1280   36.1730  -17.6490 C.2   153  ALA153      0.2617
    119  O        -23.1690   36.9440  -16.7000 O.2   153  ALA153     -0.2715
    120  CB       -22.6520   33.7260  -17.3270 C.3   153  ALA153      0.0334
    121  N        -23.9690   36.2310  -18.6720 N.am  154  THR154     -0.1937
    122  CA       -25.0110   37.2380  -18.7380 C.3   154  THR154      0.2028
    123  C        -26.1590   36.8800  -17.8060 C.2   154  THR154      0.2642
    124  O        -26.3030   35.7380  -17.3520 O.2   154  THR154     -0.2714
    125  CB       -25.5510   37.3750  -20.1590 C.3   154  THR154      0.1808
    126  OG1      -26.1100   36.1180  -20.5760 O.3   154  THR154     -0.2208
    127  CG2      -24.4480   37.8180  -21.1200 C.3   154  THR154      0.0379
    128  N        -27.0190   37.8800  -17.5850 N.am  155  LYS155     -0.1977
    129  CA       -28.1740   37.7390  -16.6970 C.3   155  LYS155      0.1596
    130  C        -29.0060   36.5000  -17.0250 C.2   155  LYS155      0.2287
    131  O        -29.3550   35.7160  -16.1350 O.2   155  LYS155     -0.2864
    132  CB       -29.0360   39.0020  -16.7830 C.3   155  LYS155      0.0298
    133  CG       -28.4470   40.2060  -16.0700 C.3   155  LYS155      0.0038
    134  CD       -28.3250   39.9340  -14.5830 C.3   155  LYS155      0.0206
    135  CE       -27.8210   41.1450  -13.8310 C.3   155  LYS155      0.1093
    136  NZ       -26.4110   41.4390  -14.1780 N.3   155  LYS155     -0.1314
    137  N        -27.9300   33.9620  -18.5230 N.3   157  GLY157     -0.1225
    138  CA       -27.0350   32.8200  -18.4920 C.3   157  GLY157      0.1811
    139  C        -26.7640   32.1870  -19.8440 C.2   157  GLY157      0.2280
    140  O        -25.8840   31.3160  -19.9380 O.2   157  GLY157     -0.2866
@<TRIPOS>BOND
     1    64    63    2
     2   127   125    1
     3    63    62    1
     4   126   125    1
     5   125   122    1
     6   140   139    2
     7   139   138    1
     8    62    65    1
     9    62    61    1
    10    66    65    1
    11    65    67    1
    12   122   121    1
    13   122   123    1
    14   121   118   am
    15    40    38    1
    16   137   138    1
    17    38    37    1
    18   114   113    2
    19   123   128   am
    20   123   124    2
    21   117   118    1
    22   117   120    1
    23   117   116    1
    24   118   119    2
    25   128   129    1
    26   102   104   ar
    27   102   101   ar
    28    33    34    1
    29   113   116   am
    30   113   112    1
    31   104   105   ar
    32   130   129    1
    33   130   131    2
    34   115   112    1
    35    53    52    2
    36    96    97    1
    37   110   107    1
    38    97   100    1
    39    97    98    1
    40   132   129    1
    41   132   133    1
    42    37    34    1
    43    37    39    1
    44    24    25    1
    45   111   112    1
    46   111   108   am
    47    34    35    1
    48   106    98   am
    49   106   107    1
    50    74    72    1
    51    52    51    1
    52   101   100    1
    53   101   103   ar
    54    26    25    1
    55    26    27    2
    56   133   134    1
    57    28    25    1
    58    28    29    1
    59    73    72    1
    60    98    99    2
    61   107   108    1
    62   105   103   ar
    63   108   109    2
    64    68    69    1
    65    72    69    1
    66    29    30    1
    67    35    41   am
    68    35    36    2
    69    69    70    1
    70    51    50    1
    71    51    54    1
    72    41    42    1
    73   134   135    1
    74   136   135    1
    75    54    55    1
    76    30    32   ar
    77    30    31   ar
    78    71    70    2
    79    70    75   am
    80    42    43    1
    81    42    45    1
    82    43    44    2
    83    55    56    1
    84    95    94    1
    85    75    76    1
    86    46    45    1
    87    46    47    1
    88    91    92    1
    89    91    94    1
    90    91    90    1
    91    92    93    2
    92    15    13   ar
    93    15    16   ar
    94    57    56    1
    95    57    58    2
    96    13    12   ar
    97    48    47    2
    98    47    49   am
    99    76    77    1
   100    76    79    1
   101    78    77    2
   102    60    58    1
   103    58    59    1
   104    16    14   ar
   105    77    83   am
   106    81    79    1
   107     7     8    1
   108    12    11    1
   109    12    14   ar
   110    79    80    1
   111    11     8    1
   112    80    82    1
   113    83    84    1
   114    83    89    1
   115     8     9    1
   116    22    21    1
   117    84    85    1
   118    84    87    1
   119    89    88    1
   120    23    21    1
   121    86    85    2
   122    17     9   am
   123    17    18    1
   124    88    87    1
   125     9    10    2
   126    21    18    1
   127    18    19    1
   128    19    20    2
   129     4     3    2
   130     3     2    1
   131     6     5    1
   132     2     5    1
   133     2     1    1
