@<TRIPOS>MOLECULE
tmp/5e0iA00.pdb
 145 140 0 0 0
SMALL
GASTEIGER

@<TRIPOS>ATOM
      1  N        145.7380  -53.2600  132.7080 N.3    24  PHE24      -0.1241
      2  CA       145.8540  -53.7250  131.3010 C.3    24  PHE24       0.1605
      3  C        147.2060  -54.3980  130.9810 C.2    24  PHE24       0.2264
      4  O        147.2550  -55.3380  130.1360 O.2    24  PHE24      -0.2867
      5  CB       145.6370  -52.5260  130.3620 C.3    24  PHE24       0.0534
      6  CG       145.9540  -52.7580  128.9080 C.ar   24  PHE24      -0.0203
      7  CD1      144.9860  -53.1690  128.0280 C.ar   24  PHE24      -0.0042
      8  CD2      147.1890  -52.4790  128.4000 C.ar   24  PHE24      -0.0042
      9  CE1      145.2770  -53.3610  126.7210 C.ar   24  PHE24      -0.0003
     10  CE2      147.4790  -52.6380  127.0720 C.ar   24  PHE24      -0.0003
     11  CZ       146.5150  -53.0530  126.2230 C.ar   24  PHE24      -0.0000
     12  N        150.7400  -56.4440  130.9450 N.3    26  PRO26      -0.2116
     13  CA       151.4800  -57.5530  131.5650 C.3    26  PRO26       0.1372
     14  C        152.5570  -57.0200  132.5410 C.2    26  PRO26       0.2244
     15  O        152.8800  -55.8120  132.5560 O.2    26  PRO26      -0.2868
     16  CB       152.0880  -58.2890  130.3820 C.3    26  PRO26       0.0268
     17  CG       151.2870  -57.8740  129.1740 C.3    26  PRO26       0.0207
     18  CD       150.8530  -56.4660  129.4790 C.3    26  PRO26       0.0892
     19  N        157.0320  -60.5950  132.6190 N.3    30  ASP30      -0.1225
     20  CA       156.3790  -61.2880  131.4760 C.3    30  ASP30       0.1805
     21  C        156.6590  -60.6040  130.1350 C.2    30  ASP30       0.2597
     22  O        156.7970  -61.2430  129.0800 O.2    30  ASP30      -0.2718
     23  CB       154.8660  -61.4340  131.7480 C.3    30  ASP30       0.1424
     24  CG       154.5740  -62.5180  132.7830 C.2    30  ASP30       0.3668
     25  OD1      155.4630  -63.3620  132.9910 O.co2  30  ASP30      -0.2456
     26  OD2      153.4510  -62.5870  133.3550 O.co2  30  ASP30      -0.2456
     27  N        156.7970  -59.2910  130.1620 N.am   31  LEU31      -0.1979
     28  CA       157.2030  -58.5730  128.9530 C.3    31  LEU31       0.1596
     29  C        158.6100  -58.9570  128.5180 C.2    31  LEU31       0.2287
     30  O        158.8720  -59.1040  127.3430 O.2    31  LEU31      -0.2864
     31  CB       157.0690  -57.0630  129.1860 C.3    31  LEU31       0.0297
     32  CG       155.6000  -56.5630  129.3500 C.3    31  LEU31       0.0022
     33  CD1      155.5090  -55.1620  129.9670 C.3    31  LEU31       0.0001
     34  CD2      154.8630  -56.5640  128.0400 C.3    31  LEU31       0.0001
     35  N        158.6260  -62.2700  127.0870 N.3    34  THR34      -0.1218
     36  CA       158.0520  -62.2570  125.7260 C.3    34  THR34       0.1862
     37  C        158.9960  -61.6390  124.6720 C.2    34  THR34       0.2287
     38  O        159.0680  -62.0810  123.5250 O.2    34  THR34      -0.2866
     39  CB       156.6330  -61.6070  125.7120 C.3    34  THR34       0.1770
     40  OG1      155.7460  -62.3110  126.6040 O.3    34  THR34      -0.2211
     41  CG2      156.0650  -61.5630  124.2980 C.3    34  THR34       0.0375
     42  N        160.1950  -63.9620  121.4190 N.3    38  LEU38      -0.1245
     43  CA       159.9690  -63.5060  120.0470 C.3    38  LEU38       0.1561
     44  C        161.1670  -62.8680  119.3620 C.2    38  LEU38       0.2260
     45  O        161.2940  -62.9790  118.1610 O.2    38  LEU38      -0.2867
     46  CB       158.8010  -62.5130  120.0210 C.3    38  LEU38       0.0270
     47  CG       157.4160  -63.0420  120.4670 C.3    38  LEU38       0.0019
     48  CD1      156.3810  -61.9160  120.4920 C.3    38  LEU38       0.0001
     49  CD2      156.8980  -64.1750  119.5910 C.3    38  LEU38       0.0001
     50  N        155.7260  -52.9670  126.6960 N.3   103  TRP103     -0.1241
     51  CA       154.5460  -53.3720  125.9260 C.3   103  TRP103      0.1605
     52  C        154.4490  -52.6220  124.6290 C.2   103  TRP103      0.2264
     53  O        154.2320  -53.2140  123.6760 O.2   103  TRP103     -0.2867
     54  CB       153.2400  -53.2040  126.7460 C.3   103  TRP103      0.0550
     55  CG       152.0210  -53.6120  125.9880 C.ar  103  TRP103      0.0003
     56  CD1      151.4620  -54.8840  125.9380 C.ar  103  TRP103      0.0946
     57  CD2      151.2090  -52.7940  125.1680 C.ar  103  TRP103      0.0152
     58  NE1      150.3660  -54.8750  125.1410 N.ar  103  TRP103     -0.2442
     59  CE2      150.1790  -53.6120  124.6560 C.ar  103  TRP103      0.0810
     60  CE3      151.2100  -51.4170  124.8390 C.ar  103  TRP103      0.0012
     61  CZ2      149.1720  -53.1060  123.8540 C.ar  103  TRP103      0.0191
     62  CZ3      150.2200  -50.9340  124.0400 C.ar  103  TRP103      0.0001
     63  CH2      149.2240  -51.7650  123.5420 C.ar  103  TRP103      0.0015
     64  N        157.1630  -53.9370  122.1000 N.3   106  ILE106     -0.1231
     65  CA       157.0810  -55.3570  121.6850 C.3   106  ILE106      0.1692
     66  C        155.8250  -55.5730  120.8540 C.2   106  ILE106      0.2592
     67  O        155.8230  -56.3570  119.8970 O.2   106  ILE106     -0.2718
     68  CB       157.1120  -56.3390  122.8670 C.3   106  ILE106      0.0266
     69  CG1      158.4050  -56.1290  123.6840 C.3   106  ILE106      0.0019
     70  CG2      156.9670  -57.7420  122.3190 C.3   106  ILE106      0.0020
     71  CD1      158.3280  -56.6830  125.0680 C.3   106  ILE106      0.0001
     72  N        154.7730  -54.8380  121.2130 N.am  107  SER107     -0.1952
     73  CA       153.5010  -54.8980  120.4900 C.3   107  SER107      0.1924
     74  C        153.6360  -54.2860  119.1400 C.2   107  SER107      0.2314
     75  O        153.0790  -54.7950  118.1630 O.2   107  SER107     -0.2863
     76  CB       152.4090  -54.1700  121.2570 C.3   107  SER107      0.2116
     77  OG       152.2720  -54.9470  122.4290 O.3   107  SER107     -0.2180
     78  N        155.2580  -56.5480  116.8210 N.3   110  THR110     -0.1203
     79  CA       154.4400  -57.7070  116.4420 C.3   110  THR110      0.1994
     80  C        153.2780  -57.3770  115.4930 C.2   110  THR110      0.2617
     81  O        153.1160  -57.9960  114.4810 O.2   110  THR110     -0.2717
     82  CB       153.8800  -58.3400  117.7050 C.3   110  THR110      0.1784
     83  OG1      154.9560  -58.5030  118.6410 O.3   110  THR110     -0.2211
     84  CG2      153.1650  -59.6890  117.3980 C.3   110  THR110      0.0376
     85  N        152.4830  -56.3690  115.8460 N.am  111  PHE111     -0.1975
     86  CA       151.3060  -56.0030  115.0950 C.3   111  PHE111      0.1639
     87  C        151.4660  -54.7530  114.2450 C.2   111  PHE111      0.2290
     88  O        150.6000  -54.4760  113.4110 O.2   111  PHE111     -0.2864
     89  CB       150.1240  -55.8170  116.0890 C.3   111  PHE111      0.0560
     90  CG       149.9200  -56.9920  116.9650 C.ar  111  PHE111     -0.0200
     91  CD1      149.2450  -58.0950  116.4960 C.ar  111  PHE111     -0.0042
     92  CD2      150.4710  -57.0350  118.2290 C.ar  111  PHE111     -0.0042
     93  CE1      149.0860  -59.2130  117.2830 C.ar  111  PHE111     -0.0003
     94  CE2      150.3130  -58.1540  119.0230 C.ar  111  PHE111     -0.0003
     95  CZ       149.6320  -59.2340  118.5490 C.ar  111  PHE111     -0.0000
     96  N        144.2200  -50.3430  118.8590 N.3   119  TYR119     -0.1241
     97  CA       143.9230  -51.1760  120.0420 C.3   119  TYR119      0.1605
     98  C        143.9140  -50.4080  121.3530 C.2   119  TYR119      0.2264
     99  O        143.0760  -50.6440  122.2610 O.2   119  TYR119     -0.2867
    100  CB       144.9300  -52.3810  120.1930 C.3   119  TYR119      0.0534
    101  CG       144.4610  -53.3760  121.2080 C.ar  119  TYR119     -0.0201
    102  CD1      143.2570  -54.0470  121.0210 C.ar  119  TYR119     -0.0009
    103  CD2      145.1550  -53.5990  122.3730 C.ar  119  TYR119     -0.0009
    104  CE1      142.7850  -54.9360  121.9650 C.ar  119  TYR119      0.0417
    105  CE2      144.6840  -54.4680  123.3420 C.ar  119  TYR119      0.0417
    106  CZ       143.5060  -55.1490  123.1400 C.ar  119  TYR119      0.1957
    107  OH       143.0380  -56.0310  124.0650 O.3   119  TYR119     -0.2866
    108  N        140.5870  -50.5630  123.6450 N.3   123  PHE123     -0.1241
    109  CA       140.5620  -51.0590  125.0270 C.3   123  PHE123      0.1605
    110  C        140.2210  -49.9600  126.0150 C.2   123  PHE123      0.2264
    111  O        139.4120  -50.1650  126.9340 O.2   123  PHE123     -0.2867
    112  CB       141.8910  -51.7330  125.4370 C.3   123  PHE123      0.0534
    113  CG       141.7890  -52.5090  126.7050 C.ar  123  PHE123     -0.0203
    114  CD1      141.7750  -51.8440  127.9380 C.ar  123  PHE123     -0.0042
    115  CD2      141.7030  -53.8810  126.6890 C.ar  123  PHE123     -0.0042
    116  CE1      141.6890  -52.5310  129.1250 C.ar  123  PHE123     -0.0003
    117  CE2      141.6060  -54.5810  127.8820 C.ar  123  PHE123     -0.0003
    118  CZ       141.6070  -53.8890  129.1050 C.ar  123  PHE123     -0.0000
    119  N        136.9420  -58.2640  126.4220 N.3   138  ALA138     -0.1245
    120  CA       137.7290  -57.1590  125.9270 C.3   138  ALA138      0.1562
    121  C        137.9350  -57.3190  124.4330 C.2   138  ALA138      0.2260
    122  O        137.9310  -58.4270  123.9290 O.2   138  ALA138     -0.2867
    123  CB       139.0930  -57.1690  126.6330 C.3   138  ALA138      0.0290
    124  N        140.2820  -57.6170  121.1050 N.3   140  ILE140     -0.1231
    125  CA       141.3820  -58.5540  120.9350 C.3   140  ILE140      0.1692
    126  C        142.4320  -57.9030  120.0920 C.2   140  ILE140      0.2592
    127  O        142.1420  -57.4390  118.9920 O.2   140  ILE140     -0.2718
    128  CB       140.9500  -59.8830  120.2400 C.3   140  ILE140      0.0266
    129  CG1      139.9310  -60.6320  121.1040 C.3   140  ILE140      0.0019
    130  CG2      142.1860  -60.7420  119.9470 C.3   140  ILE140      0.0020
    131  CD1      139.2050  -61.7540  120.3980 C.3   140  ILE140      0.0001
    132  N        143.6690  -57.8950  120.5920 N.am  141  LEU141     -0.1966
    133  CA       144.7660  -57.4080  119.8040 C.3   141  LEU141      0.1728
    134  C        145.2190  -58.5000  118.8300 C.2   141  LEU141      0.2616
    135  O        145.6720  -59.5710  119.2660 O.2   141  LEU141     -0.2715
    136  CB       145.9310  -57.0290  120.7180 C.3   141  LEU141      0.0311
    137  CG       147.1960  -56.5800  120.0160 C.3   141  LEU141      0.0022
    138  CD1      146.9470  -55.4120  119.1010 C.3   141  LEU141      0.0001
    139  CD2      148.2130  -56.2060  121.0700 C.3   141  LEU141      0.0001
    140  N        145.0650  -58.2290  117.5320 N.am  142  SER142     -0.1950
    141  CA       145.6070  -59.0780  116.4590 C.3   142  SER142      0.1924
    142  C        145.5810  -58.2730  115.1780 C.2   142  SER142      0.2314
    143  O        144.9880  -57.2020  115.1470 O.2   142  SER142     -0.2863
    144  CB       144.7850  -60.3720  116.2790 C.3   142  SER142      0.2116
    145  OG       143.5890  -60.0780  115.6180 O.3   142  SER142     -0.2180
@<TRIPOS>BOND
     1    88    87    2
     2    87    86    1
     3    81    80    2
     4    86    85    1
     5    86    89    1
     6   143   142    2
     7   142   141    1
     8    80    85   am
     9    80    79    1
    10   145   144    1
    11    89    90    1
    12   144   141    1
    13    79    78    1
    14    79    82    1
    15   141   140    1
    16    91    90   ar
    17    91    93   ar
    18    90    92   ar
    19    93    95   ar
    20    84    82    1
    21   140   134   am
    22    82    83    1
    23    45    44    2
    24    75    74    2
    25    92    94   ar
    26    95    94   ar
    27   134   135    2
    28   134   133    1
    29    96    97    1
    30   127   126    2
    31   138   137    1
    32    74    73    1
    33    44    43    1
    34    49    47    1
    35   133   132    1
    36   133   136    1
    37    67    66    2
    38   130   128    1
    39   137   136    1
    40   137   139    1
    41    46    43    1
    42    46    47    1
    43    97   100    1
    44    97    98    1
    45    43    42    1
    46   126   132   am
    47   126   125    1
    48   100   101    1
    49   128   125    1
    50   128   129    1
    51   131   129    1
    52    47    48    1
    53    73    72    1
    54    73    76    1
    55    66    72   am
    56    66    65    1
    57   125   124    1
    58   102   101   ar
    59   102   104   ar
    60   101   103   ar
    61    76    77    1
    62    98    99    2
    63    65    64    1
    64    65    68    1
    65   104   106   ar
    66    70    68    1
    67   103   105   ar
    68    68    69    1
    69   106   105   ar
    70   106   107    1
    71    38    37    2
    72    63    61   ar
    73    63    62   ar
    74   108   109    1
    75    53    52    2
    76    69    71    1
    77    61    59   ar
    78   122   121    2
    79    62    60   ar
    80    41    39    1
    81   121   120    1
    82    52    51    1
    83    59    58   ar
    84    59    57   ar
    85    37    36    1
    86    60    57   ar
    87   109   112    1
    88   109   110    1
    89    58    56   ar
    90    57    55   ar
    91   112   113    1
    92    39    36    1
    93    39    40    1
    94    36    35    1
    95    51    50    1
    96    51    54    1
    97   120   119    1
    98   120   123    1
    99    56    55   ar
   100    55    54    1
   101   110   111    2
   102    11     9   ar
   103    11    10   ar
   104   115   113   ar
   105   115   117   ar
   106   113   114   ar
   107     9     7   ar
   108    10     8   ar
   109    30    29    2
   110   117   118   ar
   111   114   116   ar
   112     7     6   ar
   113    34    32    1
   114     8     6   ar
   115    29    28    1
   116     6     5    1
   117    28    31    1
   118    28    27    1
   119    22    21    2
   120   118   116   ar
   121    17    18    1
   122    17    16    1
   123    31    32    1
   124    32    33    1
   125    18    12    1
   126    21    27   am
   127    21    20    1
   128     4     3    2
   129     5     2    1
   130    16    13    1
   131    12    13    1
   132     3     2    1
   133     2     1    1
   134    20    23    1
   135    20    19    1
   136    13    14    1
   137    23    24    1
   138    14    15    2
   139    24    25   ar
   140    24    26   ar
