@<TRIPOS>MOLECULE
tmp/5e0iA01.pdb
 86 86 0 0 0
SMALL
GASTEIGER

@<TRIPOS>ATOM
      1  N        146.2060  -43.4920  128.6210 N.3    19  PHE19      -0.1241
      2  CA       144.7660  -43.8540  128.4530 C.3    19  PHE19       0.1605
      3  C        144.4480  -45.3070  128.8810 C.2    19  PHE19       0.2264
      4  O        143.2820  -45.6820  129.1720 O.2    19  PHE19      -0.2867
      5  CB       144.3590  -43.5850  126.9660 C.3    19  PHE19       0.0534
      6  CG       142.8620  -43.5690  126.7230 C.ar   19  PHE19      -0.0203
      7  CD1      142.0070  -42.8080  127.5100 C.ar   19  PHE19      -0.0042
      8  CD2      142.3140  -44.3120  125.6960 C.ar   19  PHE19      -0.0042
      9  CE1      140.6550  -42.8030  127.2770 C.ar   19  PHE19      -0.0003
     10  CE2      140.9500  -44.3600  125.4950 C.ar   19  PHE19      -0.0003
     11  CZ       140.1120  -43.6200  126.2980 C.ar   19  PHE19      -0.0000
     12  N        140.6840  -48.6310  121.4670 N.3   122  SER122     -0.1217
     13  CA       139.5300  -49.5910  121.6900 C.3   122  SER122      0.1889
     14  C        139.4540  -50.1200  123.0940 C.2   122  SER122      0.2288
     15  O        138.3880  -50.1340  123.6970 O.2   122  SER122     -0.2866
     16  CB       139.4810  -50.7790  120.7160 C.3   122  SER122      0.2089
     17  OG       139.6830  -50.3320  119.3910 O.3   122  SER122     -0.2183
     18  N        138.4970  -47.2680  125.6200 N.3   125  VAL125     -0.1231
     19  CA       137.0610  -46.9960  125.5730 C.3   125  VAL125      0.1692
     20  C        136.2330  -48.1140  126.2040 C.2   125  VAL125      0.2592
     21  O        135.2640  -47.8400  126.9500 O.2   125  VAL125     -0.2718
     22  CB       136.6170  -46.6850  124.1470 C.3   125  VAL125      0.0266
     23  CG1      135.1090  -46.5400  124.0490 C.3   125  VAL125      0.0020
     24  CG2      137.2970  -45.4300  123.6490 C.3   125  VAL125      0.0020
     25  N        136.5390  -49.3620  125.8610 N.am  126  TRP126     -0.1976
     26  CA       135.8740  -50.5120  126.4440 C.3   126  TRP126      0.1640
     27  C        135.8840  -50.5710  127.9970 C.2   126  TRP126      0.2290
     28  O        134.8310  -50.7700  128.6380 O.2   126  TRP126     -0.2864
     29  CB       136.4490  -51.8300  125.8550 C.3   126  TRP126      0.0576
     30  CG       135.8020  -53.1110  126.4180 C.ar  126  TRP126      0.0006
     31  CD1      134.6230  -53.6510  126.0510 C.ar  126  TRP126      0.0946
     32  CD2      136.2960  -53.9400  127.4690 C.ar  126  TRP126      0.0152
     33  NE1      134.3820  -54.8080  126.7500 N.ar  126  TRP126     -0.2442
     34  CE2      135.3650  -54.9750  127.6660 C.ar  126  TRP126      0.0810
     35  CE3      137.4590  -53.9310  128.2370 C.ar  126  TRP126      0.0012
     36  CZ2      135.5640  -56.0170  128.5830 C.ar  126  TRP126      0.0191
     37  CZ3      137.6530  -54.9650  129.1860 C.ar  126  TRP126      0.0001
     38  CH2      136.7080  -55.9790  129.3450 C.ar  126  TRP126      0.0015
     39  N        136.2900  -48.2750  130.1040 N.3   128  ARG128     -0.1231
     40  CA       135.5330  -47.1290  130.6490 C.3   128  ARG128      0.1694
     41  C        134.0060  -47.2010  130.4500 C.2   128  ARG128      0.2593
     42  O        133.2850  -46.3750  130.9450 O.2   128  ARG128     -0.2718
     43  CB       136.0500  -45.8560  129.9980 C.3   128  ARG128      0.0321
     44  CG       137.4710  -45.4670  130.4170 C.3   128  ARG128      0.0489
     45  CD       138.0140  -44.2610  129.6720 C.3   128  ARG128      0.2205
     46  NE       139.2050  -43.6840  130.3430 N.pl3 128  ARG128     -0.0865
     47  CZ       140.4240  -44.2640  130.3550 C.cat 128  ARG128      0.5346
     48  NH1      140.6490  -45.4160  129.6870 N.pl3 128  ARG128      0.1354
     49  NH2      141.4210  -43.6830  131.0140 N.pl3 128  ARG128      0.1354
     50  N        133.5410  -48.1720  129.6840 N.am  129  THR129     -0.1940
     51  CA       132.1220  -48.3980  129.5090 C.3   129  THR129      0.2013
     52  C        131.6300  -49.1830  130.7150 C.2   129  THR129      0.2484
     53  O        132.2790  -50.1070  131.1180 O.2   129  THR129     -0.2729
     54  CB       131.8880  -49.1490  128.2010 C.3   129  THR129      0.1807
     55  OG1      132.5800  -48.4410  127.1610 O.3   129  THR129     -0.2208
     56  CG2      130.4620  -49.2210  127.8810 C.3   129  THR129      0.0379
     57  N        130.4720  -48.8200  131.2900 N.am  130  PRO130     -0.2726
     58  CA       130.0290  -49.5570  132.4670 C.3   130  PRO130      0.1402
     59  C        129.9370  -51.0590  132.1570 C.2   130  PRO130      0.2269
     60  O        129.4540  -51.4330  131.0710 O.2   130  PRO130     -0.2865
     61  CB       128.6770  -48.9170  132.8090 C.3   130  PRO130      0.0296
     62  CG       128.7910  -47.5320  132.3330 C.3   130  PRO130      0.0237
     63  CD       129.6160  -47.6340  131.0470 C.3   130  PRO130      0.0939
     64  N        126.8910  -52.7530  130.7200 N.3   133  ALA133     -0.1231
     65  CA       126.4730  -52.2090  129.4340 C.3   133  ALA133      0.1694
     66  C        127.3760  -52.5360  128.2300 C.2   133  ALA133      0.2592
     67  O        127.0730  -52.1430  127.0720 O.2   133  ALA133     -0.2718
     68  CB       126.3800  -50.6990  129.5590 C.3   133  ALA133      0.0304
     69  N        128.4920  -53.2070  128.5010 N.am  134  ARG134     -0.1966
     70  CA       129.5150  -53.4480  127.4830 C.3   134  ARG134      0.1714
     71  C        129.5650  -54.9170  127.1830 C.2   134  ARG134      0.2458
     72  O        129.0930  -55.6890  127.9940 O.2   134  ARG134     -0.2730
     73  CB       130.8840  -52.9290  127.9650 C.3   134  ARG134      0.0347
     74  CG       131.6200  -53.8350  128.9180 C.3   134  ARG134      0.0492
     75  CD       132.7830  -53.1100  129.5760 C.3   134  ARG134      0.2205
     76  NE       133.4480  -53.9780  130.5320 N.pl3 134  ARG134     -0.0865
     77  CZ       134.2370  -53.5670  131.5260 C.cat 134  ARG134      0.5346
     78  NH1      134.4370  -52.2860  131.7390 N.pl3 134  ARG134      0.1354
     79  NH2      134.8240  -54.4580  132.3070 N.pl3 134  ARG134      0.1354
     80  N        130.1290  -55.3140  126.0290 N.am  135  PRO135     -0.2727
     81  CA       130.4350  -56.7240  125.7410 C.3   135  PRO135      0.1402
     82  C        131.2080  -57.3990  126.8380 C.2   135  PRO135      0.2269
     83  O        132.1250  -56.7970  127.3790 O.2   135  PRO135     -0.2865
     84  CB       131.2910  -56.6440  124.4720 C.3   135  PRO135      0.0296
     85  CG       130.8610  -55.3700  123.8140 C.3   135  PRO135      0.0237
     86  CD       130.4930  -54.4310  124.9070 C.3   135  PRO135      0.0939
@<TRIPOS>BOND
     1    17    16    1
     2    16    13    1
     3    12    13    1
     4    13    14    1
     5    14    15    2
     6    24    22    1
     7    85    84    1
     8    85    86    1
     9    23    22    1
    10    22    19    1
    11    84    81    1
    12    86    80    1
    13    10     8   ar
    14    10    11   ar
    15    19    18    1
    16    19    20    1
    17     8     6   ar
    18    81    80    1
    19    81    82    1
    20    29    30    1
    21    29    26    1
    22    25    20   am
    23    25    26    1
    24    80    71   am
    25    31    30   ar
    26    31    33   ar
    27    20    21    2
    28    11     9   ar
    29    30    32   ar
    30    26    27    1
    31     6     5    1
    32     6     7   ar
    33    33    34   ar
    34    82    83    2
    35     5     2    1
    36    67    66    2
    37    55    54    1
    38    71    70    1
    39    71    72    2
    40     9     7   ar
    41    32    34   ar
    42    32    35   ar
    43    70    73    1
    44    70    69    1
    45    34    36   ar
    46    56    54    1
    47    73    74    1
    48    27    28    2
    49    54    51    1
    50    66    69   am
    51    66    65    1
    52    35    37   ar
    53     2     1    1
    54     2     3    1
    55    36    38   ar
    56     3     4    2
    57    74    75    1
    58    37    38   ar
    59    65    68    1
    60    65    64    1
    61    51    50    1
    62    51    52    1
    63    75    76    1
    64    45    46    1
    65    45    44    1
    66    50    41   am
    67    48    47    1
    68    43    44    1
    69    43    40    1
    70    39    40    1
    71    46    47    2
    72    47    49    1
    73    41    40    1
    74    41    42    2
    75    76    77    2
    76    52    53    2
    77    52    57   am
    78    63    57    1
    79    63    62    1
    80    60    59    2
    81    57    58    1
    82    77    78    1
    83    77    79    1
    84    59    58    1
    85    62    61    1
    86    58    61    1
