@<TRIPOS>MOLECULE
tmp/5e0jA00.pdb
 186 178 0 0 0
SMALL
GASTEIGER

@<TRIPOS>ATOM
      1  N         71.0790  -52.9910   15.7780 N.3    31  HIS31      -0.1226
      2  CA        70.4280  -54.1870   15.2720 C.3    31  HIS31       0.1752
      3  C         70.0120  -54.0830   13.8110 C.2    31  HIS31       0.2595
      4  O         69.7230  -55.1230   13.2160 O.2    31  HIS31      -0.2718
      5  CB        69.2620  -54.6340   16.1620 C.3    31  HIS31       0.0759
      6  CG        68.0380  -53.7730   16.0760 C.ar   31  HIS31       0.0818
      7  ND1       67.8070  -52.7180   16.9260 N.ar   31  HIS31      -0.2268
      8  CD2       66.9280  -53.8820   15.3070 C.ar   31  HIS31       0.1154
      9  CE1       66.6310  -52.1760   16.6470 C.ar   31  HIS31       0.1986
     10  NE2       66.0730  -52.8710   15.6750 N.ar   31  HIS31      -0.2212
     11  N         70.0080  -52.8920   13.2010 N.am   32  VAL32      -0.1980
     12  CA        69.6770  -52.8090   11.7740 C.3    32  VAL32       0.1595
     13  C         70.9070  -52.8950   10.8810 C.2    32  VAL32       0.2287
     14  O         70.7560  -52.9890    9.6580 O.2    32  VAL32      -0.2864
     15  CB        68.8150  -51.5920   11.3760 C.3    32  VAL32       0.0276
     16  CG1       67.6290  -51.4670   12.3020 C.3    32  VAL32       0.0022
     17  CG2       69.6290  -50.3200   11.3640 C.3    32  VAL32       0.0022
     18  N         72.9670  -50.5530   21.6310 N.3    55  GLU55      -0.1245
     19  CA        72.1390  -50.3860   20.4400 C.3    55  GLU55       0.1567
     20  C         72.3900  -49.0720   19.7070 C.2    55  GLU55       0.2260
     21  O         71.7150  -48.8160   18.7290 O.2    55  GLU55      -0.2867
     22  CB        70.6400  -50.6500   20.6690 C.3    55  GLU55       0.0388
     23  CG        70.3570  -52.1420   20.7580 C.3    55  GLU55       0.1160
     24  CD        70.6690  -52.8320   19.4390 C.2    55  GLU55       0.3649
     25  OE1       71.4190  -53.8310   19.4210 O.co2  55  GLU55      -0.2457
     26  OE2       70.1530  -52.3610   18.4020 O.co2  55  GLU55      -0.2457
     27  N         68.3880  -50.6500   29.8740 N.3   108  MET108     -0.1230
     28  CA        67.2050  -51.4840   29.7520 C.3   108  MET108      0.1702
     29  C         67.6310  -52.7390   29.0120 C.2   108  MET108      0.2592
     30  O         68.5750  -52.7080   28.2290 O.2   108  MET108     -0.2718
     31  CB        66.1080  -50.7880   28.9240 C.3   108  MET108      0.0401
     32  CG        65.9840  -49.2720   29.1290 C.3   108  MET108      0.0596
     33  SD        65.0470  -48.4440   27.8290 S.3   108  MET108     -0.1393
     34  CE        65.5370  -46.7400   28.0930 C.3   108  MET108      0.0692
     35  N         66.9510  -53.8440   29.2740 N.am  109  ARG109     -0.1966
     36  CA        67.1080  -55.0500   28.4790 C.3   109  ARG109      0.1729
     37  C         65.8590  -55.1790   27.6250 C.2   109  ARG109      0.2616
     38  O         64.7430  -55.2540   28.1520 O.2   109  ARG109     -0.2715
     39  CB        67.3030  -56.2850   29.3550 C.3   109  ARG109      0.0348
     40  CG        68.7220  -56.1640   30.0120 C.3   109  ARG109      0.0492
     41  CD        69.0280  -57.3970   30.7690 C.3   109  ARG109      0.2205
     42  NE        68.9660  -58.6520   30.0540 N.pl3 109  ARG109     -0.0865
     43  CZ        70.0180  -59.1000   29.3520 C.cat 109  ARG109      0.5346
     44  NH1       71.1700  -58.4150   29.3400 N.pl3 109  ARG109      0.1354
     45  NH2       69.8970  -60.2140   28.6480 N.pl3 109  ARG109      0.1354
     46  N         66.0460  -55.1610   26.3150 N.am  110  ILE110     -0.1963
     47  CA        64.9580  -55.2750   25.3550 C.3   110  ILE110      0.1727
     48  C         65.2820  -56.4620   24.4640 C.2   110  ILE110      0.2616
     49  O         66.3290  -56.4830   23.8040 O.2   110  ILE110     -0.2715
     50  CB        64.7820  -53.9820   24.5430 C.3   110  ILE110      0.0290
     51  CG1       64.5160  -52.8200   25.5030 C.3   110  ILE110      0.0022
     52  CG2       63.6450  -54.1390   23.5420 C.3   110  ILE110      0.0023
     53  CD1       64.3880  -51.4710   24.8560 C.3   110  ILE110      0.0001
     54  N         64.4040  -57.4620   24.4730 N.am  111  GLN111     -0.1977
     55  CA        64.5980  -58.6730   23.6780 C.3   111  GLN111      0.1601
     56  C         65.9820  -59.2840   23.8980 C.2   111  GLN111      0.2287
     57  O         66.6420  -59.7240   22.9570 O.2   111  GLN111     -0.2864
     58  CB        64.3600  -58.4100   22.1900 C.3   111  GLN111      0.0394
     59  CG        62.9230  -58.1730   21.8100 C.3   111  GLN111      0.0908
     60  CD        62.7320  -57.9460   20.3170 C.2   111  GLN111      0.2608
     61  OE1       61.8370  -57.2170   19.9180 O.2   111  GLN111     -0.2717
     62  NE2       63.5660  -58.5760   19.4860 N.am  111  GLN111     -0.0878
     63  N         68.8250  -57.8970   24.7450 N.3   113  ARG113     -0.1245
     64  CA        69.9660  -57.0430   24.4460 C.3   113  ARG113      0.1563
     65  C         69.9620  -55.8560   25.3940 C.2   113  ARG113      0.2260
     66  O         68.9220  -55.2310   25.6190 O.2   113  ARG113     -0.2867
     67  CB        69.9090  -56.5000   23.0120 C.3   113  ARG113      0.0307
     68  CG        70.1530  -57.5260   21.9230 C.3   113  ARG113      0.0489
     69  CD        71.6210  -57.5840   21.5320 C.3   113  ARG113      0.2205
     70  NE        71.8510  -58.4810   20.4000 N.pl3 113  ARG113     -0.0865
     71  CZ        72.3470  -59.7150   20.4860 C.cat 113  ARG113      0.5346
     72  NH1       72.6870  -60.2350   21.6600 N.pl3 113  ARG113      0.1354
     73  NH2       72.5080  -60.4380   19.3850 N.pl3 113  ARG113      0.1354
     74  N         70.2610  -52.1940   26.2300 N.3   115  VAL115     -0.1245
     75  CA        70.0260  -50.9630   25.4880 C.3   115  VAL115      0.1561
     76  C         70.3160  -49.8120   26.4250 C.2   115  VAL115      0.2260
     77  O         69.8370  -49.8030   27.5630 O.2   115  VAL115     -0.2867
     78  CB        68.5730  -50.8740   24.9860 C.3   115  VAL115      0.0252
     79  CG1       68.2920  -49.5220   24.3130 C.3   115  VAL115      0.0019
     80  CG2       68.2850  -52.0320   24.0520 C.3   115  VAL115      0.0019
     81  N         63.6550  -43.2530   27.0750 N.3   119  SER119     -0.1217
     82  CA        62.2570  -43.5170   26.7750 C.3   119  SER119      0.1889
     83  C         61.5260  -42.2020   26.5200 C.2   119  SER119      0.2288
     84  O         61.9710  -41.1270   26.9270 O.2   119  SER119     -0.2866
     85  CB        61.5850  -44.2650   27.9310 C.3   119  SER119      0.2089
     86  OG        62.1470  -45.5580   28.0940 O.3   119  SER119     -0.2183
     87  N         51.4770  -45.2950   17.0050 N.3   133  LEU133     -0.1231
     88  CA        52.2400  -46.5330   16.8950 C.3   133  LEU133      0.1693
     89  C         51.5230  -47.5710   16.0430 C.2   133  LEU133      0.2592
     90  O         52.1750  -48.4340   15.4420 O.2   133  LEU133     -0.2718
     91  CB        52.5430  -47.1080   18.2760 C.3   133  LEU133      0.0284
     92  CG        53.4590  -46.2570   19.1560 C.3   133  LEU133      0.0019
     93  CD1       53.6600  -46.9470   20.4960 C.3   133  LEU133      0.0001
     94  CD2       54.7990  -46.0060   18.4830 C.3   133  LEU133      0.0001
     95  N         50.1980  -47.5130   15.9780 N.am  134  GLY134     -0.1957
     96  CA        49.4540  -48.4790   15.1980 C.3   134  GLY134      0.1869
     97  C         49.4470  -48.2310   13.7120 C.2   134  GLY134      0.2309
     98  O         48.8820  -49.0410   12.9670 O.2   134  GLY134     -0.2863
     99  N         52.3740  -46.0570   12.0350 N.3   136  ILE136     -0.1231
    100  CA        53.6500  -45.6330   11.4600 C.3   136  ILE136      0.1678
    101  C         54.3640  -46.8560   10.8980 C.2   136  ILE136      0.2434
    102  O         54.0600  -47.9900   11.3010 O.2   136  ILE136     -0.2733
    103  CB        54.5300  -44.8960   12.4880 C.3   136  ILE136      0.0265
    104  CG1       54.9120  -45.8140   13.6640 C.3   136  ILE136      0.0019
    105  CG2       53.8310  -43.6260   12.9590 C.3   136  ILE136      0.0020
    106  CD1       55.9950  -45.2410   14.5540 C.3   136  ILE136      0.0001
    107  N         55.3110  -46.6870    9.9760 N.am  137  PRO137     -0.2718
    108  CA        56.1410  -47.8290    9.5920 C.3   137  PRO137      0.1535
    109  C         56.9000  -48.3080   10.8150 C.2   137  PRO137      0.2599
    110  O         57.1360  -47.5560   11.7640 O.2   137  PRO137     -0.2715
    111  CB        57.0890  -47.2530    8.5300 C.3   137  PRO137      0.0310
    112  CG        56.5820  -45.8710    8.2170 C.3   137  PRO137      0.0237
    113  CD        55.8180  -45.4240    9.4140 C.3   137  PRO137      0.0939
    114  N         57.2550  -49.5780   10.8060 N.am  138  GLY138     -0.1941
    115  CA        57.8690  -50.1580   11.9770 C.3   138  GLY138      0.2014
    116  C         59.3830  -50.2370   11.9220 C.2   138  GLY138      0.2639
    117  O         59.9410  -51.1090   12.5830 O.2   138  GLY138     -0.2714
    118  N         60.0570  -49.3600   11.1620 N.am  139  ASP139     -0.1957
    119  CA        61.5050  -49.4420   10.9860 C.3   139  ASP139      0.1840
    120  C         62.2360  -48.7730   12.1580 C.2   139  ASP139      0.2622
    121  O         61.6650  -47.9610   12.8930 O.2   139  ASP139     -0.2715
    122  CB        61.9480  -48.7620    9.6780 C.3   139  ASP139      0.1450
    123  CG        61.3450  -49.3810    8.4340 C.2   139  ASP139      0.3671
    124  OD1       60.8700  -50.5400    8.4930 O.co2 139  ASP139     -0.2456
    125  OD2       61.3750  -48.6870    7.3830 O.co2 139  ASP139     -0.2456
    126  N         63.5270  -49.1050   12.3130 N.am  140  CYS140     -0.1968
    127  CA        64.4230  -48.5280   13.3180 C.3   140  CYS140      0.1712
    128  C         65.5780  -47.7500   12.6840 C.2   140  CYS140      0.2296
    129  O         65.8890  -47.8890   11.4990 O.2   140  CYS140     -0.2864
    130  CB        64.9950  -49.6290   14.2300 C.3   140  CYS140      0.0983
    131  SG        63.9060  -50.0860   15.5500 S.3   140  CYS140     -0.0798
    132  N         66.1430  -44.3650   16.7760 N.3   158  HIS158     -0.1226
    133  CA        64.9800  -45.1570   17.1810 C.3   158  HIS158      0.1752
    134  C         65.3270  -46.6290   17.3150 C.2   158  HIS158      0.2596
    135  O         65.8380  -47.2400   16.3740 O.2   158  HIS158     -0.2718
    136  CB        63.8480  -45.0060   16.1790 C.3   158  HIS158      0.0759
    137  CG        62.5940  -45.6430   16.6590 C.ar  158  HIS158      0.0818
    138  ND1       61.9350  -45.2100   17.7840 N.ar  158  HIS158     -0.2268
    139  CD2       61.9000  -46.7050   16.1950 C.ar  158  HIS158      0.1154
    140  CE1       60.8780  -45.9760   17.9850 C.ar  158  HIS158      0.1986
    141  NE2       60.8330  -46.8910   17.0380 N.ar  158  HIS158     -0.2212
    142  N         65.0060  -47.2000   18.4690 N.am  159  ALA159     -0.1966
    143  CA        65.3580  -48.5790   18.7640 C.3   159  ALA159      0.1728
    144  C         64.1910  -49.4840   19.1330 C.2   159  ALA159      0.2616
    145  O         64.2680  -50.6820   18.8480 O.2   159  ALA159     -0.2715
    146  CB        66.3950  -48.6270   19.8880 C.3   159  ALA159      0.0334
    147  N         63.1430  -48.9800   19.7830 N.am  160  ALA160     -0.1963
    148  CA        62.1040  -49.8600   20.3050 C.3   160  ALA160      0.1728
    149  C         60.8390  -49.0530   20.5630 C.2   160  ALA160      0.2616
    150  O         60.8560  -47.8220   20.6220 O.2   160  ALA160     -0.2715
    151  CB        62.5830  -50.5610   21.5750 C.3   160  ALA160      0.0334
    152  N         59.7360  -49.7740   20.7020 N.am  161  ALA161     -0.1963
    153  CA        58.4620  -49.1390   21.0010 C.3   161  ALA161      0.1728
    154  C         57.5400  -50.1740   21.6140 C.2   161  ALA161      0.2617
    155  O         57.7510  -51.3780   21.4730 O.2   161  ALA161     -0.2715
    156  CB        57.8310  -48.5260   19.7490 C.3   161  ALA161      0.0334
    157  N         56.5230  -49.6890   22.3250 N.am  162  THR162     -0.1937
    158  CA        55.4670  -50.5520   22.8300 C.3   162  THR162      0.2028
    159  C         54.1680  -49.7680   22.8700 C.2   162  THR162      0.2642
    160  O         54.1500  -48.5920   23.2260 O.2   162  THR162     -0.2714
    161  CB        55.7940  -51.1110   24.2150 C.3   162  THR162      0.1808
    162  OG1       54.6950  -51.9150   24.6640 O.3   162  THR162     -0.2208
    163  CG2       56.0340  -50.0040   25.2240 C.3   162  THR162      0.0379
    164  N         53.0790  -50.4350   22.4980 N.am  163  LYS163     -0.1977
    165  CA        51.7800  -49.7860   22.5850 C.3   163  LYS163      0.1596
    166  C         51.4250  -49.4680   24.0300 C.2   163  LYS163      0.2287
    167  O         50.6740  -48.5220   24.2880 O.2   163  LYS163     -0.2864
    168  CB        50.7120  -50.6480   21.9200 C.3   163  LYS163      0.0298
    169  CG        50.8750  -50.7040   20.3800 C.3   163  LYS163      0.0038
    170  CD        50.5430  -49.3140   19.8190 C.3   163  LYS163      0.0206
    171  CE        49.4620  -48.6450   20.6630 C.3   163  LYS163      0.1093
    172  NZ        48.8280  -47.4920   19.9500 N.3   163  LYS163     -0.1314
    173  N         54.8190  -45.7200   24.1040 N.3   167  THR167     -0.1218
    174  CA        56.1940  -45.4620   24.5180 C.3   167  THR167      0.1862
    175  C         57.1680  -45.8460   23.4190 C.2   167  THR167      0.2287
    176  O         56.9940  -46.8570   22.7460 O.2   167  THR167     -0.2866
    177  CB        56.5110  -46.2810   25.7800 C.3   167  THR167      0.1770
    178  OG1       55.6070  -45.9280   26.8290 O.3   167  THR167     -0.2211
    179  CG2       57.9270  -46.0380   26.2730 C.3   167  THR167      0.0375
    180  N         61.6000  -45.8250   22.5220 N.3   169  VAL169     -0.1245
    181  CA        62.9420  -45.7790   23.0840 C.3   169  VAL169      0.1561
    182  C         63.9090  -45.4350   21.9680 C.2   169  VAL169      0.2260
    183  O         63.9250  -46.1040   20.9220 O.2   169  VAL169     -0.2867
    184  CB        63.3590  -47.1170   23.7210 C.3   169  VAL169      0.0252
    185  CG1       64.8030  -47.0410   24.2220 C.3   169  VAL169      0.0019
    186  CG2       62.4430  -47.4830   24.8500 C.3   169  VAL169      0.0019
@<TRIPOS>BOND
     1   125   123   ar
     2   112   111    1
     3   112   113    1
     4   123   124   ar
     5   123   122    1
     6   111   108    1
     7   113   107    1
     8   108   107    1
     9   108   109    1
    10    14    13    2
    11   122   119    1
    12   107   101   am
    13   114   109   am
    14   114   115    1
    15   109   110    2
    16    13    12    1
    17   101   102    2
    18   101   100    1
    19   119   118    1
    20   119   120    1
    21   118   116   am
    22    17    15    1
    23    15    12    1
    24    15    16    1
    25   100    99    1
    26   100   103    1
    27   129   128    2
    28    12    11    1
    29   116   115    1
    30   116   117    2
    31   120   126   am
    32   120   121    2
    33   126   127    1
    34   103   105    1
    35   103   104    1
    36   128   127    1
    37    98    97    2
    38    11     3   am
    39     4     3    2
    40   127   130    1
    41   104   106    1
    42    97    96    1
    43     3     2    1
    44   130   131    1
    45    96    95    1
    46     2     1    1
    47     2     5    1
    48     8    10   ar
    49     8     6   ar
    50    90    89    2
    51    10     9   ar
    52    95    89   am
    53    89    88    1
    54     6     5    1
    55     6     7   ar
    56   136   137    1
    57   136   133    1
    58   139   137   ar
    59   139   141   ar
    60   135   134    2
    61     9     7   ar
    62   137   138   ar
    63   132   133    1
    64    88    87    1
    65    88    91    1
    66   141   140   ar
    67   133   134    1
    68   134   142   am
    69   138   140   ar
    70    91    92    1
    71    26    24   ar
    72   142   143    1
    73    94    92    1
    74    21    20    2
    75   143   144    1
    76   143   146    1
    77   145   144    2
    78   144   147   am
    79    92    93    1
    80    73    71    1
    81    25    24   ar
    82    24    23    1
    83    62    60   am
    84    20    19    1
    85   156   153    1
    86   147   148    1
    87   170   169    1
    88   170   171    1
    89    61    60    2
    90   172   171    1
    91   148   149    1
    92   148   151    1
    93    60    59    1
    94   169   168    1
    95    70    71    2
    96    70    69    1
    97    19    22    1
    98    19    18    1
    99    71    72    1
   100   149   150    2
   101   149   152   am
   102    22    23    1
   103   152   153    1
   104   183   182    2
   105   153   154    1
   106   155   154    2
   107    69    68    1
   108   154   157   am
   109    59    58    1
   110   168   165    1
   111    68    67    1
   112   182   181    1
   113    58    55    1
   114   157   158    1
   115   164   165    1
   116   164   159   am
   117   180   181    1
   118   165   166    1
   119   176   175    2
   120   158   159    1
   121   158   161    1
   122   159   160    2
   123    57    56    2
   124    67    64    1
   125   181   184    1
   126   175   174    1
   127    52    50    1
   128    55    56    1
   129    55    54    1
   130   184   185    1
   131   184   186    1
   132    49    48    2
   133   166   167    2
   134    80    78    1
   135   173   174    1
   136   161   162    1
   137   161   163    1
   138    79    78    1
   139    64    63    1
   140    64    65    1
   141    48    54   am
   142    48    47    1
   143   174   177    1
   144    50    47    1
   145    50    51    1
   146    53    51    1
   147    78    75    1
   148    47    46    1
   149    65    66    2
   150    75    74    1
   151    75    76    1
   152   177   179    1
   153   177   178    1
   154    46    37   am
   155    76    77    2
   156    83    82    1
   157    83    84    2
   158    82    81    1
   159    82    85    1
   160    37    38    2
   161    37    36    1
   162    33    34    1
   163    33    32    1
   164    85    86    1
   165    30    29    2
   166    36    35    1
   167    36    39    1
   168    45    43    1
   169    31    32    1
   170    31    28    1
   171    29    35   am
   172    29    28    1
   173    44    43    1
   174    43    42    2
   175    39    40    1
   176    28    27    1
   177    40    41    1
   178    42    41    1
