@<TRIPOS>MOLECULE
tmp/5e0oA00.pdb
 84 79 0 0 0
SMALL
GASTEIGER

@<TRIPOS>ATOM
      1  N         70.8860  -22.9780   15.5340 N.3   147  ASP147     -0.1239
      2  CA        69.6400  -22.9620   14.7860 C.3   147  ASP147      0.1674
      3  C         68.9190  -21.6530   15.0930 C.2   147  ASP147      0.2266
      4  O         69.2290  -20.9920   16.0840 O.2   147  ASP147     -0.2867
      5  CB        68.7800  -24.1740   15.1540 C.3   147  ASP147      0.1410
      6  CG        67.4730  -24.2180   14.3940 C.2   147  ASP147      0.3668
      7  OD1       67.4700  -24.6850   13.2370 O.co2 147  ASP147     -0.2456
      8  OD2       66.4470  -23.7870   14.9580 O.co2 147  ASP147     -0.2456
      9  N         64.9150  -20.6400   14.4520 N.3   149  ASP149     -0.1239
     10  CA        63.5750  -20.7960   15.0100 C.3   149  ASP149      0.1674
     11  C         63.5410  -21.7770   16.1770 C.2   149  ASP149      0.2266
     12  O         63.9380  -22.9340   16.0440 O.2   149  ASP149     -0.2867
     13  CB        62.5980  -21.2500   13.9230 C.3   149  ASP149      0.1410
     14  CG        62.3390  -20.1760   12.8880 C.2   149  ASP149      0.3668
     15  OD1       63.0820  -20.1210   11.8860 O.co2 149  ASP149     -0.2456
     16  OD2       61.3920  -19.3840   13.0780 O.co2 149  ASP149     -0.2456
     17  N         69.1610  -22.4690    8.8440 N.3   187  THR187     -0.1203
     18  CA        67.7040  -22.4450    8.8180 C.3   187  THR187      0.1994
     19  C         67.1690  -23.3210    7.6900 C.2   187  THR187      0.2618
     20  O         67.9210  -23.7380    6.8100 O.2   187  THR187     -0.2717
     21  CB        67.1650  -21.0130    8.6370 C.3   187  THR187      0.1784
     22  OG1       67.4820  -20.5440    7.3200 O.3   187  THR187     -0.2211
     23  CG2       67.7780  -20.0760    9.6630 C.3   187  THR187      0.0376
     24  N         65.8690  -23.5950    7.7180 N.am  188  ALA188     -0.1965
     25  CA        65.2360  -24.3690    6.6570 C.3   188  ALA188      0.1728
     26  C         64.6640  -23.4440    5.5920 C.2   188  ALA188      0.2616
     27  O         64.6590  -23.7730    4.4060 O.2   188  ALA188     -0.2715
     28  CB        64.1470  -25.2630    7.2230 C.3   188  ALA188      0.0334
     29  N         64.1880  -22.2810    6.0240 N.am  189  GLY189     -0.1955
     30  CA        63.6120  -21.3040    5.1190 C.3   189  GLY189      0.1869
     31  C         64.6490  -20.6740    4.2110 C.2   189  GLY189      0.2309
     32  O         65.8480  -20.8680    4.4050 O.2   189  GLY189     -0.2863
     33  N         68.7730  -25.4930    4.9280 N.3   214  TRP214     -0.1241
     34  CA        69.6670  -26.3860    5.6650 C.3   214  TRP214      0.1605
     35  C         71.1160  -26.3000    5.1960 C.2   214  TRP214      0.2264
     36  O         71.8310  -27.3000    5.1750 O.2   214  TRP214     -0.2867
     37  CB        69.1760  -27.8330    5.5640 C.3   214  TRP214      0.0550
     38  CG        67.9710  -28.1050    6.3970 C.ar  214  TRP214      0.0003
     39  CD1       67.3050  -27.2160    7.1860 C.ar  214  TRP214      0.0946
     40  CD2       67.2860  -29.3550    6.5330 C.ar  214  TRP214      0.0152
     41  NE1       66.2410  -27.8330    7.8050 N.ar  214  TRP214     -0.2442
     42  CE2       66.2110  -29.1470    7.4210 C.ar  214  TRP214      0.0810
     43  CE3       67.4760  -30.6290    5.9900 C.ar  214  TRP214      0.0012
     44  CZ2       65.3310  -30.1660    7.7760 C.ar  214  TRP214      0.0191
     45  CZ3       66.6010  -31.6380    6.3460 C.ar  214  TRP214      0.0001
     46  CH2       65.5430  -31.4010    7.2290 C.ar  214  TRP214      0.0015
     47  N         71.4060  -30.4950    7.8000 N.3   325  LYS325     -0.1245
     48  CA        72.1740  -29.3950    8.3780 C.3   325  LYS325      0.1561
     49  C         73.6410  -29.7610    8.5810 C.2   325  LYS325      0.2260
     50  O         74.5180  -28.8930    8.5510 O.2   325  LYS325     -0.2867
     51  CB        71.5530  -28.9560    9.7030 C.3   325  LYS325      0.0271
     52  CG        70.2120  -28.2650    9.5440 C.3   325  LYS325      0.0035
     53  CD        69.6760  -27.7770   10.8730 C.3   325  LYS325      0.0206
     54  CE        68.3690  -27.0310   10.6890 C.3   325  LYS325      0.1093
     55  NZ        67.7960  -26.6170   11.9960 N.3   325  LYS325     -0.1314
     56  N         66.8600  -26.9090   18.7170 N.3   351  ASP351     -0.1225
     57  CA        65.5770  -27.0460   19.3970 C.3   351  ASP351      0.1805
     58  C         64.8060  -28.2730   18.9180 C.2   351  ASP351      0.2598
     59  O         63.9340  -28.7810   19.6220 O.2   351  ASP351     -0.2718
     60  CB        64.7260  -25.7890   19.1960 C.3   351  ASP351      0.1424
     61  CG        64.3970  -25.5360   17.7380 C.2   351  ASP351      0.3668
     62  OD1       65.3140  -25.6230   16.8950 O.co2 351  ASP351     -0.2456
     63  OD2       63.2180  -25.2580   17.4320 O.co2 351  ASP351     -0.2456
     64  N         65.1240  -28.7420   17.7160 N.am  352  THR352     -0.1953
     65  CA        64.4340  -29.8940   17.1500 C.3   352  THR352      0.1897
     66  C         65.3990  -31.0160   16.7910 C.2   352  THR352      0.2313
     67  O         66.6030  -30.9160   17.0250 O.2   352  THR352     -0.2863
     68  CB        63.6350  -29.5120   15.8910 C.3   352  THR352      0.1794
     69  OG1       64.5330  -29.0570   14.8720 O.3   352  THR352     -0.2208
     70  CG2       62.6310  -28.4200   16.2070 C.3   352  THR352      0.0378
     71  N         66.1010  -32.0260   13.7780 N.3   354  SER354     -0.1202
     72  CA        66.8610  -31.6660   12.5820 C.3   354  SER354      0.2020
     73  C         68.1970  -31.0100   12.9230 C.2   354  SER354      0.2618
     74  O         69.0600  -30.8480   12.0600 O.2   354  SER354     -0.2717
     75  CB        66.0420  -30.7330   11.6900 C.3   354  SER354      0.2103
     76  OG        64.8150  -31.3310   11.3120 O.3   354  SER354     -0.2182
     77  N         68.3600  -30.6320   14.1850 N.am  355  ASP355     -0.1973
     78  CA        69.5940  -30.0120   14.6440 C.3   355  ASP355      0.1709
     79  C         70.5920  -31.0520   15.1470 C.2   355  ASP355      0.2293
     80  O         71.7660  -30.7440   15.3530 O.2   355  ASP355     -0.2864
     81  CB        69.2940  -28.9910   15.7400 C.3   355  ASP355      0.1436
     82  CG        68.3430  -27.9050   15.2770 C.2   355  ASP355      0.3671
     83  OD1       68.4470  -27.4760   14.1080 O.co2 355  ASP355     -0.2456
     84  OD2       67.4850  -27.4820   16.0810 O.co2 355  ASP355     -0.2456
@<TRIPOS>BOND
     1    31    32    2
     2    31    30    1
     3    27    26    2
     4    33    34    1
     5    30    29    1
     6    36    35    2
     7    35    34    1
     8    37    34    1
     9    37    38    1
    10    26    29   am
    11    26    25    1
    12    43    45   ar
    13    43    40   ar
    14    45    46   ar
    15    38    40   ar
    16    38    39   ar
    17    40    42   ar
    18    25    28    1
    19    25    24    1
    20    20    19    2
    21    39    41   ar
    22    46    44   ar
    23    22    21    1
    24    42    44   ar
    25    42    41   ar
    26    19    24   am
    27    19    18    1
    28    47    48    1
    29    48    49    1
    30    48    51    1
    31    50    49    2
    32    21    18    1
    33    21    23    1
    34    18    17    1
    35    52    51    1
    36    52    53    1
    37    54    53    1
    38    54    55    1
    39    76    75    1
    40    75    72    1
    41    15    14   ar
    42    74    73    2
    43    72    73    1
    44    72    71    1
    45    14    16   ar
    46    14    13    1
    47    73    77   am
    48     7     6   ar
    49    13    10    1
    50    83    82   ar
    51    77    78    1
    52     6     8   ar
    53     6     5    1
    54     9    10    1
    55    78    79    1
    56    78    81    1
    57     2     3    1
    58     2     5    1
    59     2     1    1
    60    69    68    1
    61    10    11    1
    62     3     4    2
    63    79    80    2
    64    82    81    1
    65    82    84   ar
    66    68    70    1
    67    68    65    1
    68    12    11    2
    69    66    67    2
    70    66    65    1
    71    62    61   ar
    72    65    64    1
    73    63    61   ar
    74    64    58   am
    75    61    60    1
    76    56    57    1
    77    58    57    1
    78    58    59    2
    79    60    57    1
