@<TRIPOS>MOLECULE
tmp/5e0rA01.pdb
 117 114 0 0 0
SMALL
GASTEIGER

@<TRIPOS>ATOM
      1  N          3.2690   -0.0500   -1.2480 N.3    40  TRP40      -0.1228
      2  CA         2.9330    1.2610   -1.8010 C.3    40  TRP40       0.1722
      3  C          4.1700    2.1540   -2.0820 C.2    40  TRP40       0.2437
      4  O          4.1960    2.8150   -3.1170 O.2    40  TRP40      -0.2733
      5  CB         1.8770    1.9940   -0.9310 C.3    40  TRP40       0.0563
      6  CG         2.3280    2.6540    0.3370 C.ar   40  TRP40       0.0003
      7  CD1        2.1340    2.2000    1.6140 C.ar   40  TRP40       0.0946
      8  CD2        3.0220    3.9010    0.4600 C.ar   40  TRP40       0.0152
      9  NE1        2.6820    3.0830    2.5220 N.ar   40  TRP40      -0.2442
     10  CE2        3.2460    4.1310    1.8320 C.ar   40  TRP40       0.0810
     11  CE3        3.4970    4.8400   -0.4670 C.ar   40  TRP40       0.0012
     12  CZ2        3.9100    5.2720    2.3060 C.ar   40  TRP40       0.0191
     13  CZ3        4.1730    5.9590    0.0030 C.ar   40  TRP40       0.0001
     14  CH2        4.3600    6.1680    1.3750 C.ar   40  TRP40       0.0015
     15  N          5.2180    2.1500   -1.2190 N.am   41  PRO41      -0.2729
     16  CA         6.3520    3.0170   -1.5730 C.3    41  PRO41       0.1401
     17  C          7.1250    2.5730   -2.8010 C.2    41  PRO41       0.2269
     18  O          7.9160    3.3750   -3.3150 O.2    41  PRO41      -0.2865
     19  CB         7.2630    2.9300   -0.3470 C.3    41  PRO41       0.0296
     20  CG         6.3720    2.4660    0.7640 C.3    41  PRO41       0.0237
     21  CD         5.3820    1.5540    0.1230 C.3    41  PRO41       0.0939
     22  N          6.0550    3.0530   -7.6530 N.3    44  GLN44      -0.1231
     23  CA         6.3910    4.1430   -8.5650 C.3    44  GLN44       0.1683
     24  C          7.8030    4.6410   -8.2480 C.2    44  GLN44       0.2434
     25  O          8.3120    4.3920   -7.1650 O.2    44  GLN44      -0.2733
     26  CB         5.3770    5.2790   -8.4300 C.3    44  GLN44       0.0380
     27  CG         5.3860    5.9090   -7.0610 C.3    44  GLN44       0.0905
     28  CD         4.6630    5.0860   -6.0040 C.2    44  GLN44       0.2608
     29  OE1        3.5130    4.6830   -6.2040 O.2    44  GLN44      -0.2717
     30  NE2        5.3460    4.7990   -4.8890 N.am   44  GLN44      -0.0878
     31  N          8.4570    5.3200   -9.2000 N.am   45  PRO45      -0.2718
     32  CA         9.7780    5.8960   -8.9150 C.3    45  PRO45       0.1535
     33  C          9.7590    6.7860   -7.6810 C.2    45  PRO45       0.2598
     34  O          8.7470    7.4310   -7.4070 O.2    45  PRO45      -0.2715
     35  CB        10.0680    6.7310  -10.1610 C.3    45  PRO45       0.0310
     36  CG         9.3650    6.0000  -11.2580 C.3    45  PRO45       0.0237
     37  CD         8.0820    5.4820  -10.6170 C.3    45  PRO45       0.0939
     38  N         10.8590    6.8280   -6.9410 N.am   46  VAL46      -0.1964
     39  CA        10.9830    7.7370   -5.8110 C.3    46  VAL46       0.1727
     40  C         10.8840    9.1980   -6.2790 C.2    46  VAL46       0.2616
     41  O         11.6590    9.6500   -7.1260 O.2    46  VAL46      -0.2715
     42  CB        12.3190    7.5100   -5.0640 C.3    46  VAL46       0.0290
     43  CG1       12.5330    8.5960   -4.0100 C.3    46  VAL46       0.0023
     44  CG2       12.3520    6.1200   -4.4230 C.3    46  VAL46       0.0023
     45  N          9.9070    9.9130   -5.7360 N.am   47  ASP47      -0.1971
     46  CA         9.7300   11.3470   -5.9900 C.3    47  ASP47       0.1709
     47  C         10.4890   12.1040   -4.9220 C.2    47  ASP47       0.2293
     48  O          9.9460   12.4150   -3.8530 O.2    47  ASP47      -0.2864
     49  CB         8.2510   11.7290   -5.9730 C.3    47  ASP47       0.1436
     50  CG         7.9870   13.1620   -6.3930 C.2    47  ASP47       0.3671
     51  OD1        8.9150   13.9940   -6.3700 O.co2  47  ASP47      -0.2456
     52  OD2        6.8050   13.4730   -6.6920 O.co2  47  ASP47      -0.2456
     53  N          8.9300   15.6330   -3.8490 N.3    50  LYS50      -0.1231
     54  CA         7.8010   15.5740   -2.9230 C.3    50  LYS50       0.1693
     55  C          8.2230   15.0910   -1.5330 C.2    50  LYS50       0.2591
     56  O          7.7070   15.5580   -0.5290 O.2    50  LYS50      -0.2718
     57  CB         6.7070   14.6630   -3.4860 C.3    50  LYS50       0.0285
     58  CG         5.3900   14.7450   -2.7350 C.3    50  LYS50       0.0035
     59  CD         4.4330   15.7140   -3.3880 C.3    50  LYS50       0.0206
     60  CE         3.9410   15.1840   -4.7280 C.3    50  LYS50       0.1093
     61  NZ         3.2410   16.2460   -5.5040 N.3    50  LYS50      -0.1314
     62  N          9.1560   14.1450   -1.4760 N.am   51  LEU51      -0.1980
     63  CA         9.6300   13.6160   -0.1950 C.3    51  LEU51       0.1596
     64  C         10.6490   14.5240    0.4980 C.2    51  LEU51       0.2287
     65  O         11.0640   14.2400    1.6190 O.2    51  LEU51      -0.2864
     66  CB        10.2570   12.2350   -0.3950 C.3    51  LEU51       0.0297
     67  CG         9.3140   11.0650   -0.6480 C.3    51  LEU51       0.0022
     68  CD1       10.0530    9.9720   -1.3920 C.3    51  LEU51       0.0001
     69  CD2        8.7850   10.5290    0.6730 C.3    51  LEU51       0.0001
     70  N         13.8380   14.8980   -0.2190 N.3    53  LEU53      -0.1245
     71  CA        15.0720   14.1340   -0.0610 C.3    53  LEU53       0.1561
     72  C         16.0210   14.5030   -1.2000 C.2    53  LEU53       0.2260
     73  O         16.2450   13.7110   -2.1140 O.2    53  LEU53      -0.2867
     74  CB        14.7990   12.6250   -0.0660 C.3    53  LEU53       0.0270
     75  CG        13.8120   12.0860    0.9670 C.3    53  LEU53       0.0019
     76  CD1       13.5070   10.6110    0.6790 C.3    53  LEU53       0.0001
     77  CD2       14.3820   12.2760    2.3600 C.3    53  LEU53       0.0001
     78  N         18.4250    3.7140    3.4590 N.3    99  ASN99      -0.1240
     79  CA        17.7360    3.8550    4.7430 C.3    99  ASN99       0.1653
     80  C         18.4200    3.1070    5.8800 C.2    99  ASN99       0.2266
     81  O         18.9960    2.0510    5.6780 O.2    99  ASN99      -0.2867
     82  CB        16.2950    3.3610    4.6170 C.3    99  ASN99       0.1155
     83  CG        15.5160    4.1120    3.5700 C.2    99  ASN99       0.2627
     84  OD1       15.0460    5.2300    3.8190 O.2    99  ASN99      -0.2716
     85  ND2       15.3420    3.4990    2.4000 N.am   99  ASN99      -0.0877
     86  N         14.4050    0.9230    9.9570 N.3   103  ASP103     -0.1225
     87  CA        13.4210    1.9190    9.5240 C.3   103  ASP103      0.1805
     88  C         12.1910    1.2050    8.9750 C.2   103  ASP103      0.2598
     89  O         12.3040    0.1160    8.3910 O.2   103  ASP103     -0.2718
     90  CB        13.9870    2.8470    8.4400 C.3   103  ASP103      0.1424
     91  CG        14.8870    3.9280    8.9760 C.2   103  ASP103      0.3668
     92  OD1       15.0300    4.0750   10.2090 O.co2 103  ASP103     -0.2456
     93  OD2       15.4550    4.6430    8.1200 O.co2 103  ASP103     -0.2456
     94  N         11.0160    1.8100    9.1390 N.am  104  ASP104     -0.1960
     95  CA         9.8020    1.1510    8.6660 C.3   104  ASP104      0.1840
     96  C          9.8930    0.8240    7.1700 C.2   104  ASP104      0.2621
     97  O          9.4300   -0.2310    6.7490 O.2   104  ASP104     -0.2715
     98  CB         8.5510    1.9860    8.9600 C.3   104  ASP104      0.1450
     99  CG         8.1610    1.9730   10.4330 C.2   104  ASP104      0.3671
    100  OD1        8.6540    1.1160   11.1920 O.co2 104  ASP104     -0.2456
    101  OD2        7.3180    2.8080   10.8240 O.co2 104  ASP104     -0.2456
    102  N         10.4950    1.7010    6.3720 N.am  105  ILE105     -0.1977
    103  CA        10.5780    1.4190    4.9350 C.3   105  ILE105      0.1596
    104  C         11.4100    0.1550    4.6600 C.2   105  ILE105      0.2287
    105  O         11.1020   -0.6060    3.7330 O.2   105  ILE105     -0.2864
    106  CB        11.1520    2.6370    4.1440 C.3   105  ILE105      0.0276
    107  CG1       11.0590    2.4230    2.6390 C.3   105  ILE105      0.0022
    108  CG2       12.5820    2.9990    4.5630 C.3   105  ILE105      0.0022
    109  CD1        9.6500    2.3180    2.1600 C.3   105  ILE105      0.0001
    110  N          9.1880   -2.8250    5.3700 N.3   108  MET108     -0.1245
    111  CA         8.2590   -2.9920    4.2620 C.3   108  MET108      0.1570
    112  C          8.9640   -3.6680    3.0850 C.2   108  MET108      0.2261
    113  O          8.4270   -4.6080    2.4800 O.2   108  MET108     -0.2867
    114  CB         7.6780   -1.6320    3.8500 C.3   108  MET108      0.0387
    115  CG         6.8960   -0.9540    4.9850 C.3   108  MET108      0.0595
    116  SD         6.5820    0.8030    4.7110 S.3   108  MET108     -0.1393
    117  CE         5.1420    0.6190    3.7320 C.3   108  MET108      0.0692
@<TRIPOS>BOND
     1    36    37    1
     2    36    35    1
     3    37    31    1
     4    35    32    1
     5    31    32    1
     6    31    24   am
     7    32    33    1
     8    23    26    1
     9    23    24    1
    10    23    22    1
    11    26    27    1
    12    24    25    2
    13    33    34    2
    14    33    38   am
    15    41    40    2
    16    27    28    1
    17    38    39    1
    18    52    50   ar
    19    50    51   ar
    20    50    49    1
    21    40    39    1
    22    40    45   am
    23    29    28    2
    24    28    30   am
    25    46    49    1
    26    46    45    1
    27    46    47    1
    28    39    42    1
    29    61    60    1
    30    42    44    1
    31    42    43    1
    32    47    48    2
    33    60    59    1
    34    53    54    1
    35    57    54    1
    36    57    58    1
    37    59    58    1
    38    18    17    2
    39     4     3    2
    40    54    55    1
    41    17    16    1
    42    73    72    2
    43     3     2    1
    44     3    15   am
    45     2     1    1
    46     2     5    1
    47    16    15    1
    48    16    19    1
    49    55    62   am
    50    55    56    2
    51    62    63    1
    52    68    67    1
    53    15    21    1
    54    72    71    1
    55     5     6    1
    56    67    66    1
    57    67    69    1
    58    11    13   ar
    59    11     8   ar
    60    66    63    1
    61    19    20    1
    62    70    71    1
    63    63    64    1
    64    74    71    1
    65    74    75    1
    66    13    14   ar
    67    21    20    1
    68     6     8   ar
    69     6     7   ar
    70     8    10   ar
    71    64    65    2
    72    76    75    1
    73    75    77    1
    74    14    12   ar
    75     7     9   ar
    76    10    12   ar
    77    10     9   ar
    78   109   107    1
    79    85    83   am
    80   113   112    2
    81   107   106    1
    82   112   111    1
    83    78    79    1
    84    83    84    2
    85    83    82    1
    86   117   116    1
    87   105   104    2
    88   114   111    1
    89   114   115    1
    90   106   108    1
    91   106   103    1
    92   111   110    1
    93    82    79    1
    94   104   103    1
    95   116   115    1
    96    79    80    1
    97   103   102    1
    98    81    80    2
    99   102    96   am
   100    97    96    2
   101    96    95    1
   102    93    91   ar
   103    89    88    2
   104    90    91    1
   105    90    87    1
   106    95    98    1
   107    95    94    1
   108    98    99    1
   109    88    94   am
   110    88    87    1
   111    91    92   ar
   112    87    86    1
   113    99   101   ar
   114    99   100   ar
