@<TRIPOS>MOLECULE
tmp/5e0rA00.pdb
 113 106 0 0 0
SMALL
GASTEIGER

@<TRIPOS>ATOM
      1  N         12.0150  -10.8990  -25.5820 N.3    17  ARG17      -0.1245
      2  CA        11.1910  -12.0320  -25.9750 C.3    17  ARG17       0.1563
      3  C         10.2180  -12.3560  -24.8670 C.2    17  ARG17       0.2260
      4  O         10.4190  -11.9600  -23.7220 O.2    17  ARG17      -0.2867
      5  CB        12.0500  -13.2580  -26.3390 C.3    17  ARG17       0.0307
      6  CG        12.9790  -13.7030  -25.2550 C.3    17  ARG17       0.0489
      7  CD        13.8440  -14.9020  -25.6300 C.3    17  ARG17       0.2205
      8  NE        14.6290  -15.2200  -24.4510 N.pl3  17  ARG17      -0.0865
      9  CZ        15.4550  -16.2440  -24.2970 C.cat  17  ARG17       0.5346
     10  NH1       15.6530  -17.1310  -25.2710 N.pl3  17  ARG17       0.1354
     11  NH2       16.0910  -16.3810  -23.1400 N.pl3  17  ARG17       0.1354
     12  N          8.4870  -17.9280  -18.0100 N.3    21  GLN21      -0.1245
     13  CA         8.9900  -17.4120  -16.7320 C.3    21  GLN21       0.1566
     14  C          8.6480  -15.9410  -16.5600 C.2    21  GLN21       0.2260
     15  O          8.3400  -15.4850  -15.4550 O.2    21  GLN21      -0.2867
     16  CB        10.4970  -17.6120  -16.6310 C.3    21  GLN21       0.0367
     17  CG        10.9500  -19.0640  -16.7030 C.3    21  GLN21       0.0905
     18  CD        12.4350  -19.1590  -16.5230 C.2    21  GLN21       0.2608
     19  OE1       13.1790  -18.3000  -17.0020 O.2    21  GLN21      -0.2717
     20  NE2       12.8790  -20.1460  -15.7650 N.am   21  GLN21      -0.0878
     21  N         15.1470  -12.1800  -20.5440 N.3    80  ASN80      -0.1225
     22  CA        14.9970  -13.3510  -19.6960 C.3    80  ASN80       0.1785
     23  C         14.5880  -12.9600  -18.2800 C.2    80  ASN80       0.2597
     24  O         14.5810  -11.7710  -17.9280 O.2    80  ASN80      -0.2718
     25  CB        16.2860  -14.1810  -19.6850 C.3    80  ASN80       0.1169
     26  CG        17.4820  -13.4100  -19.1950 C.2    80  ASN80       0.2627
     27  OD1       17.3740  -12.5910  -18.2820 O.2    80  ASN80      -0.2716
     28  ND2       18.6420  -13.6560  -19.7910 N.am   80  ASN80      -0.0877
     29  N         14.2630  -13.9670  -17.4800 N.am   81  ALA81      -0.1966
     30  CA        13.8540  -13.7520  -16.0900 C.3    81  ALA81       0.1728
     31  C         14.9730  -13.1720  -15.2460 C.2    81  ALA81       0.2616
     32  O         14.6940  -12.4200  -14.3080 O.2    81  ALA81      -0.2715
     33  CB        13.3650  -15.0560  -15.4780 C.3    81  ALA81       0.0334
     34  N         16.2290  -13.4950  -15.5610 N.am   82  GLN82      -0.1977
     35  CA        17.3550  -12.9710  -14.7990 C.3    82  GLN82       0.1601
     36  C         17.3360  -11.4420  -14.7890 C.2    82  GLN82       0.2287
     37  O         17.5640  -10.8150  -13.7560 O.2    82  GLN82      -0.2864
     38  CB        18.6820  -13.4840  -15.3830 C.3    82  GLN82       0.0394
     39  CG        19.9090  -13.1300  -14.5460 C.3    82  GLN82       0.0908
     40  CD        20.3670  -11.7040  -14.7240 C.2    82  GLN82       0.2608
     41  OE1       20.1780  -11.1050  -15.7850 O.2    82  GLN82      -0.2717
     42  NE2       20.9670  -11.1400  -13.6780 N.am   82  GLN82      -0.0878
     43  N         14.5500  -10.3030  -12.3470 N.3    85  ILE85      -0.1245
     44  CA        14.9690  -10.5590  -10.9820 C.3    85  ILE85       0.1561
     45  C         16.0630   -9.5540  -10.5360 C.2    85  ILE85       0.2260
     46  O         16.0320   -9.0570   -9.4250 O.2    85  ILE85      -0.2867
     47  CB        15.4270  -12.0340  -10.8540 C.3    85  ILE85       0.0252
     48  CG1       14.2100  -12.9490  -11.0000 C.3    85  ILE85       0.0019
     49  CG2       16.1480  -12.2660   -9.5460 C.3    85  ILE85       0.0019
     50  CD1       14.5410  -14.4010  -11.2370 C.3    85  ILE85       0.0001
     51  N         16.1140   -6.9780   -7.3760 N.3    89  ASN89      -0.1240
     52  CA        17.1890   -6.9050   -6.4030 C.3    89  ASN89       0.1653
     53  C         17.7970   -5.5120   -6.3340 C.2    89  ASN89       0.2266
     54  O         18.1770   -5.0690   -5.2550 O.2    89  ASN89      -0.2867
     55  CB        18.2290   -7.9850   -6.6900 C.3    89  ASN89       0.1155
     56  CG        17.7550   -9.3580   -6.2220 C.2    89  ASN89       0.2627
     57  OD1       16.9540   -9.4640   -5.2810 O.2    89  ASN89      -0.2716
     58  ND2       18.2400  -10.4100   -6.8690 N.am   89  ASN89      -0.0877
     59  N         10.9800  -13.7480   -2.7930 N.3   117  LEU117     -0.1245
     60  CA        11.8640  -14.9090   -2.7430 C.3   117  LEU117      0.1561
     61  C         11.0540  -16.2070   -2.7310 C.2   117  LEU117      0.2260
     62  O         11.4410  -17.1830   -3.3800 O.2   117  LEU117     -0.2867
     63  CB        12.7830  -14.8290   -1.5280 C.3   117  LEU117      0.0270
     64  CG        13.8620  -13.7410   -1.5390 C.3   117  LEU117      0.0019
     65  CD1       14.6100  -13.6940   -0.2050 C.3   117  LEU117      0.0001
     66  CD2       14.8220  -13.9390   -2.7000 C.3   117  LEU117      0.0001
     67  N         10.0710  -16.7610   -6.3860 N.3   120  ILE120     -0.1231
     68  CA        11.1960  -17.0820   -7.2610 C.3   120  ILE120      0.1692
     69  C         11.5970  -18.5390   -7.0640 C.2   120  ILE120      0.2592
     70  O         11.9760  -19.2380   -8.0050 O.2   120  ILE120     -0.2718
     71  CB        12.4120  -16.1590   -7.0010 C.3   120  ILE120      0.0266
     72  CG1       12.0580  -14.7120   -7.3350 C.3   120  ILE120      0.0019
     73  CG2       13.6170  -16.6070   -7.8190 C.3   120  ILE120      0.0020
     74  CD1       11.6150  -14.5190   -8.7650 C.3   120  ILE120      0.0001
     75  N         11.4770  -19.0050   -5.8290 N.am  121  ASN121     -0.1974
     76  CA        11.8320  -20.3780   -5.4980 C.3   121  ASN121      0.1688
     77  C         11.0090  -21.3600   -6.3250 C.2   121  ASN121      0.2292
     78  O         11.4410  -22.4940   -6.5650 O.2   121  ASN121     -0.2864
     79  CB        11.6390  -20.6460   -4.0090 C.3   121  ASN121      0.1181
     80  CG        12.0950  -22.0310   -3.6170 C.2   121  ASN121      0.2629
     81  OD1       13.2710  -22.3510   -3.7340 O.2   121  ASN121     -0.2716
     82  ND2       11.1650  -22.8590   -3.1560 N.am  121  ASN121     -0.0877
     83  N          9.8790  -20.6210   -9.4600 N.3   123  LEU123     -0.1231
     84  CA         9.9820  -20.1970  -10.8550 C.3   123  LEU123      0.1678
     85  C          9.8920  -21.4330  -11.7590 C.2   123  LEU123      0.2434
     86  O         10.6010  -22.4010  -11.5190 O.2   123  LEU123     -0.2733
     87  CB        11.3040  -19.4660  -11.0760 C.3   123  LEU123      0.0284
     88  CG        11.5710  -18.7670  -12.4040 C.3   123  LEU123      0.0019
     89  CD1       10.7270  -17.5170  -12.5340 C.3   123  LEU123      0.0001
     90  CD2       13.0560  -18.4500  -12.5420 C.3   123  LEU123      0.0001
     91  N          9.0120  -21.4180  -12.7820 N.am  124  PRO124     -0.2718
     92  CA         8.8880  -22.6240  -13.6150 C.3   124  PRO124      0.1535
     93  C         10.0790  -22.7840  -14.5480 C.2   124  PRO124      0.2599
     94  O         10.6580  -21.7750  -14.9360 O.2   124  PRO124     -0.2715
     95  CB         7.6020  -22.3790  -14.4060 C.3   124  PRO124      0.0310
     96  CG         7.4920  -20.8880  -14.4990 C.3   124  PRO124      0.0237
     97  CD         8.0990  -20.3430  -13.2170 C.3   124  PRO124      0.0939
     98  N         10.4510  -24.0200  -14.8840 N.am  125  THR125     -0.1937
     99  CA        11.4960  -24.2630  -15.8790 C.3   125  THR125      0.2028
    100  C         11.1250  -23.5710  -17.1840 C.2   125  THR125      0.2642
    101  O          9.9650  -23.6030  -17.5940 O.2   125  THR125     -0.2714
    102  CB        11.6970  -25.7680  -16.1340 C.3   125  THR125      0.1808
    103  OG1       10.5420  -26.2980  -16.7950 O.3   125  THR125     -0.2208
    104  CG2       11.8970  -26.5030  -14.8300 C.3   125  THR125      0.0379
    105  N         12.0970  -22.9260  -17.8260 N.am  126  GLU126     -0.1976
    106  CA        11.7960  -22.1890  -19.0530 C.3   126  GLU126      0.1602
    107  C         11.3880  -23.1270  -20.1860 C.2   126  GLU126      0.2287
    108  O         12.0120  -24.1640  -20.4080 O.2   126  GLU126     -0.2864
    109  CB        12.9850  -21.3400  -19.5110 C.3   126  GLU126      0.0415
    110  CG        12.6080  -20.3030  -20.5760 C.3   126  GLU126      0.1163
    111  CD        13.8120  -19.5910  -21.1620 C.2   126  GLU126      0.3649
    112  OE1       14.6910  -20.2790  -21.7230 O.co2 126  GLU126     -0.2457
    113  OE2       13.8950  -18.3470  -21.0520 O.co2 126  GLU126     -0.2457
@<TRIPOS>BOND
     1     5     2    1
     2     5     6    1
     3     2     1    1
     4     2     3    1
     5     7     6    1
     6     7     8    1
     7    10     9    1
     8     3     4    2
     9     8     9    2
    10     9    11    1
    11   112   111   ar
    12   111   113   ar
    13   111   110    1
    14   110   109    1
    15    21    22    1
    16   108   107    2
    17   107   106    1
    18    28    26   am
    19    22    25    1
    20    22    23    1
    21    25    26    1
    22   109   106    1
    23    26    27    2
    24   106   105    1
    25    23    24    2
    26    23    29   am
    27    12    13    1
    28   105   100   am
    29   101   100    2
    30    29    30    1
    31   100    99    1
    32    19    18    2
    33   103   102    1
    34    13    16    1
    35    13    14    1
    36    17    16    1
    37    17    18    1
    38    14    15    2
    39    18    20   am
    40   102    99    1
    41   102   104    1
    42    30    33    1
    43    30    31    1
    44    99    98    1
    45    41    40    2
    46    34    31   am
    47    34    35    1
    48    38    35    1
    49    38    39    1
    50    31    32    2
    51    94    93    2
    52    98    93   am
    53    35    36    1
    54    36    37    2
    55    40    39    1
    56    40    42   am
    57    93    92    1
    58    96    95    1
    59    96    97    1
    60    95    92    1
    61    92    91    1
    62    97    91    1
    63    91    85   am
    64    90    88    1
    65    89    88    1
    66    88    87    1
    67    43    44    1
    68    85    86    2
    69    85    84    1
    70    50    48    1
    71    87    84    1
    72    48    47    1
    73    44    47    1
    74    44    45    1
    75    84    83    1
    76    47    49    1
    77    45    46    2
    78    74    72    1
    79    70    69    2
    80    73    71    1
    81    51    52    1
    82    72    71    1
    83    68    69    1
    84    68    71    1
    85    68    67    1
    86    69    75   am
    87    58    56   am
    88    55    52    1
    89    55    56    1
    90    78    77    2
    91    52    53    1
    92    53    54    2
    93    77    76    1
    94    56    57    2
    95    75    76    1
    96    76    79    1
    97    79    80    1
    98    81    80    2
    99    80    82   am
   100    62    61    2
   101    59    60    1
   102    60    61    1
   103    60    63    1
   104    66    64    1
   105    64    63    1
   106    64    65    1
