@<TRIPOS>MOLECULE
tmp/5e0xA01.pdb
 229 215 0 0 0
SMALL
GASTEIGER

@<TRIPOS>ATOM
      1  N        -10.9340    5.8920   15.1650 N.3    39  MET39      -0.1245
      2  CA       -10.5990    4.6970   15.9300 C.3    39  MET39       0.1570
      3  C         -9.8080    3.7310   15.0610 C.2    39  MET39       0.2261
      4  O         -8.9370    3.0120   15.5480 O.2    39  MET39      -0.2867
      5  CB       -11.8570    4.0160   16.4710 C.3    39  MET39       0.0387
      6  CG       -12.3780    4.6140   17.7680 C.3    39  MET39       0.0595
      7  SD       -11.1490    4.5750   19.0910 S.3    39  MET39      -0.1393
      8  CE       -10.8140    2.8180   19.1920 C.3    39  MET39       0.0692
      9  N         -6.1150    5.0920   14.9150 N.3    42  LEU42      -0.1231
     10  CA        -5.3850    4.8460   16.1540 C.3    42  LEU42       0.1693
     11  C         -5.0920    3.3610   16.3360 C.2    42  LEU42       0.2592
     12  O         -4.0240    2.9840   16.8160 O.2    42  LEU42      -0.2718
     13  CB        -6.1710    5.3780   17.3540 C.3    42  LEU42       0.0284
     14  CG        -6.5100    6.8690   17.3300 C.3    42  LEU42       0.0019
     15  CD1       -7.2380    7.2740   18.6020 C.3    42  LEU42       0.0001
     16  CD2       -5.2550    7.7050   17.1340 C.3    42  LEU42       0.0001
     17  N         -6.0510    2.5250   15.9510 N.am   43  THR43      -0.1953
     18  CA        -5.9010    1.0780   16.0440 C.3    43  THR43       0.1897
     19  C         -4.8340    0.5760   15.0770 C.2    43  THR43       0.2313
     20  O         -3.9590   -0.2060   15.4540 O.2    43  THR43      -0.2863
     21  CB        -7.2330    0.3580   15.7560 C.3    43  THR43       0.1794
     22  OG1       -8.1430    0.5840   16.8400 O.3    43  THR43      -0.2208
     23  CG2       -7.0160   -1.1350   15.5890 C.3    43  THR43       0.0378
     24  N         -2.4250    2.3050   13.7680 N.3    45  LEU45      -0.1231
     25  CA        -1.1370    2.8520   14.1770 C.3    45  LEU45       0.1693
     26  C         -0.5510    2.0780   15.3520 C.2    45  LEU45       0.2591
     27  O          0.6350    1.7470   15.3560 O.2    45  LEU45      -0.2718
     28  CB        -1.2770    4.3320   14.5430 C.3    45  LEU45       0.0284
     29  CG        -0.0260    5.0160   15.0980 C.3    45  LEU45       0.0019
     30  CD1        1.0800    5.0660   14.0530 C.3    45  LEU45       0.0001
     31  CD2       -0.3580    6.4110   15.6000 C.3    45  LEU45       0.0001
     32  N         -1.3870    1.7950   16.3460 N.am   46  ALA46      -0.1980
     33  CA        -0.9460    1.0810   17.5390 C.3    46  ALA46       0.1597
     34  C         -0.4900   -0.3340   17.2020 C.2    46  ALA46       0.2287
     35  O          0.4600   -0.8460   17.7950 O.2    46  ALA46      -0.2864
     36  CB        -2.0580    1.0440   18.5770 C.3    46  ALA46       0.0319
     37  N          2.9140   -0.1680   15.7790 N.3    49  GLU49      -0.1245
     38  CA         3.8320    0.2170   16.8450 C.3    49  GLU49       0.1567
     39  C          4.1460   -0.9690   17.7490 C.2    49  GLU49       0.2260
     40  O          5.2510   -1.0760   18.2820 O.2    49  GLU49      -0.2867
     41  CB         3.2520    1.3630   17.6730 C.3    49  GLU49       0.0388
     42  CG         3.2780    2.7130   16.9850 C.3    49  GLU49       0.1160
     43  CD         2.8200    3.8310   17.9000 C.2    49  GLU49       0.3649
     44  OE1        1.5940    4.0030   18.0610 O.co2  49  GLU49      -0.2457
     45  OE2        3.6880    4.5320   18.4650 O.co2  49  GLU49      -0.2457
     46  N          1.9010   -2.8960   27.6280 N.3    79  TRP79      -0.1227
     47  CA         1.9820   -2.4560   26.2330 C.3    79  TRP79       0.1737
     48  C          1.2880   -1.1150   25.9890 C.2    79  TRP79       0.2595
     49  O          1.7680   -0.3010   25.2010 O.2    79  TRP79      -0.2718
     50  CB         1.3990   -3.5140   25.2900 C.3    79  TRP79       0.0564
     51  CG        -0.0820   -3.7120   25.4020 C.ar   79  TRP79       0.0003
     52  CD1       -0.7320   -4.6020   26.2060 C.ar   79  TRP79       0.0946
     53  CD2       -1.1000   -3.0120   24.6750 C.ar   79  TRP79       0.0152
     54  NE1       -2.0900   -4.4960   26.0290 N.ar   79  TRP79      -0.2442
     55  CE2       -2.3420   -3.5270   25.0940 C.ar   79  TRP79       0.0810
     56  CE3       -1.0800   -1.9980   23.7120 C.ar   79  TRP79       0.0012
     57  CZ2       -3.5530   -3.0620   24.5850 C.ar   79  TRP79       0.0191
     58  CZ3       -2.2830   -1.5390   23.2080 C.ar   79  TRP79       0.0001
     59  CH2       -3.5020   -2.0700   23.6460 C.ar   79  TRP79       0.0015
     60  N          0.1650   -0.8840   26.6600 N.am   80  LEU80      -0.1980
     61  CA        -0.5620    0.3680   26.4830 C.3    80  LEU80       0.1596
     62  C          0.1270    1.4950   27.2470 C.2    80  LEU80       0.2287
     63  O          0.1150    2.6460   26.8100 O.2    80  LEU80      -0.2864
     64  CB        -2.0170    0.2240   26.9340 C.3    80  LEU80       0.0297
     65  CG        -2.9250    1.4200   26.6400 C.3    80  LEU80       0.0022
     66  CD1       -2.8310    1.8200   25.1750 C.3    80  LEU80       0.0001
     67  CD2       -4.3660    1.1120   27.0190 C.3    80  LEU80       0.0001
     68  N          2.9460    2.5150   24.9800 N.3    83  LEU83      -0.1231
     69  CA         2.3950    3.2740   23.8630 C.3    83  LEU83       0.1693
     70  C          2.0540    4.6980   24.2880 C.2    83  LEU83       0.2591
     71  O          2.3550    5.6570   23.5750 O.2    83  LEU83      -0.2718
     72  CB         1.1470    2.5870   23.2970 C.3    83  LEU83       0.0284
     73  CG         1.3430    1.4030   22.3490 C.3    83  LEU83       0.0019
     74  CD1        0.0040    0.9130   21.8230 C.3    83  LEU83       0.0001
     75  CD2        2.2630    1.7820   21.1990 C.3    83  LEU83       0.0001
     76  N          1.4320    4.8290   25.4560 N.am   84  MET84      -0.1979
     77  CA         0.9690    6.1260   25.9350 C.3    84  MET84       0.1605
     78  C          2.1120    7.0660   26.3060 C.2    84  MET84       0.2287
     79  O          2.0870    8.2420   25.9450 O.2    84  MET84      -0.2864
     80  CB         0.0340    5.9460   27.1320 C.3    84  MET84       0.0413
     81  CG        -1.3680    5.5010   26.7490 C.3    84  MET84       0.0598
     82  SD        -2.4510    5.2930   28.1730 S.3    84  MET84      -0.1393
     83  CE        -4.0300    5.0530   27.3630 C.3    84  MET84       0.0692
     84  N          3.5800    8.3510   23.2270 N.3    87  LEU87      -0.1245
     85  CA         2.7130    9.3950   22.6930 C.3    87  LEU87       0.1561
     86  C          2.9170   10.7140   23.4270 C.2    87  LEU87       0.2260
     87  O          3.0570   11.7700   22.8080 O.2    87  LEU87      -0.2867
     88  CB         1.2470    8.9670   22.7920 C.3    87  LEU87       0.0270
     89  CG         0.1920   10.0520   22.5690 C.3    87  LEU87       0.0019
     90  CD1        0.2490   10.5780   21.1450 C.3    87  LEU87       0.0001
     91  CD2       -1.1960    9.5240   22.8950 C.3    87  LEU87       0.0001
     92  N          6.1890   12.3240   22.4940 N.3    90  ARG90      -0.1245
     93  CA         6.1620   12.9210   21.1600 C.3    90  ARG90       0.1563
     94  C          5.3810   14.2310   21.1460 C.2    90  ARG90       0.2260
     95  O          5.6000   15.0830   20.2840 O.2    90  ARG90      -0.2867
     96  CB         5.5510   11.9530   20.1400 C.3    90  ARG90       0.0307
     97  CG         6.3440   10.6780   19.9170 C.3    90  ARG90       0.0489
     98  CD         5.8290    9.9110   18.7040 C.3    90  ARG90       0.2205
     99  NE         4.4080    9.5850   18.8050 N.pl3  90  ARG90      -0.0865
    100  CZ         3.9350    8.4620   19.3380 C.cat  90  ARG90       0.5346
    101  NH1        4.7700    7.5550   19.8270 N.pl3  90  ARG90       0.1354
    102  NH2        2.6260    8.2470   19.3840 N.pl3  90  ARG90       0.1354
    103  N          0.1570   11.6670   17.7190 N.3   100  PHE100     -0.1241
    104  CA         0.1220   10.2270   17.4910 C.3   100  PHE100      0.1605
    105  C          1.0950    9.8680   16.3770 C.2   100  PHE100      0.2264
    106  O          1.6980    8.7950   16.3750 O.2   100  PHE100     -0.2867
    107  CB        -1.2920    9.7660   17.1350 C.3   100  PHE100      0.0534
    108  CG        -2.2790    9.9190   18.2540 C.ar  100  PHE100     -0.0203
    109  CD1       -2.5090    8.8780   19.1390 C.ar  100  PHE100     -0.0042
    110  CD2       -2.9760   11.1040   18.4260 C.ar  100  PHE100     -0.0042
    111  CE1       -3.4190    9.0140   20.1740 C.ar  100  PHE100     -0.0003
    112  CE2       -3.8860   11.2470   19.4600 C.ar  100  PHE100     -0.0003
    113  CZ        -4.1070   10.2010   20.3350 C.ar  100  PHE100     -0.0000
    114  N        -15.0170   10.4120   19.3840 N.3   114  VAL114     -0.1231
    115  CA       -15.1730    9.0920   19.9830 C.3   114  VAL114      0.1692
    116  C        -15.6760    9.2300   21.4160 C.2   114  VAL114      0.2592
    117  O        -15.0330    9.8720   22.2480 O.2   114  VAL114     -0.2718
    118  CB       -13.8550    8.2980   19.9730 C.3   114  VAL114      0.0266
    119  CG1      -14.0000    7.0160   20.7810 C.3   114  VAL114      0.0020
    120  CG2      -13.4340    7.9890   18.5470 C.3   114  VAL114      0.0020
    121  N        -16.8280    8.6280   21.6960 N.am  115  GLU115     -0.1966
    122  CA       -17.4620    8.7460   23.0050 C.3   115  GLU115      0.1733
    123  C        -16.6090    8.1360   24.1140 C.2   115  GLU115      0.2617
    124  O        -16.3330    6.9360   24.1100 O.2   115  GLU115     -0.2715
    125  CB       -18.8430    8.0870   22.9880 C.3   115  GLU115      0.0429
    126  CG       -19.6740    8.6390   21.8360 C.3   115  GLU115      0.1163
    127  CD       -20.2450   10.0120   22.0710 C.2   115  GLU115      0.3649
    128  OE1      -20.0090   10.5530   23.1530 O.co2 115  GLU115     -0.2457
    129  OE2      -20.9400   10.5580   21.1600 O.co2 115  GLU115     -0.2457
    130  N        -16.1920    8.9740   25.0580 N.am  116  GLY116     -0.1940
    131  CA       -15.4450    8.5150   26.2150 C.3   116  GLY116      0.2014
    132  C        -13.9380    8.5630   26.0460 C.2   116  GLY116      0.2638
    133  O        -13.1980    8.0980   26.9120 O.2   116  GLY116     -0.2714
    134  N        -13.4790    9.1270   24.9330 N.am  117  MET117     -0.1976
    135  CA       -12.0480    9.2000   24.6590 C.3   117  MET117      0.1605
    136  C        -11.4530   10.5230   25.1290 C.2   117  MET117      0.2287
    137  O        -10.2700   10.5970   25.4660 O.2   117  MET117     -0.2864
    138  CB       -11.7760    9.0060   23.1650 C.3   117  MET117      0.0413
    139  CG       -10.2990    8.8890   22.8220 C.3   117  MET117      0.0598
    140  SD        -9.9850    8.5730   21.0760 S.3   117  MET117     -0.1393
    141  CE       -10.5170   10.1180   20.3580 C.3   117  MET117      0.0692
    142  N         -9.5920   10.4590   28.3660 N.3   120  ILE120     -0.1231
    143  CA        -8.2270    9.9460   28.3090 C.3   120  ILE120      0.1692
    144  C         -7.3120   10.9810   27.6580 C.2   120  ILE120      0.2592
    145  O         -6.1650   11.1630   28.0740 O.2   120  ILE120     -0.2718
    146  CB        -8.1530    8.6030   27.5400 C.3   120  ILE120      0.0266
    147  CG1       -8.7550    7.4670   28.3740 C.3   120  ILE120      0.0019
    148  CG2       -6.7170    8.2520   27.2040 C.3   120  ILE120      0.0020
    149  CD1      -10.2680    7.3760   28.3280 C.3   120  ILE120      0.0001
    150  N         -7.8400   11.6720   26.6510 N.am  121  PHE121     -0.1976
    151  CA        -7.1160   12.7370   25.9580 C.3   121  PHE121      0.1639
    152  C         -6.6210   13.8210   26.9110 C.2   121  PHE121      0.2290
    153  O         -5.4870   14.2820   26.8000 O.2   121  PHE121     -0.2864
    154  CB        -8.0020   13.3680   24.8820 C.3   121  PHE121      0.0560
    155  CG        -7.7320   12.8600   23.4960 C.ar  121  PHE121     -0.0200
    156  CD1       -7.5090   13.7450   22.4550 C.ar  121  PHE121     -0.0042
    157  CD2       -7.6910   11.5000   23.2340 C.ar  121  PHE121     -0.0042
    158  CE1       -7.2600   13.2850   21.1750 C.ar  121  PHE121     -0.0003
    159  CE2       -7.4400   11.0330   21.9580 C.ar  121  PHE121     -0.0003
    160  CZ        -7.2250   11.9270   20.9270 C.ar  121  PHE121     -0.0000
    161  N         -3.7650   12.4760   29.0740 N.3   124  LEU124     -0.1245
    162  CA        -2.5440   12.4080   28.2790 C.3   124  LEU124      0.1561
    163  C         -1.9400   13.7980   28.0790 C.2   124  LEU124      0.2260
    164  O         -0.7250   13.9730   28.1680 O.2   124  LEU124     -0.2867
    165  CB        -2.8230   11.7490   26.9250 C.3   124  LEU124      0.0270
    166  CG        -3.1910   10.2620   26.9290 C.3   124  LEU124      0.0019
    167  CD1       -3.7500    9.8430   25.5790 C.3   124  LEU124      0.0001
    168  CD2       -1.9870    9.4040   27.2940 C.3   124  LEU124      0.0001
    169  N         -8.0090    3.5070   29.9100 N.3   208  GLY208     -0.1225
    170  CA        -8.0190    3.3680   28.4660 C.3   208  GLY208      0.1811
    171  C         -8.3850    1.9560   28.0530 C.2   208  GLY208      0.2280
    172  O         -9.2260    1.7550   27.1760 O.2   208  GLY208     -0.2866
    173  N        -12.0960    0.9710   28.3700 N.3   211  HIS211     -0.1226
    174  CA       -12.9380    1.4280   27.2710 C.3   211  HIS211      0.1752
    175  C        -12.7060    0.6090   26.0040 C.2   211  HIS211      0.2595
    176  O        -13.6380    0.3510   25.2420 O.2   211  HIS211     -0.2718
    177  CB       -12.6900    2.9090   26.9800 C.3   211  HIS211      0.0759
    178  CG       -13.4260    3.8400   27.8960 C.ar  211  HIS211      0.0818
    179  ND1      -12.8320    4.4390   28.9820 N.ar  211  HIS211     -0.2268
    180  CD2      -14.7100    4.2700   27.8790 C.ar  211  HIS211      0.1154
    181  CE1      -13.7190    5.2030   29.6000 C.ar  211  HIS211      0.1986
    182  NE2      -14.8640    5.1170   28.9510 N.ar  211  HIS211     -0.2212
    183  N        -11.4610    0.1940   25.7900 N.am  212  LEU212     -0.1980
    184  CA       -11.0790   -0.4810   24.5530 C.3   212  LEU212      0.1596
    185  C        -11.6560   -1.8900   24.4130 C.2   212  LEU212      0.2287
    186  O        -12.0600   -2.2820   23.3180 O.2   212  LEU212     -0.2864
    187  CB        -9.5540   -0.5370   24.4330 C.3   212  LEU212      0.0297
    188  CG        -8.8700    0.7940   24.1140 C.3   212  LEU212      0.0022
    189  CD1       -7.3640    0.6170   24.0330 C.3   212  LEU212      0.0001
    190  CD2       -9.4160    1.3860   22.8230 C.3   212  LEU212      0.0001
    191  N        -14.3370   -2.8600   25.8810 N.3   214  SER214     -0.1217
    192  CA       -15.7480   -2.7660   26.2350 C.3   214  SER214      0.1889
    193  C        -16.6390   -3.1270   25.0480 C.2   214  SER214      0.2288
    194  O        -16.6550   -4.2740   24.5980 O.2   214  SER214     -0.2866
    195  CB       -16.0860   -1.3610   26.7350 C.3   214  SER214      0.2089
    196  OG       -15.9180   -0.3990   25.7080 O.3   214  SER214     -0.2183
    197  N        -16.3800   -1.8770   22.0060 N.3   216  LYS216     -0.1245
    198  CA       -15.6880   -1.4000   20.8090 C.3   216  LYS216      0.1561
    199  C        -15.8300   -2.3830   19.6470 C.2   216  LYS216      0.2260
    200  O        -16.3270   -3.4980   19.8170 O.2   216  LYS216     -0.2867
    201  CB       -14.2040   -1.1520   21.1100 C.3   216  LYS216      0.0271
    202  CG       -13.9230    0.0710   21.9770 C.3   216  LYS216      0.0035
    203  CD       -14.0510    1.3820   21.2100 C.3   216  LYS216      0.0206
    204  CE       -15.2610    2.1850   21.6740 C.3   216  LYS216      0.1093
    205  NZ       -15.3590    3.5020   20.9750 N.3   216  LYS216     -0.1314
    206  N         -9.9830   -4.2890   15.0350 N.3   218  LEU218     -0.1245
    207  CA        -8.6440   -4.4600   15.5940 C.3   218  LEU218      0.1561
    208  C         -7.9060   -5.6510   14.9860 C.2   218  LEU218      0.2260
    209  O         -8.5320   -6.6360   14.5810 O.2   218  LEU218     -0.2867
    210  CB        -8.7240   -4.6260   17.1130 C.3   218  LEU218      0.0270
    211  CG        -9.4800   -3.4350   17.7280 C.3   218  LEU218      0.0019
    212  CD1      -10.8980   -3.8310   18.1550 C.3   218  LEU218      0.0001
    213  CD2       -8.7520   -2.7480   18.8330 C.3   218  LEU218      0.0001
    214  N         -3.3440   -7.0300   18.3820 N.3   222  LEU222     -0.1245
    215  CA        -3.9290   -6.0290   19.2640 C.3   222  LEU222      0.1561
    216  C         -5.1010   -6.6090   20.0500 C.2   222  LEU222      0.2260
    217  O         -5.3460   -6.2220   21.1920 O.2   222  LEU222     -0.2867
    218  CB        -4.3770   -4.8090   18.4590 C.3   222  LEU222      0.0270
    219  CG        -4.8050   -3.5840   19.2650 C.3   222  LEU222      0.0019
    220  CD1       -3.7410   -3.2350   20.2870 C.3   222  LEU222      0.0001
    221  CD2       -5.0550   -2.4130   18.3360 C.3   222  LEU222      0.0001
    222  N         -5.2400   -6.9960   24.0790 N.3   226  LEU226     -0.1245
    223  CA        -6.4000   -6.4620   24.7830 C.3   226  LEU226      0.1561
    224  C         -7.0920   -7.5390   25.6120 C.2   226  LEU226      0.2260
    225  O         -7.5180   -7.2870   26.7400 O.2   226  LEU226     -0.2867
    226  CB        -7.3940   -5.8480   23.7950 C.3   226  LEU226      0.0270
    227  CG        -7.0900   -4.4370   23.2880 C.3   226  LEU226      0.0019
    228  CD1       -8.1000   -4.0210   22.2310 C.3   226  LEU226      0.0001
    229  CD2       -7.0860   -3.4490   24.4420 C.3   226  LEU226      0.0001
@<TRIPOS>BOND
     1    24    25    1
     2    30    29    1
     3    25    28    1
     4    25    26    1
     5    28    29    1
     6   209   208    2
     7     9    10    1
     8   208   207    1
     9   206   207    1
    10     3     4    2
    11     3     2    1
    12    19    20    2
    13    19    18    1
    14    29    31    1
    15     1     2    1
    16    26    27    2
    17    26    32   am
    18    23    21    1
    19   207   210    1
    20    21    18    1
    21    21    22    1
    22    37    38    1
    23     2     5    1
    24    17    18    1
    25    17    11   am
    26    10    11    1
    27    10    13    1
    28    11    12    2
    29    32    33    1
    30   106   105    2
    31   105   104    1
    32     5     6    1
    33    38    41    1
    34    38    39    1
    35    42    41    1
    36    42    43    1
    37   210   211    1
    38    16    14    1
    39   107   104    1
    40   107   108    1
    41    34    33    1
    42    34    35    2
    43    14    13    1
    44    14    15    1
    45   104   103    1
    46    33    36    1
    47   211   212    1
    48   211   213    1
    49    39    40    2
    50     6     7    1
    51    43    44   ar
    52    43    45   ar
    53   108   110   ar
    54   108   109   ar
    55   221   219    1
    56   214   215    1
    57   110   112   ar
    58   218   215    1
    59   218   219    1
    60   120   118    1
    61    98    99    1
    62    98    97    1
    63    99   100    2
    64     7     8    1
    65   109   111   ar
    66   215   216    1
    67   219   220    1
    68   100   102    1
    69   100   101    1
    70   114   115    1
    71   112   113   ar
    72   199   200    2
    73   199   198    1
    74    97    96    1
    75   118   115    1
    76   118   119    1
    77   115   116    1
    78   216   217    2
    79    96    93    1
    80   111   113   ar
    81    95    94    2
    82   141   140    1
    83   198   201    1
    84   198   197    1
    85   160   158   ar
    86   160   159   ar
    87   205   204    1
    88   140   139    1
    89   201   202    1
    90    90    89    1
    91    94    93    1
    92    93    92    1
    93   129   127   ar
    94   158   156   ar
    95    75    73    1
    96   203   204    1
    97   203   202    1
    98   116   121   am
    99   116   117    2
   100   121   122    1
   101    74    73    1
   102   126   127    1
   103   126   125    1
   104   159   157   ar
   105   127   128   ar
   106   228   227    1
   107    73    72    1
   108   156   155   ar
   109    89    88    1
   110    89    91    1
   111    85    88    1
   112    85    84    1
   113    85    86    1
   114    87    86    2
   115   139   138    1
   116   190   188    1
   117   125   122    1
   118   122   123    1
   119   138   135    1
   120    58    59   ar
   121    58    56   ar
   122   157   155   ar
   123   227   226    1
   124   227   229    1
   125    72    69    1
   126   186   185    2
   127   155   154    1
   128    71    70    2
   129    59    57   ar
   130    56    53   ar
   131   226   223    1
   132    69    70    1
   133    69    68    1
   134   189   188    1
   135   222   223    1
   136   124   123    2
   137   188   187    1
   138   123   130   am
   139    70    76   am
   140   185   184    1
   141   187   184    1
   142   184   183    1
   143    57    55   ar
   144   194   193    2
   145   135   134    1
   146   135   136    1
   147    53    55   ar
   148    53    51   ar
   149   223   224    1
   150   154   151    1
   151   134   132   am
   152   193   192    1
   153   130   131    1
   154    55    54   ar
   155   136   137    2
   156    66    65    1
   157    49    48    2
   158   176   175    2
   159    50    51    1
   160    50    47    1
   161    51    52   ar
   162    76    77    1
   163   167   166    1
   164   224   225    2
   165   196   195    1
   166   183   175   am
   167   191   192    1
   168    77    78    1
   169    77    80    1
   170    79    78    2
   171   151   150    1
   172   151   152    1
   173    48    47    1
   174    48    60   am
   175   175   174    1
   176    54    52   ar
   177   132   131    1
   178   132   133    2
   179    47    46    1
   180   192   195    1
   181    61    60    1
   182    61    64    1
   183    61    62    1
   184    65    64    1
   185    65    67    1
   186   150   144   am
   187    81    80    1
   188    81    82    1
   189   153   152    2
   190    63    62    2
   191   165   166    1
   192   165   162    1
   193   166   168    1
   194   177   174    1
   195   177   178    1
   196   172   171    2
   197   148   146    1
   198   174   173    1
   199    83    82    1
   200   146   143    1
   201   146   147    1
   202   144   145    2
   203   144   143    1
   204   180   178   ar
   205   180   182   ar
   206   178   179   ar
   207   171   170    1
   208   163   164    2
   209   163   162    1
   210   162   161    1
   211   143   142    1
   212   149   147    1
   213   170   169    1
   214   182   181   ar
   215   179   181   ar
