@<TRIPOS>MOLECULE
tmp/5e13A00.pdb
 162 158 0 0 0
SMALL
GASTEIGER

@<TRIPOS>ATOM
      1  N         -6.7070  -21.0820   15.6540 N.3     1  MET1       -0.1230
      2  CA        -6.9510  -20.7010   14.2110 C.3     1  MET1        0.1702
      3  C         -5.8220  -20.1700   13.3590 C.2     1  MET1        0.2592
      4  O         -5.7560  -20.3540   12.1370 O.2     1  MET1       -0.2718
      5  CB        -8.3740  -20.2310   13.8270 C.3     1  MET1        0.0401
      6  CG        -9.3970  -21.3290   13.6150 C.3     1  MET1        0.0596
      7  SD        -9.5710  -22.3860   15.0570 S.3     1  MET1       -0.1393
      8  CE       -10.1470  -21.2190   16.2840 C.3     1  MET1        0.0692
      9  N         -5.0200  -19.3230   14.0140 N.am    2  LYS2       -0.1980
     10  CA        -4.1050  -18.4430   13.3060 C.3     2  LYS2        0.1596
     11  C         -2.8330  -19.2050   12.9650 C.2     2  LYS2        0.2287
     12  O         -2.2000  -19.7660   13.8610 O.2     2  LYS2       -0.2864
     13  CB        -3.7450  -17.2310   14.1590 C.3     2  LYS2        0.0298
     14  CG        -2.8350  -16.2660   13.4300 C.3     2  LYS2        0.0038
     15  CD        -2.2800  -15.1240   14.2670 C.3     2  LYS2        0.0206
     16  CE        -1.3580  -15.5520   15.3840 C.3     2  LYS2        0.1093
     17  NZ        -0.1760  -16.3280   14.9000 N.3     2  LYS2       -0.1314
     18  N          1.1280  -19.8380   12.1870 N.3     4  PRO4       -0.2116
     19  CA         2.2240  -19.3050   13.0020 C.3     4  PRO4        0.1372
     20  C          3.0360  -18.2250   12.3290 C.2     4  PRO4        0.2244
     21  O          3.7130  -17.4640   13.0050 O.2     4  PRO4       -0.2868
     22  CB         3.0890  -20.5420   13.2570 C.3     4  PRO4        0.0268
     23  CG         2.8170  -21.4380   12.0860 C.3     4  PRO4        0.0207
     24  CD         1.3680  -21.2360   11.7900 C.3     4  PRO4        0.0892
     25  N         -0.8180  -11.1500   14.8450 N.3     8  TRP8       -0.1241
     26  CA        -2.2530  -10.8970   14.9260 C.3     8  TRP8        0.1605
     27  C         -2.6840   -9.7920   13.9620 C.2     8  TRP8        0.2264
     28  O         -3.7580   -9.8930   13.3680 O.2     8  TRP8       -0.2867
     29  CB        -2.6880  -10.6190   16.3720 C.3     8  TRP8        0.0550
     30  CG        -2.6230  -11.8660   17.2080 C.ar    8  TRP8        0.0003
     31  CD1       -1.7070  -12.1570   18.1690 C.ar    8  TRP8        0.0946
     32  CD2       -3.4900  -12.9960   17.1150 C.ar    8  TRP8        0.0152
     33  NE1       -1.9570  -13.3950   18.6860 N.ar    8  TRP8       -0.2442
     34  CE2       -3.0430  -13.9380   18.0580 C.ar    8  TRP8        0.0810
     35  CE3       -4.6040  -13.3000   16.3360 C.ar    8  TRP8        0.0012
     36  CZ2       -3.6760  -15.1700   18.2370 C.ar    8  TRP8        0.0191
     37  CZ3       -5.2350  -14.5410   16.5080 C.ar    8  TRP8        0.0001
     38  CH2       -4.7610  -15.4520   17.4550 C.ar    8  TRP8        0.0015
     39  N         -2.7830  -11.2660   10.5010 N.3    11  TRP11      -0.1241
     40  CA        -3.9770  -12.1190   10.4060 C.3    11  TRP11       0.1605
     41  C         -5.2480  -11.2860   10.2550 C.2    11  TRP11       0.2264
     42  O         -6.1420  -11.6360    9.4780 O.2    11  TRP11      -0.2867
     43  CB        -4.0580  -13.0890   11.5930 C.3    11  TRP11       0.0550
     44  CG        -5.1310  -14.1040   11.5350 C.ar   11  TRP11       0.0003
     45  CD1       -6.0750  -14.3340   12.4840 C.ar   11  TRP11       0.0946
     46  CD2       -5.3460  -15.0880   10.5120 C.ar   11  TRP11       0.0152
     47  NE1       -6.8580  -15.3970   12.1340 N.ar   11  TRP11      -0.2442
     48  CE2       -6.4460  -15.8690   10.9160 C.ar   11  TRP11       0.0810
     49  CE3       -4.7150  -15.3830    9.2940 C.ar   11  TRP11       0.0012
     50  CZ2       -6.9570  -16.9150   10.1290 C.ar   11  TRP11       0.0191
     51  CZ3       -5.2270  -16.4070    8.5110 C.ar   11  TRP11       0.0001
     52  CH2       -6.3230  -17.1730    8.9460 C.ar   11  TRP11       0.0015
     53  N         -7.7830  -11.5850    7.1660 N.3    15  GLN15      -0.1231
     54  CA        -9.1800  -11.9500    7.3230 C.3    15  GLN15       0.1698
     55  C        -10.1270  -10.8530    6.9230 C.2    15  GLN15       0.2592
     56  O        -11.2350  -11.1420    6.4570 O.2    15  GLN15      -0.2718
     57  CB        -9.5000  -12.3070    8.7630 C.3    15  GLN15       0.0381
     58  CG        -8.8640  -13.5880    9.2590 C.3    15  GLN15       0.0905
     59  CD        -9.6270  -14.1710   10.4240 C.2    15  GLN15       0.2608
     60  OE1      -10.3390  -15.1670   10.2760 O.2    15  GLN15      -0.2717
     61  NE2       -9.5370  -13.5230   11.5730 N.am   15  GLN15      -0.0878
     62  N         -9.7550   -9.5960    7.1640 N.am   16  HIS16      -0.1976
     63  CA       -10.7550   -8.5130    7.1170 C.3    16  HIS16       0.1656
     64  C        -10.4570   -7.3760    6.1440 C.2    16  HIS16       0.2291
     65  O        -11.3180   -6.5150    5.9510 O.2    16  HIS16      -0.2864
     66  CB       -10.9770   -7.9310    8.5140 C.3    16  HIS16       0.0771
     67  CG       -11.3860   -8.9480    9.5200 C.ar   16  HIS16       0.0820
     68  ND1      -12.5420   -9.6850    9.4090 N.ar   16  HIS16      -0.2267
     69  CD2      -10.7750   -9.3840   10.6440 C.ar   16  HIS16       0.1154
     70  CE1      -12.6370  -10.5180   10.4320 C.ar   16  HIS16       0.1986
     71  NE2      -11.5670  -10.3590   11.1900 N.ar   16  HIS16      -0.2212
     72  N        -14.9780   -3.0450   24.6580 N.3    63  CYS63      -0.1235
     73  CA       -15.2740   -3.9560   23.5610 C.3    63  CYS63       0.1677
     74  C        -16.6400   -4.6110   23.7410 C.2    63  CYS63       0.2270
     75  O        -16.8730   -5.2530   24.7670 O.2    63  CYS63      -0.2867
     76  CB       -14.2240   -5.0490   23.4970 C.3    63  CYS63       0.0956
     77  SG       -12.5590   -4.4570   23.1710 S.3    63  CYS63      -0.0801
     78  N        -17.7990   -7.4070   22.7820 N.3    65  SER65      -0.1202
     79  CA       -17.7260   -8.8390   23.1020 C.3    65  SER65       0.2020
     80  C        -17.1130   -9.1590   24.4630 C.2    65  SER65       0.2618
     81  O        -17.1870  -10.2990   24.9130 O.2    65  SER65      -0.2717
     82  CB       -16.9550   -9.5970   22.0250 C.3    65  SER65       0.2103
     83  OG       -15.5670   -9.3440   22.1460 O.3    65  SER65      -0.2182
     84  N        -16.4860   -8.1830   25.1170 N.am   66  ASN66      -0.1974
     85  CA       -15.8400   -8.4310   26.4000 C.3    66  ASN66       0.1688
     86  C        -15.8170   -7.1620   27.2310 C.2    66  ASN66       0.2292
     87  O        -15.0070   -6.2640   26.9890 O.2    66  ASN66      -0.2864
     88  CB       -14.4280   -8.9920   26.2010 C.3    66  ASN66       0.1181
     89  CG       -13.8170   -9.5360   27.4880 C.2    66  ASN66       0.2629
     90  OD1      -14.1830   -9.1330   28.5970 O.2    66  ASN66      -0.2716
     91  ND2      -12.8690  -10.4540   27.3420 N.am   66  ASN66      -0.0877
     92  N        -12.5230   -5.5520   28.5370 N.3    69  ARG69      -0.1245
     93  CA       -11.4790   -5.0040   27.6560 C.3    69  ARG69       0.1563
     94  C        -11.8310   -3.5980   27.2060 C.2    69  ARG69       0.2260
     95  O        -12.9610   -3.3140   26.8290 O.2    69  ARG69      -0.2867
     96  CB       -11.2500   -5.8930   26.4270 C.3    69  ARG69       0.0307
     97  CG       -10.7770   -7.3090   26.7200 C.3    69  ARG69       0.0489
     98  CD        -9.5930   -7.3870   27.6620 C.3    69  ARG69       0.2205
     99  NE        -8.4890   -6.4980   27.2890 N.pl3  69  ARG69      -0.0865
    100  CZ        -7.5830   -6.7240   26.3310 C.cat  69  ARG69       0.5346
    101  NH1       -7.6150   -7.8330   25.5920 N.pl3  69  ARG69       0.1354
    102  NH2       -6.6280   -5.8200   26.1130 N.pl3  69  ARG69       0.1354
    103  N         -9.5830   -1.8750   24.9850 N.3    71  ASN71      -0.1225
    104  CA        -8.7000   -1.6000   23.8430 C.3    71  ASN71       0.1785
    105  C         -9.4710   -1.5670   22.5180 C.2    71  ASN71       0.2597
    106  O         -8.8630   -1.7510   21.4630 O.2    71  ASN71      -0.2718
    107  CB        -7.5380   -2.6000   23.8010 C.3    71  ASN71       0.1169
    108  CG        -7.9820   -4.0280   23.5160 C.2    71  ASN71       0.2627
    109  OD1       -9.0740   -4.4360   23.8870 O.2    71  ASN71      -0.2716
    110  ND2       -7.1280   -4.7970   22.8380 N.am   71  ASN71      -0.0877
    111  N        -10.7760   -1.3040   22.5560 N.am   72  CYS72      -0.1970
    112  CA       -11.5700   -1.1890   21.3440 C.3    72  CYS72       0.1712
    113  C        -11.7530    0.2650   20.9090 C.2    72  CYS72       0.2296
    114  O        -11.5760    1.2070   21.7010 O.2    72  CYS72      -0.2864
    115  CB       -12.9080   -1.9100   21.5290 C.3    72  CYS72       0.0983
    116  SG       -12.7430   -3.6980   21.2840 S.3    72  CYS72      -0.0798
    117  N        -10.4330   -4.0230   18.0300 N.3   111  ALA111     -0.1245
    118  CA        -9.4870   -4.0180   19.1310 C.3   111  ALA111      0.1562
    119  C         -8.1000   -3.8140   18.5520 C.2   111  ALA111      0.2260
    120  O         -7.7660   -4.4230   17.5290 O.2   111  ALA111     -0.2867
    121  CB        -9.5670   -5.3180   19.9050 C.3   111  ALA111      0.0290
    122  N         -3.7290   -3.2660   19.5640 N.3   113  ASP113     -0.1239
    123  CA        -2.6810   -3.5540   20.5350 C.3   113  ASP113      0.1674
    124  C         -1.3700   -3.0430   19.9860 C.2   113  ASP113      0.2266
    125  O         -1.2530   -2.6960   18.8030 O.2   113  ASP113     -0.2867
    126  CB        -2.5620   -5.0610   20.7800 C.3   113  ASP113      0.1410
    127  CG        -3.5320   -5.5730   21.8210 C.2   113  ASP113      0.3668
    128  OD1       -3.9360   -4.8100   22.7250 O.co2 113  ASP113     -0.2456
    129  OD2       -3.8530   -6.7660   21.7280 O.co2 113  ASP113     -0.2456
    130  N         -5.9780   -5.8770   15.8210 N.3   129  VAL129     -0.1231
    131  CA        -5.7680   -7.3080   16.0520 C.3   129  VAL129      0.1692
    132  C         -7.0580   -8.1290   16.0830 C.2   129  VAL129      0.2592
    133  O         -6.9960   -9.3490   16.1440 O.2   129  VAL129     -0.2718
    134  CB        -4.9470   -7.5550   17.3460 C.3   129  VAL129      0.0266
    135  CG1       -3.5730   -6.9070   17.2230 C.3   129  VAL129      0.0020
    136  CG2       -5.6620   -7.0550   18.6080 C.3   129  VAL129      0.0020
    137  N         -8.2160   -7.4810   16.0560 N.am  130  HIS130     -0.1962
    138  CA        -9.4770   -8.2060   16.1690 C.3   130  HIS130      0.1787
    139  C        -10.6130   -7.3250   15.7030 C.2   130  HIS130      0.2620
    140  O        -10.6980   -6.1770   16.1110 O.2   130  HIS130     -0.2715
    141  CB        -9.6810   -8.6290   17.6370 C.3   130  HIS130      0.0785
    142  CG       -11.0260   -9.1970   17.9430 C.ar  130  HIS130      0.0821
    143  ND1      -11.4150  -10.4490   17.5300 N.ar  130  HIS130     -0.2267
    144  CD2      -12.0610   -8.6840   18.6500 C.ar  130  HIS130      0.1154
    145  CE1      -12.6480  -10.6730   17.9600 C.ar  130  HIS130      0.1986
    146  NE2      -13.0510   -9.6250   18.6500 N.ar  130  HIS130     -0.2212
    147  N        -11.4950   -7.8650   14.8630 N.am  131  LEU131     -0.1963
    148  CA       -12.7250   -7.1840   14.4970 C.3   131  LEU131      0.1728
    149  C        -13.7920   -7.6100   15.4900 C.2   131  LEU131      0.2616
    150  O        -14.1890   -8.7660   15.5030 O.2   131  LEU131     -0.2715
    151  CB       -13.1270   -7.5500   13.0730 C.3   131  LEU131      0.0311
    152  CG       -14.4200   -6.9040   12.5850 C.3   131  LEU131      0.0022
    153  CD1      -14.3220   -5.3920   12.6120 C.3   131  LEU131      0.0001
    154  CD2      -14.7500   -7.3970   11.1880 C.3   131  LEU131      0.0001
    155  N        -14.2210   -6.6870   16.3480 N.am  132  ASP132     -0.1971
    156  CA       -15.1460   -7.0540   17.4070 C.3   132  ASP132      0.1709
    157  C        -16.6100   -6.9670   17.0450 C.2   132  ASP132      0.2293
    158  O        -17.3910   -7.8070   17.4980 O.2   132  ASP132     -0.2864
    159  CB       -14.9100   -6.2400   18.6740 C.3   132  ASP132      0.1436
    160  CG       -15.4150   -6.9630   19.9030 C.2   132  ASP132      0.3671
    161  OD1      -15.0950   -8.1640   20.0610 O.co2 132  ASP132     -0.2456
    162  OD2      -16.1650   -6.3490   20.6770 O.co2 132  ASP132     -0.2456
@<TRIPOS>BOND
     1    65    64    2
     2    64    63    1
     3    56    55    2
     4    55    62   am
     5    55    54    1
     6    63    62    1
     7    63    66    1
     8    53    54    1
     9    54    57    1
    10    51    52   ar
    11    51    49   ar
    12    66    67    1
    13    57    58    1
    14    52    50   ar
    15    58    59    1
    16    49    46   ar
    17    68    67   ar
    18    68    70   ar
    19    42    41    2
    20    67    69   ar
    21    50    48   ar
    22    41    40    1
    23    60    59    2
    24    40    39    1
    25    40    43    1
    26    59    61   am
    27    70    71   ar
    28    46    48   ar
    29    46    44   ar
    30    69    71   ar
    31    48    47   ar
    32   154   152    1
    33    44    43    1
    34    44    45   ar
    35    24    23    1
    36    24    18    1
    37    23    22    1
    38    47    45   ar
    39     4     3    2
    40    18    19    1
    41    20    19    1
    42    20    21    2
    43   152   153    1
    44   152   151    1
    45    11    10    1
    46    11    12    2
    47    19    22    1
    48   151   148    1
    49    10     9    1
    50    10    13    1
    51     3     9   am
    52     3     2    1
    53    28    27    2
    54    14    13    1
    55    14    15    1
    56     6     5    1
    57     6     7    1
    58     5     2    1
    59    27    26    1
    60     2     1    1
    61    15    16    1
    62   148   147    1
    63   148   149    1
    64    25    26    1
    65   147   139   am
    66    17    16    1
    67    26    29    1
    68     7     8    1
    69   149   150    2
    70   149   155   am
    71   139   140    2
    72   139   138    1
    73   130   131    1
    74   131   132    1
    75   131   134    1
    76   137   132   am
    77   137   138    1
    78   132   133    2
    79   138   141    1
    80    35    37   ar
    81    35    32   ar
    82   155   156    1
    83    29    30    1
    84    37    38   ar
    85   157   156    1
    86   157   158    2
    87    32    30   ar
    88    32    34   ar
    89    30    31   ar
    90   135   134    1
    91   134   136    1
    92   156   159    1
    93    38    36   ar
    94   120   119    2
    95   143   142   ar
    96   143   145   ar
    97   141   142    1
    98   142   144   ar
    99   145   146   ar
   100   117   118    1
   101    34    36   ar
   102    34    33   ar
   103    31    33   ar
   104   119   118    1
   105   144   146   ar
   106   159   160    1
   107   125   124    2
   108   118   121    1
   109   122   123    1
   110   160   161   ar
   111   160   162   ar
   112   124   123    1
   113   123   126    1
   114   126   127    1
   115   113   112    1
   116   113   114    2
   117   116   115    1
   118   116    77    1
   119   112   115    1
   120   112   111    1
   121   106   105    2
   122   129   127   ar
   123   127   128   ar
   124    82    83    1
   125    82    79    1
   126   105   111   am
   127   105   104    1
   128    78    79    1
   129   110   108   am
   130    79    80    1
   131    77    76    1
   132    76    73    1
   133   108   107    1
   134   108   109    2
   135    73    74    1
   136    73    72    1
   137    74    75    2
   138   107   104    1
   139   104   103    1
   140    80    81    2
   141    80    84   am
   142    84    85    1
   143   101   100    1
   144   102   100    1
   145    88    85    1
   146    88    89    1
   147   100    99    2
   148    85    86    1
   149    96    97    1
   150    96    93    1
   151    97    98    1
   152    95    94    2
   153    87    86    2
   154    94    93    1
   155    99    98    1
   156    91    89   am
   157    89    90    2
   158    93    92    1
