@<TRIPOS>MOLECULE
tmp/5e19A01.pdb
 214 202 0 0 0
SMALL
GASTEIGER

@<TRIPOS>ATOM
      1  N        -18.8220   -9.9130   50.9600 N.3    39  MET39      -0.1245
      2  CA       -18.8800   -8.5660   50.4120 C.3    39  MET39       0.1570
      3  C        -19.6180   -7.6320   51.3630 C.2    39  MET39       0.2261
      4  O        -19.3610   -6.4300   51.3870 O.2    39  MET39      -0.2867
      5  CB       -19.5520   -8.5540   49.0360 C.3    39  MET39       0.0387
      6  CG       -18.7470   -9.2430   47.9510 C.3    39  MET39       0.0595
      7  SD       -17.0140   -8.7450   47.9540 S.3    39  MET39      -0.1393
      8  CE       -17.1450   -6.9860   47.6440 C.3    39  MET39       0.0692
      9  N        -17.0440   -6.7400   54.1210 N.3    42  LEU42      -0.1231
     10  CA       -16.0230   -5.8590   53.5630 C.3    42  LEU42       0.1693
     11  C        -16.5770   -4.4580   53.3220 C.2    42  LEU42       0.2592
     12  O        -15.9180   -3.4630   53.6190 O.2    42  LEU42      -0.2718
     13  CB       -15.4660   -6.4360   52.2600 C.3    42  LEU42       0.0284
     14  CG       -14.7530   -7.7870   52.3590 C.3    42  LEU42       0.0019
     15  CD1      -14.2090   -8.2110   51.0020 C.3    42  LEU42       0.0001
     16  CD2      -13.6440   -7.7400   53.3970 C.3    42  LEU42       0.0001
     17  N        -17.7920   -4.3940   52.7840 N.am   43  THR43      -0.1953
     18  CA       -18.4630   -3.1240   52.5250 C.3    43  THR43       0.1897
     19  C        -18.7170   -2.3620   53.8220 C.2    43  THR43       0.2313
     20  O        -18.4840   -1.1540   53.8990 O.2    43  THR43      -0.2863
     21  CB       -19.8000   -3.3400   51.7880 C.3    43  THR43       0.1794
     22  OG1      -19.5460   -3.8700   50.4810 O.3    43  THR43      -0.2208
     23  CG2      -20.5670   -2.0340   51.6590 C.3    43  THR43       0.0378
     24  N        -17.0950   -2.7250   56.6760 N.3    45  LEU45      -0.1231
     25  CA       -15.7940   -2.3270   57.2000 C.3    45  LEU45       0.1693
     26  C        -15.2460   -1.1120   56.4600 C.2    45  LEU45       0.2591
     27  O        -14.7590   -0.1660   57.0780 O.2    45  LEU45      -0.2718
     28  CB       -14.8010   -3.4860   57.1060 C.3    45  LEU45       0.0284
     29  CG       -13.3580   -3.1640   57.4980 C.3    45  LEU45       0.0019
     30  CD1      -13.2730   -2.7770   58.9690 C.3    45  LEU45       0.0001
     31  CD2      -12.4370   -4.3350   57.1910 C.3    45  LEU45       0.0001
     32  N        -15.3320   -1.1490   55.1330 N.am   46  ALA46      -0.1980
     33  CA       -14.8170   -0.0700   54.2990 C.3    46  ALA46       0.1597
     34  C        -15.5730    1.2320   54.5380 C.2    46  ALA46       0.2287
     35  O        -14.9800    2.3100   54.5380 O.2    46  ALA46      -0.2864
     36  CB       -14.8880   -0.4570   52.8300 C.3    46  ALA46       0.0319
     37  N        -14.3970    2.7000   57.7080 N.3    49  GLU49      -0.1245
     38  CA       -13.0210    3.1440   57.4990 C.3    49  GLU49       0.1567
     39  C        -12.9430    4.4700   56.7450 C.2    49  GLU49       0.2260
     40  O        -12.0220    5.2590   56.9580 O.2    49  GLU49      -0.2867
     41  CB       -12.2250    2.0840   56.7360 C.3    49  GLU49       0.0388
     42  CG       -11.6880    0.9480   57.5860 C.3    49  GLU49       0.1160
     43  CD       -10.7730    0.0290   56.7980 C.2    49  GLU49       0.3649
     44  OE1      -11.2870   -0.7740   55.9900 O.co2  49  GLU49      -0.2457
     45  OE2       -9.5400    0.1190   56.9750 O.co2  49  GLU49      -0.2457
     46  N         -9.4490    6.8540   47.3400 N.3    79  TRP79      -0.1227
     47  CA        -9.9590    6.2160   48.5580 C.3    79  TRP79       0.1737
     48  C         -9.7220    4.7050   48.5990 C.2    79  TRP79       0.2595
     49  O         -9.4060    4.1570   49.6540 O.2    79  TRP79      -0.2718
     50  CB       -11.4520    6.5110   48.7390 C.3    79  TRP79       0.0564
     51  CG       -12.3440    5.8640   47.7270 C.ar   79  TRP79       0.0003
     52  CD1      -12.7160    6.3730   46.5180 C.ar   79  TRP79       0.0946
     53  CD2      -12.9920    4.5900   47.8430 C.ar   79  TRP79       0.0152
     54  NE1      -13.5490    5.4930   45.8710 N.ar   79  TRP79      -0.2442
     55  CE2      -13.7350    4.3910   46.6630 C.ar   79  TRP79       0.0810
     56  CE3      -13.0110    3.5980   48.8280 C.ar   79  TRP79       0.0012
     57  CZ2      -14.4890    3.2410   46.4410 C.ar   79  TRP79       0.0191
     58  CZ3      -13.7620    2.4560   48.6050 C.ar   79  TRP79       0.0001
     59  CH2      -14.4900    2.2880   47.4200 C.ar   79  TRP79       0.0015
     60  N         -9.8560    4.0320   47.4600 N.am   80  LEU80      -0.1980
     61  CA        -9.6500    2.5880   47.4270 C.3    80  LEU80       0.1596
     62  C         -8.1620    2.2450   47.4900 C.2    80  LEU80       0.2287
     63  O         -7.7800    1.2180   48.0510 O.2    80  LEU80      -0.2864
     64  CB       -10.2860    1.9740   46.1770 C.3    80  LEU80       0.0297
     65  CG       -10.3260    0.4430   46.1580 C.3    80  LEU80       0.0022
     66  CD1      -10.9770   -0.0890   47.4290 C.3    80  LEU80       0.0001
     67  CD2      -11.0550   -0.0700   44.9270 C.3    80  LEU80       0.0001
     68  N         -7.2890    2.5670   51.1770 N.3    83  LEU83      -0.1231
     69  CA        -7.7980    1.3970   51.8850 C.3    83  LEU83       0.1693
     70  C         -6.9050    0.1840   51.6470 C.2    83  LEU83       0.2591
     71  O         -6.6000   -0.5660   52.5750 O.2    83  LEU83      -0.2718
     72  CB        -9.2310    1.0770   51.4530 C.3    83  LEU83       0.0284
     73  CG       -10.3730    1.9270   52.0110 C.3    83  LEU83       0.0019
     74  CD1      -11.7140    1.3860   51.5370 C.3    83  LEU83       0.0001
     75  CD2      -10.3220    1.9770   53.5300 C.3    83  LEU83       0.0001
     76  N         -6.4790    0.0040   50.4010 N.am   84  MET84      -0.1979
     77  CA        -5.6880   -1.1620   50.0230 C.3    84  MET84       0.1605
     78  C         -4.2820   -1.1430   50.6200 C.2    84  MET84       0.2287
     79  O         -3.8070   -2.1630   51.1170 O.2    84  MET84      -0.2864
     80  CB        -5.6120   -1.2780   48.4980 C.3    84  MET84       0.0413
     81  CG        -6.8620   -1.8870   47.8720 C.3    84  MET84       0.0598
     82  SD        -6.7950   -2.0000   46.0730 S.3    84  MET84      -0.1393
     83  CE        -8.2220   -3.0310   45.7390 C.3    84  MET84       0.0692
     84  N         -4.6520   -2.0550   54.2200 N.3    87  LEU87      -0.1245
     85  CA        -4.8640   -3.4950   54.3350 C.3    87  LEU87       0.1561
     86  C         -3.5700   -4.2660   54.1110 C.2    87  LEU87       0.2260
     87  O         -3.2510   -5.2020   54.8470 O.2    87  LEU87      -0.2867
     88  CB        -5.9230   -3.9540   53.3300 C.3    87  LEU87       0.0270
     89  CG        -5.9590   -5.4480   52.9990 C.3    87  LEU87       0.0019
     90  CD1       -6.4260   -6.2570   54.1970 C.3    87  LEU87       0.0001
     91  CD2       -6.8400   -5.7100   51.7890 C.3    87  LEU87       0.0001
     92  N         -1.3010   -3.7560   57.1500 N.3    90  ARG90      -0.1245
     93  CA        -1.7220   -4.5650   58.2900 C.3    90  ARG90       0.1563
     94  C         -1.3890   -6.0380   58.0790 C.2    90  ARG90       0.2260
     95  O         -1.1200   -6.7680   59.0320 O.2    90  ARG90      -0.2867
     96  CB        -3.2240   -4.4110   58.5410 C.3    90  ARG90       0.0307
     97  CG        -3.6650   -3.0130   58.9310 C.3    90  ARG90       0.0489
     98  CD        -5.1090   -3.0090   59.4110 C.3    90  ARG90       0.2205
     99  NE        -6.0430   -3.4610   58.3830 N.pl3  90  ARG90      -0.0865
    100  CZ        -6.5850   -2.6640   57.4680 C.cat  90  ARG90       0.5346
    101  NH1       -6.2780   -1.3750   57.4490 N.pl3  90  ARG90       0.1354
    102  NH2       -7.4310   -3.1530   56.5710 N.pl3  90  ARG90       0.1354
    103  N         -7.9160   -7.7980   57.0170 N.3   100  PHE100     -0.1241
    104  CA        -8.9090   -6.7460   56.8250 C.3   100  PHE100      0.1605
    105  C         -9.2480   -6.1160   58.1670 C.2   100  PHE100      0.2264
    106  O         -9.3040   -4.8930   58.3020 O.2   100  PHE100     -0.2867
    107  CB       -10.1700   -7.3000   56.1600 C.3   100  PHE100      0.0534
    108  CG       -10.0120   -7.5670   54.6910 C.ar  100  PHE100     -0.0203
    109  CD1      -10.2930   -6.5780   53.7630 C.ar  100  PHE100     -0.0042
    110  CD2       -9.5780   -8.8010   54.2390 C.ar  100  PHE100     -0.0042
    111  CE1      -10.1490   -6.8170   52.4090 C.ar  100  PHE100     -0.0003
    112  CE2       -9.4310   -9.0460   52.8870 C.ar  100  PHE100     -0.0003
    113  CZ        -9.7160   -8.0520   51.9710 C.ar  100  PHE100     -0.0000
    114  N        -16.2790  -14.9160   45.7450 N.3   114  VAL114     -0.1231
    115  CA       -16.5770  -13.8510   44.7960 C.3   114  VAL114      0.1692
    116  C        -15.7130  -13.9800   43.5450 C.2   114  VAL114      0.2592
    117  O        -14.5050  -14.1990   43.6350 O.2   114  VAL114     -0.2718
    118  CB       -16.3570  -12.4620   45.4250 C.3   114  VAL114      0.0266
    119  CG1      -16.8120  -11.3660   44.4720 C.3   114  VAL114      0.0020
    120  CG2      -17.0950  -12.3600   46.7510 C.3   114  VAL114      0.0020
    121  N        -16.3390  -13.8460   42.3800 N.am  115  GLU115     -0.1966
    122  CA       -15.6270  -13.9390   41.1110 C.3   115  GLU115      0.1733
    123  C        -14.6340  -12.7930   40.9450 C.2   115  GLU115      0.2617
    124  O        -15.0030  -11.6210   41.0230 O.2   115  GLU115     -0.2715
    125  CB       -16.6150  -13.9500   39.9430 C.3   115  GLU115      0.0429
    126  CG       -17.4880  -15.2010   39.8570 C.3   115  GLU115      0.1163
    127  CD       -18.6680  -15.2680   40.7870 C.2   115  GLU115      0.3649
    128  OE1      -18.9500  -14.3150   41.5760 O.co2 115  GLU115     -0.2457
    129  OE2      -19.3410  -16.3160   40.7240 O.co2 115  GLU115     -0.2457
    130  N        -13.3710  -13.1410   40.7200 N.am  116  GLY116     -0.1940
    131  CA       -12.3330  -12.1500   40.5020 C.3   116  GLY116      0.2014
    132  C        -11.6400  -11.7040   41.7750 C.2   116  GLY116      0.2638
    133  O        -10.7210  -10.8860   41.7340 O.2   116  GLY116     -0.2714
    134  N        -12.0730  -12.2440   42.9090 N.am  117  MET117     -0.1976
    135  CA       -11.5100  -11.8520   44.1980 C.3   117  MET117      0.1605
    136  C        -10.1540  -12.5060   44.4540 C.2   117  MET117      0.2287
    137  O         -9.2620  -11.8880   45.0330 O.2   117  MET117     -0.2864
    138  CB       -12.4830  -12.1910   45.3290 C.3   117  MET117      0.0413
    139  CG       -11.9110  -11.9840   46.7220 C.3   117  MET117      0.0598
    140  SD       -13.1630  -12.0590   48.0130 S.3   117  MET117     -0.1393
    141  CE       -14.0230  -10.5200   47.7170 C.3   117  MET117      0.0692
    142  N         -7.4240  -10.4540   42.8080 N.3   120  ILE120     -0.1231
    143  CA        -7.1100   -9.2520   43.5720 C.3   120  ILE120      0.1692
    144  C         -6.3980   -9.6080   44.8730 C.2   120  ILE120      0.2592
    145  O         -5.4480   -8.9330   45.2740 O.2   120  ILE120     -0.2718
    146  CB        -8.3770   -8.4350   43.8900 C.3   120  ILE120      0.0266
    147  CG1       -9.1310   -8.1000   42.6020 C.3   120  ILE120      0.0019
    148  CG2       -8.0190   -7.1620   44.6420 C.3   120  ILE120      0.0020
    149  CD1       -8.3650   -7.1960   41.6600 C.3   120  ILE120      0.0001
    150  N         -6.8620  -10.6720   45.5240 N.am  121  PHE121     -0.1976
    151  CA        -6.2360  -11.1530   46.7500 C.3   121  PHE121      0.1639
    152  C         -4.7650  -11.4830   46.5270 C.2   121  PHE121      0.2290
    153  O         -3.9100  -11.1060   47.3270 O.2   121  PHE121     -0.2864
    154  CB        -6.9680  -12.3860   47.2890 C.3   121  PHE121      0.0560
    155  CG        -8.1110  -12.0620   48.2130 C.ar  121  PHE121     -0.0200
    156  CD1       -8.6320  -10.7810   48.2740 C.ar  121  PHE121     -0.0042
    157  CD2       -8.6510  -13.0400   49.0330 C.ar  121  PHE121     -0.0042
    158  CE1       -9.6770  -10.4820   49.1280 C.ar  121  PHE121     -0.0003
    159  CE2       -9.6960  -12.7470   49.8900 C.ar  121  PHE121     -0.0003
    160  CZ       -10.2100  -11.4670   49.9370 C.ar  121  PHE121     -0.0000
    161  N         -2.7860   -8.3310   46.2580 N.3   124  LEU124     -0.1245
    162  CA        -2.6670   -7.7070   47.5710 C.3   124  LEU124      0.1561
    163  C         -1.6410   -8.4450   48.4290 C.2   124  LEU124      0.2260
    164  O         -0.7970   -7.8240   49.0740 O.2   124  LEU124     -0.2867
    165  CB        -4.0270   -7.6740   48.2740 C.3   124  LEU124      0.0270
    166  CG        -5.0770   -6.7290   47.6800 C.3   124  LEU124      0.0019
    167  CD1       -6.4570   -7.0200   48.2530 C.3   124  LEU124      0.0001
    168  CD2       -4.6920   -5.2790   47.9320 C.3   124  LEU124      0.0001
    169  N         -9.9510   -3.4660   41.1860 N.3   206  GLY206     -0.1225
    170  CA       -10.8470   -3.6540   42.3090 C.3   206  GLY206      0.1811
    171  C        -12.0800   -2.7770   42.2170 C.2   206  GLY206      0.2280
    172  O        -13.1540   -3.1560   42.6820 O.2   206  GLY206     -0.2866
    173  N        -14.8180   -4.2630   39.8980 N.3   209  HIS209     -0.1226
    174  CA       -15.5300   -5.3570   40.5430 C.3   209  HIS209      0.1752
    175  C        -16.5650   -4.8420   41.5410 C.2   209  HIS209      0.2595
    176  O        -17.5180   -5.5460   41.8740 O.2   209  HIS209     -0.2718
    177  CB       -14.5420   -6.2980   41.2340 C.3   209  HIS209      0.0759
    178  CG       -13.7870   -7.1810   40.2880 C.ar  209  HIS209      0.0818
    179  ND1      -14.3800   -7.7830   39.1980 N.ar  209  HIS209     -0.2268
    180  CD2      -12.4890   -7.5650   40.2680 C.ar  209  HIS209      0.1154
    181  CE1      -13.4800   -8.5000   38.5500 C.ar  209  HIS209      0.1986
    182  NE2      -12.3230   -8.3840   39.1780 N.ar  209  HIS209     -0.2212
    183  N        -16.3790   -3.6120   42.0140 N.am  210  LEU210     -0.1980
    184  CA       -17.3550   -2.9880   42.9020 C.3   210  LEU210      0.1596
    185  C        -18.5320   -2.4430   42.0980 C.2   210  LEU210      0.2287
    186  O        -19.6390   -2.3030   42.6180 O.2   210  LEU210     -0.2864
    187  CB       -16.7080   -1.8730   43.7280 C.3   210  LEU210      0.0297
    188  CG       -15.6810   -2.3150   44.7730 C.3   210  LEU210      0.0022
    189  CD1      -15.1940   -1.1280   45.5910 C.3   210  LEU210      0.0001
    190  CD2      -16.2620   -3.3920   45.6780 C.3   210  LEU210      0.0001
    191  N        -20.9070   -5.3590   41.3970 N.3   213  MET213     -0.1245
    192  CA       -21.6170   -5.6560   42.6340 C.3   213  MET213      0.1570
    193  C        -22.8010   -4.7130   42.8010 C.2   213  MET213      0.2261
    194  O        -23.8780   -5.1240   43.2340 O.2   213  MET213     -0.2867
    195  CB       -20.6880   -5.5490   43.8470 C.3   213  MET213      0.0387
    196  CG       -21.3730   -5.8800   45.1620 C.3   213  MET213      0.0595
    197  SD       -20.3120   -5.7520   46.6130 S.3   213  MET213     -0.1393
    198  CE       -20.1240   -3.9790   46.7570 C.3   213  MET213      0.0692
    199  N        -24.6880   -1.4010   49.7740 N.3   221  LEU221     -0.1245
    200  CA       -23.6270   -0.4580   50.1020 C.3   221  LEU221      0.1561
    201  C        -24.2400    0.8830   50.4910 C.2   221  LEU221      0.2260
    202  O        -25.3510    1.2080   50.0740 O.2   221  LEU221     -0.2867
    203  CB       -22.6520   -0.3000   48.9290 C.3   221  LEU221      0.0270
    204  CG       -23.2000   -0.2010   47.5020 C.3   221  LEU221      0.0019
    205  CD1      -23.7580    1.1820   47.2000 C.3   221  LEU221      0.0001
    206  CD2      -22.1230   -0.5770   46.4930 C.3   221  LEU221      0.0001
    207  N        -20.4990    5.3360   50.1080 N.3   225  LEU225     -0.1245
    208  CA       -19.7120    4.4390   49.2700 C.3   225  LEU225      0.1561
    209  C        -20.1690    4.5030   47.8190 C.2   225  LEU225      0.2260
    210  O        -19.3660    4.3580   46.8970 O.2   225  LEU225     -0.2867
    211  CB       -19.8070    3.0020   49.7850 C.3   225  LEU225      0.0270
    212  CG       -18.5400    2.4290   50.4210 C.3   225  LEU225      0.0019
    213  CD1      -18.7600    0.9910   50.8530 C.3   225  LEU225      0.0001
    214  CD2      -17.3740    2.5240   49.4520 C.3   225  LEU225      0.0001
@<TRIPOS>BOND
     1   181   182   ar
     2   181   179   ar
     3   182   180   ar
     4   179   178   ar
     5   126   125    1
     6   126   127    1
     7   173   174    1
     8   125   122    1
     9   180   178   ar
    10   178   177    1
    11   131   130    1
    12   131   132    1
    13   174   177    1
    14   174   175    1
    15   130   123   am
    16   129   127   ar
    17   127   128   ar
    18   123   124    2
    19   123   122    1
    20   122   121    1
    21   169   170    1
    22   191   192    1
    23   175   176    2
    24   175   183   am
    25   149   147    1
    26   133   132    2
    27   132   134   am
    28   183   184    1
    29   185   186    2
    30   185   184    1
    31   171   170    1
    32   171   172    2
    33   121   116   am
    34   147   146    1
    35   192   193    1
    36   192   195    1
    37   193   194    2
    38   142   143    1
    39   184   187    1
    40   134   135    1
    41   116   117    2
    42   116   115    1
    43   143   146    1
    44   143   144    1
    45   187   188    1
    46   195   196    1
    47   146   148    1
    48   135   136    1
    49   135   138    1
    50   136   137    2
    51   119   118    1
    52   188   189    1
    53   188   190    1
    54   115   118    1
    55   115   114    1
    56   144   145    2
    57   144   150   am
    58    67    65    1
    59   196   197    1
    60   138   139    1
    61   118   120    1
    62   150   151    1
    63    83    82    1
    64    54    52   ar
    65    54    55   ar
    66    82    81    1
    67    65    64    1
    68    65    66    1
    69    64    61    1
    70   161   162    1
    71    57    55   ar
    72    57    59   ar
    73   206   204    1
    74    52    51   ar
    75   152   151    1
    76   152   153    2
    77   197   198    1
    78    55    53   ar
    79   139   140    1
    80   151   154    1
    81   210   209    2
    82   205   204    1
    83   154   155    1
    84    46    47    1
    85    59    58   ar
    86    61    60    1
    87    61    62    1
    88    60    48   am
    89    62    63    2
    90   204   203    1
    91   162   165    1
    92   162   163    1
    93     8     7    1
    94   166   168    1
    95   166   167    1
    96   166   165    1
    97   141   140    1
    98    51    53   ar
    99    51    50    1
   100   209   208    1
   101    53    56   ar
   102    81    80    1
   103     6     7    1
   104     6     5    1
   105   155   156   ar
   106   155   157   ar
   107   156   158   ar
   108   163   164    2
   109    80    77    1
   110    47    48    1
   111    47    50    1
   112    48    49    2
   113    58    56   ar
   114   203   200    1
   115   157   159   ar
   116     5     2    1
   117   158   160   ar
   118   208   211    1
   119   208   207    1
   120   214   212    1
   121   199   200    1
   122   211   212    1
   123   159   160   ar
   124    77    76    1
   125    77    78    1
   126   202   201    2
   127   200   201    1
   128    76    70   am
   129     2     1    1
   130     2     3    1
   131   212   213    1
   132    22    21    1
   133    78    79    2
   134    15    14    1
   135    68    69    1
   136     3     4    2
   137    72    69    1
   138    72    73    1
   139    74    73    1
   140    70    69    1
   141    70    71    2
   142    23    21    1
   143    21    18    1
   144    91    89    1
   145   113   111   ar
   146   113   112   ar
   147    73    75    1
   148    13    14    1
   149    13    10    1
   150    14    16    1
   151   111   109   ar
   152    18    17    1
   153    18    19    1
   154    17    11   am
   155    36    33    1
   156   112   110   ar
   157    89    88    1
   158    89    90    1
   159    11    10    1
   160    11    12    2
   161    88    85    1
   162    10     9    1
   163   109   108   ar
   164    19    20    2
   165    86    85    1
   166    86    87    2
   167    84    85    1
   168   110   108   ar
   169    33    34    1
   170    33    32    1
   171    34    35    2
   172   108   107    1
   173    32    26   am
   174    44    43   ar
   175   107   104    1
   176    26    27    2
   177    26    25    1
   178   102   100    1
   179    24    25    1
   180    41    38    1
   181    41    42    1
   182    39    40    2
   183    39    38    1
   184    43    45   ar
   185    43    42    1
   186   104   103    1
   187   104   105    1
   188    28    25    1
   189    28    29    1
   190    92    93    1
   191    31    29    1
   192   101   100    1
   193   100    99    2
   194    29    30    1
   195    38    37    1
   196    94    93    1
   197    94    95    2
   198   105   106    2
   199    93    96    1
   200    99    98    1
   201    96    97    1
   202    97    98    1
